@<TRIPOS>MOLECULE
ZINC04026895
   37    39     0     0     0
SMALL
USER_CHARGES
N-BLAHylformamide
@<TRIPOS>ATOM
      1 C1         -0.0127    1.0858    0.0080 C.3       1 <0>        -0.1201
      2 C2         -0.7722    1.6028   -1.2215 C.3       1 <0>        -0.1204
      3 C3         -2.1217    0.8960   -1.2587 C.3       1 <0>        -0.0823
      4 C4         -2.8339    0.9923    0.0733 C.2       1 <0>        -0.1165
      5 C5         -2.2245    1.2637    1.1863 C.2       1 <0>        -0.1081
      6 C6         -0.7429    1.5856    1.2478 C.3       1 <0>        -0.0853
      7 C7         -2.9224    1.2804    2.5294 C.3       1 <0>        -0.0747
      8 C8         -4.4323    1.3070    2.4097 C.3       1 <0>        -0.0963
      9 H1         -4.8459    0.9941    3.3684 H         1 <0>         0.0712
     10 C9         -4.9598    2.6981    2.0951 C.3       1 <0>        -0.1076
     11 C10        -4.5115    3.1497    0.7055 C.3       1 <0>        -0.1243
     12 C11        -4.9794    2.1242   -0.3485 C.3       1 <0>        -0.1071
     13 C12        -4.3346    0.7742    0.0011 C.3       1 <0>        -0.0595
     14 H2         -4.5663    0.0409   -0.7713 H         1 <0>         0.0810
     15 C13        -4.8716    0.2973    1.3480 C.3       1 <0>         0.1525
     16 H3         -5.9599    0.2465    1.3146 H         1 <0>         0.0912
     17 N1         -4.3216   -1.0238    1.6619 N.am      1 <0>        -0.7278
     18 C14        -4.9891   -1.8525    2.4890 C.2       1 <0>         0.4896
     19 O1         -6.0452   -1.5045    2.9734 O.2       1 <0>        -0.5545
     20 H4          0.0021   -0.0041    0.0020 H         1 <0>         0.0640
     21 H5          1.0076    1.4692    0.0003 H         1 <0>         0.0648
     22 H6         -0.9206    2.6795   -1.1390 H         1 <0>         0.0641
     23 H7         -0.2092    1.3753   -2.1268 H         1 <0>         0.0650
     24 H8         -2.7427    1.3539   -2.0287 H         1 <0>         0.0680
     25 H9         -1.9671   -0.1547   -1.5039 H         1 <0>         0.0696
     26 H10        -0.3107    1.1137    2.1302 H         1 <0>         0.0670
     27 H11        -0.6161    2.6655    1.3247 H         1 <0>         0.0703
     28 H12        -2.5983    2.1658    3.0764 H         1 <0>         0.0686
     29 H13        -2.6309    0.3953    3.0948 H         1 <0>         0.0695
     30 H14        -6.0490    2.6855    2.1337 H         1 <0>         0.0633
     31 H15        -4.5830    3.4007    2.8384 H         1 <0>         0.0646
     32 H16        -4.9473    4.1233    0.4811 H         1 <0>         0.0604
     33 H17        -3.4243    3.2232    0.6799 H         1 <0>         0.0713
     34 H18        -4.6680    2.4336   -1.3462 H         1 <0>         0.0695
     35 H19        -6.0651    2.0340   -0.3125 H         1 <0>         0.0670
     36 H20        -3.4770   -1.3020    1.2745 H         1 <0>         0.4020
     37 H21        -4.5837   -2.8264    2.7204 H         1 <0>         0.1300
@<TRIPOS>BOND
     1    1    6 1
     2    1    2 1
     3    1   20 1
     4    1   21 1
     5    2    3 1
     6    2   22 1
     7    2   23 1
     8    3    4 1
     9    3   24 1
    10    3   25 1
    11    4   13 1
    12    4    5 2
    13    5    6 1
    14    5    7 1
    15    6   26 1
    16    6   27 1
    17    7    8 1
    18    7   28 1
    19    7   29 1
    20    8    9 1
    21    8   15 1
    22    8   10 1
    23   10   11 1
    24   10   30 1
    25   10   31 1
    26   11   12 1
    27   11   32 1
    28   11   33 1
    29   12   13 1
    30   12   34 1
    31   12   35 1
    32   13   14 1
    33   13   15 1
    34   15   16 1
    35   15   17 1
    36   17   18 am
    37   17   36 1
    38   18   19 2
    39   18   37 1
@<TRIPOS>MOLECULE
ZINC20378548
   33    33     0     0     0
SMALL
USER_CHARGES
(2R)-2-methylamino-2-(2,4,6-trimethylphenyl)propanenitrile
@<TRIPOS>ATOM
      1 C1          1.3028    0.4675    3.4792 C.3       1 <0>        -0.1203
      2 C2          1.8193    0.7904    2.1008 C.ar      1 <0>        -0.0657
      3 C3          1.3120    1.8744    1.4091 C.ar      1 <0>        -0.1336
      4 C4          1.7861    2.1710    0.1449 C.ar      1 <0>        -0.0529
      5 C5          2.7662    1.3824   -0.4283 C.ar      1 <0>        -0.1048
      6 C6          3.2741    0.2989    0.2638 C.ar      1 <0>        -0.0391
      7 C7          2.8006    0.0030    1.5284 C.ar      1 <0>        -0.1352
      8 C8          4.3436   -0.5598   -0.3605 C.3       1 <0>        -0.0987
      9 C9          3.2823    1.7051   -1.8069 C.3       1 <0>         0.2529
     10 C10         3.4429    3.2199   -1.9497 C.3       1 <0>        -0.2650
     11 C11         2.3280    1.2157   -2.8151 C.1       1 <0>         0.2189
     12 N1          1.5915    0.8380   -3.5932 N.1       1 <0>        -0.4163
     13 N2          4.5836    1.0536   -2.0075 N.3       1 <0>        -0.6452
     14 C12         5.0510    1.2256   -3.3895 C.3       1 <0>        -0.0057
     15 C13         1.2328    3.3525   -0.6094 C.3       1 <0>        -0.1995
     16 H1          0.5322    1.1994    3.7628 H         1 <0>         0.0657
     17 H2          2.1320    0.5099    4.2007 H         1 <0>         0.0721
     18 H3          0.8672   -0.5426    3.4802 H         1 <0>         0.0713
     19 H4          0.5421    2.4870    1.8545 H         1 <0>         0.1225
     20 H5          3.1972   -0.8437    2.0690 H         1 <0>         0.1237
     21 H6          4.6189   -1.3662    0.3352 H         1 <0>         0.0421
     22 H7          5.2289    0.0564   -0.5764 H         1 <0>         0.0939
     23 H8          3.9637   -0.9963   -1.2960 H         1 <0>         0.0749
     24 H9          3.8196    3.4554   -2.9560 H         1 <0>         0.0694
     25 H10         4.1561    3.5856   -1.1963 H         1 <0>         0.0849
     26 H11         2.4685    3.7077   -1.7995 H         1 <0>         0.1566
     27 H12         5.3248    1.4976   -1.3267 H         1 <0>         0.3622
     28 H13         6.0250    0.7292   -3.5116 H         1 <0>         0.0819
     29 H14         5.1557    2.2981   -3.6103 H         1 <0>         0.0361
     30 H15         4.3222    0.7782   -4.0814 H         1 <0>         0.0634
     31 H16         1.7288    3.4274   -1.5884 H         1 <0>         0.1397
     32 H17         1.4151    4.2725   -0.0346 H         1 <0>         0.0788
     33 H18         0.1507    3.2200   -0.7558 H         1 <0>         0.0708
@<TRIPOS>BOND
     1    1    2 1
     2    1   16 1
     3    1   17 1
     4    1   18 1
     5    2    7 ar
     6    2    3 ar
     7    3    4 ar
     8    3   19 1
     9    4    5 ar
    10    4   15 1
    11    5    6 ar
    12    5    9 1
    13    6    7 ar
    14    6    8 1
    15    7   20 1
    16    8   21 1
    17    8   22 1
    18    8   23 1
    19    9   10 1
    20    9   11 1
    21    9   13 1
    22   10   24 1
    23   10   25 1
    24   10   26 1
    25   11   12 3
    26   13   14 1
    27   13   27 1
    28   14   28 1
    29   14   29 1
    30   14   30 1
    31   15   31 1
    32   15   32 1
    33   15   33 1
@<TRIPOS>MOLECULE
ZINC36378072
   25    25     0     0     0
SMALL
USER_CHARGES

@<TRIPOS>ATOM
      1 C1         -0.0187    1.5258    0.0104 C.3       1 <0>        -0.1508
      2 C2          0.0021   -0.0041    0.0020 C.3       1 <0>        -0.0845
      3 C3          0.7309   -0.5033    1.2229 C.2       1 <0>        -0.0708
      4 C4          0.0531   -0.8385    2.3081 C.2       1 <0>        -0.1163
      5 C5          0.7235   -1.3481    3.5477 C.3       1 <0>         0.0743
      6 H1          0.5770   -2.4263    3.6115 H         1 <0>         0.1601
      7 C6          2.1929   -1.0554    3.5560 C.2       1 <0>         0.2363
      8 N1          2.8776   -0.7336    2.4305 N.pl3     1 <0>        -0.5947
      9 C7          2.2023   -0.6247    1.2076 C.2       1 <0>         0.1005
     10 C8          2.8743   -0.6257    0.0529 C.2       1 <0>        -0.1874
     11 S1          2.9608   -1.1226    4.9047 S.3       1 <0>        -0.3348
     12 C9          0.1045   -0.7118    4.7219 C.1       1 <0>         0.2184
     13 N2         -0.3732   -0.2207    5.6280 N.1       1 <0>        -0.3843
     14 C10        -1.4477   -0.7025    2.2978 C.3       1 <0>        -0.1257
     15 H2          1.0039    1.9031    0.0027 H         1 <0>         0.0581
     16 H3         -0.5459    1.8868   -0.8726 H         1 <0>         0.0653
     17 H4         -0.5289    1.8773    0.9072 H         1 <0>         0.0570
     18 H5         -1.0205   -0.3814    0.0098 H         1 <0>         0.0866
     19 H6          0.5123   -0.3556   -0.8948 H         1 <0>         0.0819
     20 H7          2.3412   -0.5371   -0.8821 H         1 <0>         0.1319
     21 H8          3.9505   -0.7152    0.0546 H         1 <0>         0.1142
     22 H9         -1.8943   -1.6321    1.9451 H         1 <0>         0.0840
     23 H10        -1.8002   -0.4901    3.3071 H         1 <0>         0.0680
     24 H11        -1.7340    0.1131    1.6337 H         1 <0>         0.0821
     25 H12         3.8349   -0.5827    2.4717 H         1 <0>         0.4303
@<TRIPOS>BOND
     1    1    2 1
     2    1   15 1
     3    1   16 1
     4    1   17 1
     5    2    3 1
     6    2   18 1
     7    2   19 1
     8    3    9 1
     9    3    4 2
    10    4    5 1
    11    4   14 1
    12    5    6 1
    13    5    7 1
    14    5   12 1
    15    7    8 2
    16    7   11 1
    17    8    9 1
    18    8   25 1
    19    9   10 2
    20   10   20 1
    21   10   21 1
    22   12   13 3
    23   14   22 1
    24   14   23 1
    25   14   24 1
@<TRIPOS>MOLECULE
ZINC44198750
   31    33     0     0     0
SMALL
USER_CHARGES

@<TRIPOS>ATOM
      1 C1          0.0060    1.4536    0.0018 C.3       1 <0>         0.0718
      2 N1         -0.0004   -0.0113   -0.0052 N.pl3     1 <0>        -0.4640
      3 C2         -0.0288   -0.7967   -1.1418 C.ar      1 <0>         0.0867
      4 C3         -0.0570   -0.4991   -2.4999 C.ar      1 <0>        -0.1225
      5 C4         -0.0812   -1.5182   -3.4263 C.ar      1 <0>        -0.1006
      6 C5         -0.0784   -2.8441   -3.0163 C.ar      1 <0>        -0.1376
      7 C6         -0.0510   -3.1591   -1.6872 C.ar      1 <0>        -0.0719
      8 C7         -0.0252   -2.1446   -0.7302 C.ar      1 <0>        -0.0710
      9 C8          0.0084   -2.1087    0.7274 C.2       1 <0>        -0.1599
     10 C9          0.0265   -0.7921    1.1015 C.2       1 <0>         0.1071
     11 C10         0.0657   -0.4006    2.5585 C.3       1 <0>        -0.0566
     12 C11        -0.6617   -1.4677    3.3764 C.3       1 <0>        -0.0582
     13 C12        -0.2700   -2.8615    2.9854 C.2       1 <0>        -0.1323
     14 C13         0.0292   -3.1913    1.7295 C.2       1 <0>         0.0327
     15 Cl1         0.4420   -4.8209    1.2960 Cl        1 <0>        -0.0609
     16 C14        -0.2211   -3.9278    4.0492 C.3       1 <0>         0.1063
     17 O1         -1.4890   -4.0063    4.7036 O.3       1 <0>        -0.5663
     18 H1          1.0348    1.8126   -0.0246 H         1 <0>         0.0746
     19 H2         -0.5304    1.8235   -0.8721 H         1 <0>         0.0855
     20 H3         -0.4818    1.8148    0.9072 H         1 <0>         0.0860
     21 H4         -0.0603    0.5299   -2.8279 H         1 <0>         0.1201
     22 H5         -0.1029   -1.2835   -4.4803 H         1 <0>         0.1275
     23 H6         -0.0985   -3.6330   -3.7536 H         1 <0>         0.1250
     24 H7         -0.0496   -4.1937   -1.3775 H         1 <0>         0.1233
     25 H8          1.1016   -0.3297    2.8899 H         1 <0>         0.0911
     26 H9         -0.4289    0.5616    2.6916 H         1 <0>         0.0873
     27 H10        -0.4317   -1.3203    4.4316 H         1 <0>         0.0896
     28 H11        -1.7358   -1.3503    3.2325 H         1 <0>         0.0837
     29 H12         0.0110   -4.8887    3.5900 H         1 <0>         0.0631
     30 H13         0.5495   -3.6782    4.7786 H         1 <0>         0.0584
     31 H14        -1.5304   -4.6738    5.4021 H         1 <0>         0.3819
@<TRIPOS>BOND
     1    1    2 1
     2    1   18 1
     3    1   19 1
     4    1   20 1
     5    2   10 1
     6    2    3 1
     7    3    8 ar
     8    3    4 ar
     9    4    5 ar
    10    4   21 1
    11    5    6 ar
    12    5   22 1
    13    6    7 ar
    14    6   23 1
    15    7    8 ar
    16    7   24 1
    17    8    9 1
    18    9   14 1
    19    9   10 2
    20   10   11 1
    21   11   12 1
    22   11   25 1
    23   11   26 1
    24   12   13 1
    25   12   27 1
    26   12   28 1
    27   13   14 2
    28   13   16 1
    29   14   15 1
    30   16   17 1
    31   16   29 1
    32   16   30 1
    33   17   31 1
@<TRIPOS>MOLECULE
ZINC57534275
   39    41     0     0     0
SMALL
USER_CHARGES

@<TRIPOS>ATOM
      1 C1         -0.0187    1.5258    0.0104 C.3       1 <0>        -0.1452
      2 C2          0.0021   -0.0041    0.0020 C.3       1 <0>        -0.0582
      3 C3          0.7421   -0.5109    1.2415 C.3       1 <0>        -0.1452
      4 C4         -1.4117   -0.5257    0.0127 C.ar      1 <0>        -0.0869
      5 C5         -2.2587   -0.2029    1.0583 C.ar      1 <0>        -0.0834
      6 C6         -3.5574   -0.6811    1.0816 C.ar      1 <0>        -0.1253
      7 C7         -4.0151   -1.4819    0.0573 C.ar      1 <0>        -0.0385
      8 C8         -3.1679   -1.8010   -1.0063 C.ar      1 <0>        -0.1356
      9 C9         -1.8607   -1.3198   -1.0236 C.ar      1 <0>        -0.0531
     10 C10        -3.6882   -2.6290   -2.1146 C.2       1 <0>         0.5663
     11 O1         -2.9263   -3.1028   -2.9347 O.2       1 <0>        -0.5355
     12 N1         -5.0120   -2.8549   -2.2089 N.am      1 <0>        -0.7255
     13 C11        -5.9619   -2.1580   -1.3441 C.3       1 <0>         0.1249
     14 C12        -5.4164   -2.0278    0.0736 C.3       1 <0>        -0.0420
     15 C13        -6.3253   -1.0948    0.8968 C.3       1 <0>        -0.1195
     16 C14        -7.2819   -2.0590    1.6422 C.3       1 <0>        -0.1256
     17 C15        -6.3575   -3.2491    2.0010 C.3       1 <0>        -0.1245
     18 C16        -5.4356   -3.3963    0.7722 C.3       1 <0>        -0.1102
     19 H1          1.0039    1.9031    0.0027 H         1 <0>         0.0605
     20 H2         -0.5459    1.8868   -0.8726 H         1 <0>         0.0565
     21 H3         -0.5289    1.8773    0.9072 H         1 <0>         0.0569
     22 H4          0.5123   -0.3556   -0.8948 H         1 <0>         0.0804
     23 H5          0.7568   -1.6008    1.2356 H         1 <0>         0.0567
     24 H6          1.7647   -0.1336    1.2338 H         1 <0>         0.0605
     25 H7          0.2319   -0.1594    2.1383 H         1 <0>         0.0568
     26 H8         -1.9041    0.4259    1.8616 H         1 <0>         0.1274
     27 H9         -4.2118   -0.4272    1.9024 H         1 <0>         0.1351
     28 H10        -1.2010   -1.5696   -1.8413 H         1 <0>         0.1346
     29 H11        -5.3413   -3.4913   -2.8627 H         1 <0>         0.4060
     30 H12        -6.1505   -1.1633   -1.7480 H         1 <0>         0.0686
     31 H13        -6.8978   -2.7159   -1.3176 H         1 <0>         0.0910
     32 H14        -5.7351   -0.5171    1.6081 H         1 <0>         0.0834
     33 H15        -6.8877   -0.4321    0.2390 H         1 <0>         0.0743
     34 H16        -7.6765   -1.5909    2.5440 H         1 <0>         0.0709
     35 H17        -8.0914   -2.3824    0.9878 H         1 <0>         0.0694
     36 H18        -5.7721   -3.0223    2.8921 H         1 <0>         0.0675
     37 H19        -6.9435   -4.1562    2.1491 H         1 <0>         0.0684
     38 H20        -5.8313   -4.1550    0.0970 H         1 <0>         0.0705
     39 H21        -4.4290   -3.6674    1.0907 H         1 <0>         0.0675
@<TRIPOS>BOND
     1    1    2 1
     2    1   19 1
     3    1   20 1
     4    1   21 1
     5    2    3 1
     6    2    4 1
     7    2   22 1
     8    3   23 1
     9    3   24 1
    10    3   25 1
    11    4    9 ar
    12    4    5 ar
    13    5    6 ar
    14    5   26 1
    15    6    7 ar
    16    6   27 1
    17    7   14 1
    18    7    8 ar
    19    8    9 ar
    20    8   10 1
    21    9   28 1
    22   10   11 2
    23   10   12 am
    24   12   13 1
    25   12   29 1
    26   13   14 1
    27   13   30 1
    28   13   31 1
    29   14   18 1
    30   14   15 1
    31   15   16 1
    32   15   32 1
    33   15   33 1
    34   16   17 1
    35   16   34 1
    36   16   35 1
    37   17   18 1
    38   17   36 1
    39   17   37 1
    40   18   38 1
    41   18   39 1
@<TRIPOS>MOLECULE
ZINC03883422
   23    24     0     0     0
SMALL
USER_CHARGES

@<TRIPOS>ATOM
      1 C1         -0.0169    1.3937    0.0097 C.ar      1 <0>        -0.0925
      2 C2          1.1696    2.0960    0.0021 C.ar      1 <0>        -0.1087
      3 C3          2.3783    1.4199   -0.0135 C.ar      1 <0>        -0.0316
      4 C4          2.4045    0.0350   -0.0212 C.ar      1 <0>        -0.1073
      5 C5          1.2256   -0.6800   -0.0133 C.ar      1 <0>        -0.0979
      6 C6          0.0021   -0.0041    0.0020 C.ar      1 <0>        -0.0558
      7 C7         -1.2613   -0.7612    0.0105 C.2       1 <0>        -0.0986
      8 C8         -1.2395   -2.1064    0.0031 C.2       1 <0>        -0.0815
      9 C9         -2.4986   -2.8609    0.0115 C.2       1 <0>         0.1064
     10 C10        -2.6324   -4.2362    0.0111 C.2       1 <0>        -0.2466
     11 C11        -3.9949   -4.5279    0.0213 C.2       1 <0>         0.0480
     12 N1         -4.6662   -3.4040    0.0277 N.2       1 <0>        -0.2857
     13 N2         -3.7600   -2.3363    0.0273 N.pl3     1 <0>        -0.4728
     14 H1         -3.9872   -1.3933    0.0347 H         1 <0>         0.4377
     15 Cl1         3.8674    2.3122   -0.0241 Cl        1 <0>        -0.0653
     16 H2         -0.9586    1.9221    0.0260 H         1 <0>         0.1354
     17 H3          1.1564    3.1760    0.0081 H         1 <0>         0.1371
     18 H4          3.3505   -0.4859   -0.0337 H         1 <0>         0.1376
     19 H5          1.2474   -1.7598   -0.0197 H         1 <0>         0.1372
     20 H6         -2.2052   -0.2364    0.0227 H         1 <0>         0.1188
     21 H7         -0.2957   -2.6311   -0.0091 H         1 <0>         0.1451
     22 H8         -1.8265   -4.9552    0.0037 H         1 <0>         0.1536
     23 H9         -4.4262   -5.5180    0.0232 H         1 <0>         0.1872
@<TRIPOS>BOND
     1    1    6 ar
     2    1    2 ar
     3    1   16 1
     4    2    3 ar
     5    2   17 1
     6    3    4 ar
     7    3   15 1
     8    4    5 ar
     9    4   18 1
    10    5    6 ar
    11    5   19 1
    12    6    7 1
    13    7    8 2
    14    7   20 1
    15    8    9 1
    16    8   21 1
    17    9   13 1
    18    9   10 2
    19   10   11 1
    20   10   22 1
    21   11   12 2
    22   11   23 1
    23   12   13 1
    24   13   14 1
@<TRIPOS>MOLECULE
ZINC06510920
   42    45     0     0     0
SMALL
USER_CHARGES
3-(allylsulfanylBLAHyl)-2-chloro-phenol
@<TRIPOS>ATOM
      1 C1         -1.8834   -8.7622    1.9584 C.2       1 <0>        -0.1514
      2 C2         -1.8588   -7.7615    2.8034 C.2       1 <0>        -0.1576
      3 C3         -0.9398   -6.5922    2.5600 C.3       1 <0>        -0.0896
      4 S1         -1.9243   -5.1031    2.2611 S.3       1 <0>         0.0501
      5 C4         -0.6347   -3.9280    2.0146 C.ar      1 <0>         0.2463
      6 N1         -0.9447   -2.6604    1.7579 N.ar      1 <0>        -0.4630
      7 C5          0.0259   -1.7819    1.5743 C.ar      1 <0>         0.3730
      8 C6          1.3661   -2.2241    1.6520 C.ar      1 <0>         0.0541
      9 N2          1.6066   -3.4998    1.9132 N.ar      1 <0>        -0.1516
     10 N3          0.6304   -4.3220    2.0885 N.ar      1 <0>        -0.2913
     11 C7          2.4662   -1.2605    1.4407 C.ar      1 <0>        -0.0618
     12 C8          3.5569   -1.2018    2.2994 C.ar      1 <0>        -0.0643
     13 C9          4.5804   -0.3088    2.0486 C.ar      1 <0>        -0.1242
     14 C10         4.5256    0.5288    0.9479 C.ar      1 <0>        -0.0880
     15 C11         3.4428    0.4857    0.0887 C.ar      1 <0>        -0.1227
     16 C12         2.4080   -0.3991    0.3290 C.ar      1 <0>         0.1854
     17 N4          1.2910   -0.4594   -0.5098 N.pl3     1 <0>        -0.7867
     18 C13         0.0021   -0.0041    0.0020 C.3       1 <0>         0.3863
     19 H1         -0.7888   -0.3661   -0.6549 H         1 <0>         0.1037
     20 O1         -0.2383   -0.4783    1.3222 O.3       1 <0>        -0.3097
     21 C14        -0.0184    1.5028    0.0103 C.ar      1 <0>        -0.0808
     22 C15         0.3190    2.1921    1.1607 C.ar      1 <0>        -0.0797
     23 C16         0.3016    3.5743    1.1714 C.ar      1 <0>        -0.0972
     24 C17        -0.0530    4.2713    0.0321 C.ar      1 <0>        -0.1207
     25 C18        -0.3918    3.5833   -1.1232 C.ar      1 <0>         0.1177
     26 C19        -0.3687    2.1950   -1.1335 C.ar      1 <0>        -0.0430
     27 Cl1        -0.7852    1.3297   -2.5797 Cl        1 <0>        -0.0503
     28 O2         -0.7405    4.2668   -2.2452 O.3       1 <0>        -0.4836
     29 H2         -2.5420   -9.6002    2.1328 H         1 <0>         0.1096
     30 H3         -1.2452   -8.7493    1.0873 H         1 <0>         0.1021
     31 H4         -2.4971   -7.7745    3.6745 H         1 <0>         0.1228
     32 H5         -0.3155   -6.7957    1.6900 H         1 <0>         0.1033
     33 H6         -0.3065   -6.4398    3.4340 H         1 <0>         0.1090
     34 H7          3.6046   -1.8528    3.1598 H         1 <0>         0.1307
     35 H8          5.4286   -0.2636    2.7157 H         1 <0>         0.1322
     36 H9          5.3337    1.2199    0.7587 H         1 <0>         0.1308
     37 H10         3.4057    1.1418   -0.7684 H         1 <0>         0.1304
     38 H11         1.3711   -0.7979   -1.4153 H         1 <0>         0.4148
     39 H12         0.5968    1.6496    2.0523 H         1 <0>         0.1382
     40 H13         0.5652    4.1100    2.0714 H         1 <0>         0.1389
     41 H14        -0.0665    5.3512    0.0415 H         1 <0>         0.1425
     42 H15         0.0042    4.4769   -2.8251 H         1 <0>         0.3948
@<TRIPOS>BOND
     1    1    2 2
     2    1   29 1
     3    1   30 1
     4    2    3 1
     5    2   31 1
     6    3    4 1
     7    3   32 1
     8    3   33 1
     9    4    5 1
    10    5   10 ar
    11    5    6 ar
    12    6    7 ar
    13    7   20 1
    14    7    8 ar
    15    8    9 ar
    16    8   11 1
    17    9   10 ar
    18   11   16 ar
    19   11   12 ar
    20   12   13 ar
    21   12   34 1
    22   13   14 ar
    23   13   35 1
    24   14   15 ar
    25   14   36 1
    26   15   16 ar
    27   15   37 1
    28   16   17 1
    29   17   18 1
    30   17   38 1
    31   18   19 1
    32   18   20 1
    33   18   21 1
    34   21   26 ar
    35   21   22 ar
    36   22   23 ar
    37   22   39 1
    38   23   24 ar
    39   23   40 1
    40   24   25 ar
    41   24   41 1
    42   25   26 ar
    43   25   28 1
    44   26   27 1
    45   28   42 1
@<TRIPOS>MOLECULE
ZINC14551093
   54    57     0     0     0
SMALL
USER_CHARGES
(3aS,4R,9bR)-4-(4-nitrophenyl)-N-sec-butyl-3a,4,5,9b-tetrahydro-3H-cyclopenta[c]quinoline-8-carboxamide
@<TRIPOS>ATOM
      1 C1          7.0337    2.3879   -4.2391 C.3       1 <0>        -0.1541
      2 C2          7.5815    1.1535   -3.5200 C.3       1 <0>        -0.1322
      3 C3          6.4242    0.2247   -3.1475 C.3       1 <0>         0.1403
      4 H1          5.8472   -0.0132   -4.0411 H         1 <0>         0.0897
      5 C4          6.9803   -1.0652   -2.5410 C.3       1 <0>        -0.1648
      6 N1          5.5590    0.8903   -2.1705 N.am      1 <0>        -0.7231
      7 C5          4.2634    0.5341   -2.0647 C.2       1 <0>         0.5636
      8 O1          3.8127   -0.3396   -2.7802 O.2       1 <0>        -0.5407
      9 C6          3.3922    1.2044   -1.0808 C.ar      1 <0>        -0.1845
     10 C7          3.9101    2.2094   -0.2583 C.ar      1 <0>        -0.0417
     11 C8          3.0890    2.8289    0.6547 C.ar      1 <0>        -0.1944
     12 C9          1.7506    2.4580    0.7593 C.ar      1 <0>         0.2383
     13 C10         1.2262    1.4588   -0.0519 C.ar      1 <0>        -0.1494
     14 C11         2.0513    0.8359   -0.9711 C.ar      1 <0>        -0.0121
     15 C12        -0.2045    1.0290    0.0314 C.3       1 <0>        -0.0122
     16 H2         -0.2586   -0.0595    0.0489 H         1 <0>         0.0995
     17 C13        -1.0064    1.5566   -1.1346 C.2       1 <0>        -0.1516
     18 C14        -2.2030    1.8880   -0.7673 C.2       1 <0>        -0.1662
     19 C15        -2.3895    1.6221    0.7139 C.3       1 <0>        -0.0984
     20 C16        -0.9327    1.6021    1.2628 C.3       1 <0>        -0.0972
     21 H3         -0.8084    0.9865    2.1537 H         1 <0>         0.1070
     22 C17        -0.5161    3.0444    1.5035 C.3       1 <0>         0.1944
     23 H4         -1.0131    3.4272    2.3948 H         1 <0>         0.1109
     24 N2          0.9374    3.1038    1.6880 N.pl3     1 <0>        -0.7387
     25 C18        -0.9078    3.8771    0.3101 C.ar      1 <0>        -0.0304
     26 C19        -0.0292    4.0271   -0.7465 C.ar      1 <0>        -0.1047
     27 C20        -0.3906    4.7867   -1.8434 C.ar      1 <0>        -0.0536
     28 C21        -1.6263    5.4053   -1.8790 C.ar      1 <0>        -0.0463
     29 C22        -2.5027    5.2599   -0.8199 C.ar      1 <0>        -0.0517
     30 C23        -2.1435    4.4957    0.2746 C.ar      1 <0>        -0.1121
     31 N3         -2.0113    6.2228   -3.0513 N.pl3     1 <0>         0.0279
     32 O2         -3.1003    6.7675   -3.0828 O.2       1 <0>        -0.1614
     33 O3         -1.2391    6.3508   -3.9845 O.3       1 <0>        -0.1614
     34 H5          6.3424    2.9146   -3.5813 H         1 <0>         0.0543
     35 H6          7.8582    3.0496   -4.5045 H         1 <0>         0.0574
     36 H7          6.5102    2.0788   -5.1438 H         1 <0>         0.0565
     37 H8          8.1051    1.4625   -2.6153 H         1 <0>         0.0675
     38 H9          8.2729    0.6267   -4.1778 H         1 <0>         0.0799
     39 H10         6.1558   -1.7269   -2.2756 H         1 <0>         0.0613
     40 H11         7.6241   -1.5604   -3.2680 H         1 <0>         0.0664
     41 H12         7.5573   -0.8272   -1.6474 H         1 <0>         0.0564
     42 H13         5.9185    1.5873   -1.5997 H         1 <0>         0.3972
     43 H14         4.9479    2.4971   -0.3391 H         1 <0>         0.1267
     44 H15         3.4835    3.6059    1.2927 H         1 <0>         0.1304
     45 H16         1.6548    0.0590   -1.6079 H         1 <0>         0.1357
     46 H17        -0.6389    1.6471   -2.1461 H         1 <0>         0.1231
     47 H18        -2.9613    2.2947   -1.4200 H         1 <0>         0.1243
     48 H19        -2.8734    0.6585    0.8733 H         1 <0>         0.0852
     49 H20        -2.9650    2.4214    1.1808 H         1 <0>         0.0772
     50 H21         1.3235    3.5811    2.4390 H         1 <0>         0.4111
     51 H22         0.9380    3.5474   -0.7168 H         1 <0>         0.1528
     52 H23         0.2939    4.8999   -2.6711 H         1 <0>         0.1492
     53 H24        -3.4681    5.7432   -0.8476 H         1 <0>         0.1525
     54 H25        -2.8282    4.3822    1.1021 H         1 <0>         0.1464
@<TRIPOS>BOND
     1    1    2 1
     2    1   34 1
     3    1   35 1
     4    1   36 1
     5    2    3 1
     6    2   37 1
     7    2   38 1
     8    3    4 1
     9    3    5 1
    10    3    6 1
    11    5   39 1
    12    5   40 1
    13    5   41 1
    14    6    7 am
    15    6   42 1
    16    7    8 2
    17    7    9 1
    18    9   14 ar
    19    9   10 ar
    20   10   11 ar
    21   10   43 1
    22   11   12 ar
    23   11   44 1
    24   12   24 1
    25   12   13 ar
    26   13   14 ar
    27   13   15 1
    28   14   45 1
    29   15   16 1
    30   15   20 1
    31   15   17 1
    32   17   18 2
    33   17   46 1
    34   18   19 1
    35   18   47 1
    36   19   20 1
    37   19   48 1
    38   19   49 1
    39   20   21 1
    40   20   22 1
    41   22   23 1
    42   22   24 1
    43   22   25 1
    44   24   50 1
    45   25   30 ar
    46   25   26 ar
    47   26   27 ar
    48   26   51 1
    49   27   28 ar
    50   27   52 1
    51   28   29 ar
    52   28   31 1
    53   29   30 ar
    54   29   53 1
    55   30   54 1
    56   31   32 2
    57   31   33 1
@<TRIPOS>MOLECULE
ZINC25244585
   56    60     0     0     0
SMALL
USER_CHARGES

@<TRIPOS>ATOM
      1 C1         -0.0187    1.5258    0.0104 C.3       1 <0>        -0.1476
      2 C2          0.0021   -0.0041    0.0020 C.3       1 <0>        -0.0872
      3 H1         -1.0197   -0.3837    0.0097 H         1 <0>         0.0774
      4 C3          0.7255   -0.5012   -1.2529 C.3       1 <0>        -0.1177
      5 C4          0.5358   -2.0113   -1.3973 C.3       1 <0>        -0.0597
      6 C5          0.9489   -2.6884   -0.0931 C.2       1 <0>        -0.0520
      7 C6          1.0313   -1.9760    1.0552 C.2       1 <0>        -0.1680
      8 S1          1.5370   -3.1451    2.2916 S.3       1 <0>         0.1678
      9 C7          1.6371   -4.5807    1.2701 C.2       1 <0>         0.0828
     10 C8          1.2714   -4.1013   -0.0073 C.2       1 <0>        -0.2431
     11 C9          1.2569   -5.0537   -1.0813 C.2       1 <0>         0.5647
     12 O1          0.9552   -4.7421   -2.2204 O.2       1 <0>        -0.5041
     13 N1          1.5994   -6.3206   -0.7474 N.am      1 <0>        -0.6319
     14 H2          1.6031   -6.9970   -1.4427 H         1 <0>         0.4152
     15 C10         1.9375   -6.6875    0.5121 C.2       1 <0>         0.4139
     16 N2          1.9620   -5.8451    1.5215 N.2       1 <0>        -0.4445
     17 C11         2.3013   -8.1273    0.7683 C.3       1 <0>        -0.0259
     18 H3          3.0827   -8.1752    1.5268 H         1 <0>         0.1521
     19 C12         1.0666   -8.8857    1.2594 C.3       1 <0>        -0.1487
     20 S2          2.9029   -8.8816   -0.7679 S.3       1 <0>         0.0099
     21 C13         3.4197  -10.4931   -0.2776 C.2       1 <0>         0.2640
     22 N3          3.3614  -10.9890    0.9405 N.2       1 <0>        -0.5247
     23 H4          4.1023  -11.3686   -2.0394 H         1 <0>         0.4466
     24 C14         3.8377  -12.2345    0.9419 C.2       1 <0>         0.2459
     25 N4          4.2065  -12.5532   -0.2697 N.2       1 <0>        -0.2960
     26 N5          3.9409  -11.4417   -1.0857 N.pl3     1 <0>        -0.4574
     27 C15         3.9354  -13.1311    2.1492 C.3       1 <0>        -0.0226
     28 C16         2.6449  -13.9411    2.2887 C.3       1 <0>        -0.0857
     29 C17         1.4720  -13.0077    2.6531 C.3       1 <0>        -0.1154
     30 C18         0.6138  -13.8422    3.6361 C.3       1 <0>        -0.1270
     31 C19         1.6817  -14.5953    4.4676 C.3       1 <0>        -0.1251
     32 C20         2.7783  -14.9505    3.4424 C.3       1 <0>        -0.1197
     33 C21         0.7511   -0.5159    1.2406 C.3       1 <0>        -0.0335
     34 H5          1.0039    1.9031    0.0027 H         1 <0>         0.0576
     35 H6         -0.5459    1.8868   -0.8726 H         1 <0>         0.0599
     36 H7         -0.5289    1.8773    0.9072 H         1 <0>         0.0581
     37 H8          0.3163    0.0007   -2.1297 H         1 <0>         0.0731
     38 H9          1.7888   -0.2759   -1.1713 H         1 <0>         0.0666
     39 H10        -0.5116   -2.2293   -1.6060 H         1 <0>         0.0799
     40 H11         1.1569   -2.3809   -2.2132 H         1 <0>         0.0870
     41 H12         0.2853   -8.8378    0.5009 H         1 <0>         0.0697
     42 H13         1.3298   -9.9271    1.4447 H         1 <0>         0.0981
     43 H14         0.7052   -8.4325    2.1824 H         1 <0>         0.0867
     44 H15         4.7796  -13.8103    2.0300 H         1 <0>         0.0903
     45 H16         4.0813  -12.5234    3.0422 H         1 <0>         0.0958
     46 H17         2.4307  -14.4649    1.3571 H         1 <0>         0.0731
     47 H18         1.8402  -12.1047    3.1400 H         1 <0>         0.0749
     48 H19         0.8953  -12.7545    1.7635 H         1 <0>         0.0579
     49 H20         0.0153  -13.1920    4.2742 H         1 <0>         0.0660
     50 H21        -0.0204  -14.5444    3.0950 H         1 <0>         0.0642
     51 H22         2.0837  -13.9487    5.2476 H         1 <0>         0.0666
     52 H23         1.2581  -15.5007    4.9022 H         1 <0>         0.0644
     53 H24         2.6279  -15.9642    3.0708 H         1 <0>         0.0661
     54 H25         3.7624  -14.8634    3.9029 H         1 <0>         0.0681
     55 H26         1.6914    0.0246    1.3492 H         1 <0>         0.0876
     56 H27         0.1356   -0.3680    2.1279 H         1 <0>         0.0855
@<TRIPOS>BOND
     1    1    2 1
     2    1   34 1
     3    1   35 1
     4    1   36 1
     5    2    3 1
     6    2   33 1
     7    2    4 1
     8    4    5 1
     9    4   37 1
    10    4   38 1
    11    5    6 1
    12    5   39 1
    13    5   40 1
    14    6   10 1
    15    6    7 2
    16    7    8 1
    17    7   33 1
    18    8    9 1
    19    9   16 1
    20    9   10 2
    21   10   11 1
    22   11   12 2
    23   11   13 am
    24   13   14 1
    25   13   15 1
    26   15   16 2
    27   15   17 1
    28   17   18 1
    29   17   19 1
    30   17   20 1
    31   19   41 1
    32   19   42 1
    33   19   43 1
    34   20   21 1
    35   21   22 2
    36   21   26 1
    37   22   24 1
    38   23   26 1
    39   24   27 1
    40   24   25 2
    41   25   26 1
    42   27   28 1
    43   27   44 1
    44   27   45 1
    45   28   32 1
    46   28   29 1
    47   28   46 1
    48   29   30 1
    49   29   47 1
    50   29   48 1
    51   30   31 1
    52   30   49 1
    53   30   50 1
    54   31   32 1
    55   31   51 1
    56   31   52 1
    57   32   53 1
    58   32   54 1
    59   33   55 1
    60   33   56 1
@<TRIPOS>MOLECULE
ZINC40119405
   44    46     0     0     0
SMALL
USER_CHARGES

@<TRIPOS>ATOM
      1 C1          0.0090    1.5672    0.0282 C.3       1 <0>        -0.1608
      2 C2          0.0071    0.0374    0.0022 C.3       1 <0>         0.1850
      3 H1          0.5276   -0.3416    0.8817 H         1 <0>         0.1055
      4 C3         -1.4143   -0.4633    0.0051 C.ar      1 <0>        -0.0795
      5 C4         -2.1427   -0.4819   -1.1700 C.ar      1 <0>        -0.0994
      6 C5         -3.4465   -0.9404   -1.1686 C.ar      1 <0>        -0.0919
      7 C6         -4.0233   -1.3815    0.0089 C.ar      1 <0>        -0.0301
      8 C7         -3.2939   -1.3633    1.1855 C.ar      1 <0>        -0.0267
      9 C8         -1.9872   -0.9088    1.1813 C.ar      1 <0>        -0.0858
     10 Cl1        -4.0165   -1.9159    2.6640 Cl        1 <0>        -0.0398
     11 Cl2        -5.6612   -1.9570    0.0114 Cl        1 <0>        -0.0416
     12 N1          0.6874   -0.4313   -1.2077 N.am      1 <0>        -0.7225
     13 C9          2.0288   -0.5615   -1.2189 C.2       1 <0>         0.5237
     14 O1          2.6727   -0.2906   -0.2274 O.2       1 <0>        -0.5311
     15 C10         2.7287   -1.0436   -2.4634 C.3       1 <0>        -0.1470
     16 C11         4.2366   -1.1012   -2.2107 C.3       1 <0>         0.1132
     17 H2          4.4537   -1.7045   -1.3292 H         1 <0>         0.1450
     18 C12         4.9601   -1.6504   -3.4242 C.2       1 <0>         0.5260
     19 O2          4.8245   -2.7468   -3.9235 O.2       1 <0>        -0.4448
     20 N2          5.7849   -0.6661   -3.8330 N.am      1 <0>        -0.5170
     21 C13         5.6840    0.4174   -3.0546 C.2       1 <0>         0.7018
     22 O3          6.3286    1.4336   -3.2245 O.2       1 <0>        -0.5233
     23 N3          4.7889    0.2560   -2.0588 N.am      1 <0>        -0.7082
     24 C14         6.6436   -0.7656   -4.9379 C.ar      1 <0>         0.1186
     25 C15         7.3688    0.3416   -5.3563 C.ar      1 <0>        -0.1038
     26 C16         8.2137    0.2419   -6.4443 C.ar      1 <0>        -0.1339
     27 C17         8.3377   -0.9618   -7.1176 C.ar      1 <0>         0.0950
     28 C18         7.6152   -2.0674   -6.7017 C.ar      1 <0>        -0.1338
     29 C19         6.7736   -1.9728   -5.6106 C.ar      1 <0>        -0.1080
     30 F1          9.1644   -1.0574   -8.1819 F         1 <0>        -0.1355
     31 H3          1.0371    1.9293    0.0261 H         1 <0>         0.0703
     32 H4         -0.5115    1.9462   -0.8513 H         1 <0>         0.0621
     33 H5         -0.4972    1.9159    0.9283 H         1 <0>         0.0726
     34 H6         -1.6927   -0.1376   -2.0894 H         1 <0>         0.1374
     35 H7         -4.0151   -0.9540   -2.0867 H         1 <0>         0.1468
     36 H8         -1.4162   -0.8981    2.0979 H         1 <0>         0.1467
     37 H9          0.1725   -0.6478   -2.0006 H         1 <0>         0.4032
     38 H10         2.3654   -2.0381   -2.7224 H         1 <0>         0.1269
     39 H11         2.5239   -0.3567   -3.2846 H         1 <0>         0.1110
     40 H12         4.5532    0.9047   -1.3773 H         1 <0>         0.4503
     41 H13         7.2720    1.2807   -4.8316 H         1 <0>         0.1716
     42 H14         8.7778    1.1032   -6.7703 H         1 <0>         0.1453
     43 H15         7.7131   -3.0053   -7.2280 H         1 <0>         0.1455
     44 H16         6.2135   -2.8365   -5.2837 H         1 <0>         0.1610
@<TRIPOS>BOND
     1    1    2 1
     2    1   31 1
     3    1   32 1
     4    1   33 1
     5    2    3 1
     6    2    4 1
     7    2   12 1
     8    4    9 ar
     9    4    5 ar
    10    5    6 ar
    11    5   34 1
    12    6    7 ar
    13    6   35 1
    14    7    8 ar
    15    7   11 1
    16    8    9 ar
    17    8   10 1
    18    9   36 1
    19   12   13 am
    20   12   37 1
    21   13   14 2
    22   13   15 1
    23   15   16 1
    24   15   38 1
    25   15   39 1
    26   16   17 1
    27   16   23 1
    28   16   18 1
    29   18   19 2
    30   18   20 am
    31   20   21 am
    32   20   24 1
    33   21   22 2
    34   21   23 am
    35   23   40 1
    36   24   29 ar
    37   24   25 ar
    38   25   26 ar
    39   25   41 1
    40   26   27 ar
    41   26   42 1
    42   27   28 ar
    43   27   30 1
    44   28   29 ar
    45   28   43 1
    46   29   44 1
@<TRIPOS>MOLECULE
ZINC18045940
   48    51     0     0     0
SMALL
USER_CHARGES

@<TRIPOS>ATOM
      1 C1          0.3681    1.4037    1.1822 C.3       1 <0>        -0.1264
      2 C2          0.3411   -0.0937    1.0143 C.ar      1 <0>        -0.0247
      3 C3          0.1596   -0.6453   -0.2401 C.ar      1 <0>        -0.1415
      4 C4          0.1349   -2.0189   -0.3941 C.ar      1 <0>        -0.0129
      5 C5          0.2922   -2.8407    0.7062 C.ar      1 <0>        -0.6495
      6 C6          0.4746   -2.2890    1.9605 C.ar      1 <0>        -0.0130
      7 C7          0.5036   -0.9155    2.1139 C.ar      1 <0>        -0.1415
      8 S1          0.2595   -4.5914    0.5101 S.o2      1 <0>         2.6188
      9 O1         -0.1162   -5.1341    1.7685 O.2       1 <0>        -0.9646
     10 O2         -0.4701   -4.8531   -0.6809 O.2       1 <0>        -0.9643
     11 N1          1.8161   -5.0817    0.2289 N.2       1 <0>        -0.9215
     12 C8          2.0790   -6.3484    0.0456 C.2       1 <0>         0.4180
     13 C9          0.9988   -7.3440    0.0812 C.2       1 <0>        -0.2249
     14 C10         1.2115   -8.6007   -0.3746 C.2       1 <0>         0.1821
     15 C11         2.5330   -8.9853   -0.9134 C.2       1 <0>         0.4078
     16 O3          2.6635  -10.0159   -1.5449 O.2       1 <0>        -0.3914
     17 C12         3.6927   -8.1026   -0.6760 C.ar      1 <0>        -0.1252
     18 C13         3.4698   -6.7964   -0.2067 C.ar      1 <0>        -0.0536
     19 C14         4.5477   -5.9526    0.0173 C.ar      1 <0>        -0.0525
     20 C15         5.8344   -6.4022   -0.2278 C.ar      1 <0>        -0.0948
     21 C16         6.0530   -7.6861   -0.6940 C.ar      1 <0>        -0.0934
     22 C17         4.9920   -8.5407   -0.9125 C.ar      1 <0>        -0.0592
     23 N2          0.1849   -9.5318   -0.3355 N.pl3     1 <0>        -0.6759
     24 C18         0.3495  -10.7245    0.3754 C.ar      1 <0>         0.1841
     25 C19         1.4728  -10.9097    1.1717 C.ar      1 <0>        -0.1571
     26 C20         1.6345  -12.0879    1.8732 C.ar      1 <0>        -0.0990
     27 C21         0.6759  -13.0868    1.7827 C.ar      1 <0>         0.0684
     28 C22        -0.4461  -12.9028    0.9878 C.ar      1 <0>        -0.1007
     29 C23        -0.6128  -11.7229    0.2903 C.ar      1 <0>        -0.1503
     30 O4          0.8365  -14.2471    2.4733 O.3       1 <0>        -0.4971
     31 H1          1.3910    1.7634    1.0715 H         1 <0>         0.0815
     32 H2         -0.2637    1.8658    0.4236 H         1 <0>         0.0744
     33 H3         -0.0037    1.6650    2.1730 H         1 <0>         0.0744
     34 H4          0.0367   -0.0033   -1.0998 H         1 <0>         0.1361
     35 H5         -0.0077   -2.4499   -1.3740 H         1 <0>         0.1412
     36 H6          0.5972   -2.9311    2.8203 H         1 <0>         0.1417
     37 H7          0.6499   -0.4845    3.0933 H         1 <0>         0.1362
     38 H8          0.0301   -7.0718    0.4735 H         1 <0>         0.1546
     39 H9          4.3842   -4.9490    0.3812 H         1 <0>         0.1523
     40 H10         6.6738   -5.7454   -0.0534 H         1 <0>         0.1424
     41 H11         7.0615   -8.0242   -0.8807 H         1 <0>         0.1423
     42 H12         5.1695   -9.5419   -1.2764 H         1 <0>         0.1467
     43 H13        -0.6476   -9.3558   -0.8012 H         1 <0>         0.4225
     44 H14         2.2195  -10.1325    1.2417 H         1 <0>         0.1201
     45 H15         2.5076  -12.2321    2.4923 H         1 <0>         0.1335
     46 H16        -1.1916  -13.6812    0.9178 H         1 <0>         0.1349
     47 H17        -1.4887  -11.5780   -0.3246 H         1 <0>         0.1328
     48 H18         0.4533  -14.2327    3.3610 H         1 <0>         0.3881
@<TRIPOS>BOND
     1    1    2 1
     2    1   31 1
     3    1   32 1
     4    1   33 1
     5    2    7 ar
     6    2    3 ar
     7    3    4 ar
     8    3   34 1
     9    4    5 ar
    10    4   35 1
    11    5    6 ar
    12    5    8 1
    13    6    7 ar
    14    6   36 1
    15    7   37 1
    16    8    9 2
    17    8   10 2
    18    8   11 1
    19   11   12 2
    20   12   18 1
    21   12   13 1
    22   13   14 2
    23   13   38 1
    24   14   15 1
    25   14   23 1
    26   15   16 2
    27   15   17 1
    28   17   22 ar
    29   17   18 ar
    30   18   19 ar
    31   19   20 ar
    32   19   39 1
    33   20   21 ar
    34   20   40 1
    35   21   22 ar
    36   21   41 1
    37   22   42 1
    38   23   24 1
    39   23   43 1
    40   24   29 ar
    41   24   25 ar
    42   25   26 ar
    43   25   44 1
    44   26   27 ar
    45   26   45 1
    46   27   28 ar
    47   27   30 1
    48   28   29 ar
    49   28   46 1
    50   29   47 1
    51   30   48 1
@<TRIPOS>MOLECULE
ZINC35369672
   33    35     0     0     0
SMALL
USER_CHARGES

@<TRIPOS>ATOM
      1 C1         -1.0882   -8.4614   -2.4143 C.3       1 <0>        -0.0779
      2 C2         -0.7659   -7.1575   -1.7310 C.2       1 <0>        -0.1864
      3 C3         -1.6335   -6.2253   -1.2624 C.2       1 <0>        -0.1974
      4 C4         -1.1380   -5.0927   -0.6645 C.2       1 <0>        -0.0524
      5 C5          0.2462   -5.0051   -0.5934 C.2       1 <0>        -0.2899
      6 S1          0.7496   -6.5294   -1.3688 S.3       1 <0>         0.2141
      7 C6          1.0759   -3.9406   -0.0251 C.2       1 <0>         0.4854
      8 O1          0.5602   -2.9078    0.3620 O.2       1 <0>        -0.4375
      9 C7          2.5381   -4.1198    0.0785 C.ar      1 <0>        -0.1499
     10 C8          3.3736   -3.0052    0.1917 C.ar      1 <0>        -0.0456
     11 C9          4.7384   -3.1712    0.2896 C.ar      1 <0>        -0.1142
     12 C10         5.2865   -4.4454    0.2755 C.ar      1 <0>         0.1134
     13 C11         4.4570   -5.5636    0.1617 C.ar      1 <0>         0.0892
     14 C12         3.0884   -5.4048    0.0693 C.ar      1 <0>        -0.0851
     15 N1          5.0305   -6.8436    0.1483 N.am      1 <0>        -0.6590
     16 C13         6.3093   -6.9918    0.5577 C.2       1 <0>         0.4966
     17 O2          6.8359   -8.0840    0.5266 O.2       1 <0>        -0.5014
     18 C14         7.0792   -5.7941    1.0530 C.3       1 <0>         0.0778
     19 H1          8.1419   -5.9411    0.8606 H         1 <0>         0.1565
     20 O3          6.6303   -4.6193    0.3727 O.3       1 <0>        -0.2931
     21 C15         6.8520   -5.6290    2.5570 C.3       1 <0>        -0.1793
     22 H2         -0.1623   -8.9808   -2.6614 H         1 <0>         0.0752
     23 H3         -1.6866   -9.0826   -1.7479 H         1 <0>         0.0852
     24 H4         -1.6490   -8.2639   -3.3279 H         1 <0>         0.0856
     25 H5         -2.6992   -6.3719   -1.3587 H         1 <0>         0.1383
     26 H6         -1.7834   -4.3194   -0.2748 H         1 <0>         0.1501
     27 H7          2.9491   -2.0122    0.2029 H         1 <0>         0.1493
     28 H8          5.3818   -2.3082    0.3770 H         1 <0>         0.1515
     29 H9          2.4464   -6.2692   -0.0139 H         1 <0>         0.1396
     30 H10         4.5168   -7.6104   -0.1500 H         1 <0>         0.4184
     31 H11         7.1964   -6.5230    3.0768 H         1 <0>         0.0861
     32 H12         7.4085   -4.7631    2.9156 H         1 <0>         0.0899
     33 H13         5.7891   -5.4833    2.7500 H         1 <0>         0.0668
@<TRIPOS>BOND
     1    1    2 1
     2    1   22 1
     3    1   23 1
     4    1   24 1
     5    2    6 1
     6    2    3 2
     7    3    4 1
     8    3   25 1
     9    4    5 2
    10    4   26 1
    11    5    6 1
    12    5    7 1
    13    7    8 2
    14    7    9 1
    15    9   14 ar
    16    9   10 ar
    17   10   11 ar
    18   10   27 1
    19   11   12 ar
    20   11   28 1
    21   12   20 1
    22   12   13 ar
    23   13   14 ar
    24   13   15 1
    25   14   29 1
    26   15   16 am
    27   15   30 1
    28   16   17 2
    29   16   18 1
    30   18   19 1
    31   18   20 1
    32   18   21 1
    33   21   31 1
    34   21   32 1
    35   21   33 1
@<TRIPOS>MOLECULE
ZINC00223005
   35    38     0     0     0
SMALL
USER_CHARGES

@<TRIPOS>ATOM
      1 C1         -0.0184    1.5028    0.0103 C.3       1 <0>        -0.1229
      2 C2          0.0021   -0.0041    0.0020 C.ar      1 <0>        -0.0685
      3 C3          0.0057   -0.6888   -1.1991 C.ar      1 <0>        -0.1163
      4 C4          0.0245   -2.0707   -1.2067 C.ar      1 <0>        -0.1110
      5 C5          0.0400   -2.7685   -0.0132 C.ar      1 <0>        -0.1220
      6 C6          0.0373   -2.0840    1.1875 C.ar      1 <0>        -0.1034
      7 C7          0.0229   -0.7015    1.1951 C.ar      1 <0>        -0.1179
      8 C8          0.0252    0.0449    2.5043 C.3       1 <0>         0.2759
      9 H1         -0.6537    0.8924    2.4097 H         1 <0>         0.0823
     10 C9          1.4248    0.5849    2.7373 C.2       1 <0>        -0.2795
     11 C10         2.0571    0.2029    3.8662 C.2       1 <0>         0.2498
     12 N1          1.4767   -0.6308    4.7666 N.2       1 <0>        -0.5774
     13 C11         0.2744   -1.1389    4.6387 C.2       1 <0>         0.5786
     14 N2         -0.5029   -0.8490    3.5397 N.pl3     1 <0>        -0.4603
     15 N3         -1.7039   -1.5422    3.7098 N.pl3     1 <0>        -0.4897
     16 C12        -1.5983   -2.2139    4.8896 C.2       1 <0>         0.3812
     17 N4         -0.4444   -1.9705    5.4247 N.2       1 <0>        -0.5192
     18 C13         3.4216    0.7063    4.1300 C.2       1 <0>        -0.1075
     19 C14         4.2452    0.4502    5.1936 C.2       1 <0>        -0.1194
     20 C15         5.4901    1.0388    5.2239 C.2       1 <0>        -0.1585
     21 C16         5.8624    1.8523    4.2023 C.2       1 <0>        -0.1720
     22 S1          4.4279    1.8003    3.1409 S.3       1 <0>         0.0585
     23 H2          1.0042    1.8801    0.0026 H         1 <0>         0.0780
     24 H3         -0.5455    1.8639   -0.8728 H         1 <0>         0.0707
     25 H4         -0.5286    1.8543    0.9071 H         1 <0>         0.0677
     26 H5         -0.0064   -0.1437   -2.1314 H         1 <0>         0.1264
     27 H6          0.0266   -2.6056   -2.1449 H         1 <0>         0.1248
     28 H7          0.0540   -3.8484   -0.0191 H         1 <0>         0.1225
     29 H8          0.0491   -2.6290    2.1199 H         1 <0>         0.1131
     30 H9          1.8959    1.2484    2.0272 H         1 <0>         0.1501
     31 H10        -2.4634   -1.5445    3.1064 H         1 <0>         0.4492
     32 H11        -2.3608   -2.8489    5.3159 H         1 <0>         0.2482
     33 H12         3.9246   -0.2006    5.9937 H         1 <0>         0.1436
     34 H13         6.1616    0.8560    6.0499 H         1 <0>         0.1368
     35 H14         6.7894    2.3893    4.0652 H         1 <0>         0.1881
@<TRIPOS>BOND
     1    1    2 1
     2    1   23 1
     3    1   24 1
     4    1   25 1
     5    2    7 ar
     6    2    3 ar
     7    3    4 ar
     8    3   26 1
     9    4    5 ar
    10    4   27 1
    11    5    6 ar
    12    5   28 1
    13    6    7 ar
    14    6   29 1
    15    7    8 1
    16    8    9 1
    17    8   14 1
    18    8   10 1
    19   10   11 2
    20   10   30 1
    21   11   12 1
    22   11   18 1
    23   12   13 2
    24   13   17 1
    25   13   14 1
    26   14   15 1
    27   15   16 1
    28   15   31 1
    29   16   17 2
    30   16   32 1
    31   18   22 1
    32   18   19 2
    33   19   20 1
    34   19   33 1
    35   20   21 2
    36   20   34 1
    37   21   22 1
    38   21   35 1
@<TRIPOS>MOLECULE
ZINC49882454
   41    43     0     0     0
SMALL
USER_CHARGES

@<TRIPOS>ATOM
      1 C1         -0.0184    1.5028    0.0103 C.3       1 <0>        -0.1187
      2 C2          0.0021   -0.0041    0.0020 C.ar      1 <0>        -0.0544
      3 C3          0.0057   -0.6864   -1.2015 C.ar      1 <0>        -0.1269
      4 C4          0.0239   -2.0660   -1.2157 C.ar      1 <0>        -0.0323
      5 C5          0.0392   -2.7727   -0.0132 C.ar      1 <0>        -0.0390
      6 C6          0.0359   -2.0791    1.1969 C.ar      1 <0>        -0.0325
      7 C7          0.0229   -0.6993    1.1979 C.ar      1 <0>        -0.1271
      8 C8          0.0519   -2.8350    2.5005 C.3       1 <0>        -0.1177
      9 C9          0.0583   -4.2536   -0.0214 C.2       1 <0>         0.0947
     10 C10        -1.0530   -5.0941   -0.0258 C.2       1 <0>         0.0501
     11 N1         -0.5525   -6.3780   -0.0334 N.pl3     1 <0>        -0.3706
     12 C11         0.7935   -6.2904   -0.0325 C.cat     1 <0>         0.2615
     13 N2          1.1486   -5.0349   -0.0317 N.pl3     1 <0>        -0.4705
     14 C12         1.7150   -7.4894   -0.0384 C.3       1 <0>        -0.0588
     15 C13         0.8985   -8.7255    0.3578 C.3       1 <0>        -0.1294
     16 C14        -0.3858   -8.7698   -0.4756 C.3       1 <0>        -0.1464
     17 C15        -1.3136   -7.6297   -0.0411 C.3       1 <0>         0.1009
     18 C16        -2.4156   -4.7085   -0.0230 C.2       1 <0>         0.5320
     19 O1         -3.2941   -5.5627   -0.0272 O.co2     1 <0>        -0.6608
     20 O2         -2.7162   -3.5206   -0.0165 O.co2     1 <0>        -0.6213
     21 C17         0.0268   -2.8076   -2.5275 C.3       1 <0>        -0.1178
     22 H1          1.0042    1.8801    0.0026 H         1 <0>         0.0730
     23 H2         -0.5455    1.8639   -0.8728 H         1 <0>         0.0700
     24 H3         -0.5286    1.8543    0.9071 H         1 <0>         0.0699
     25 H4         -0.0062   -0.1380   -2.1319 H         1 <0>         0.1278
     26 H5          0.0248   -0.1611    2.1342 H         1 <0>         0.1278
     27 H6          1.0833   -3.0039    2.8100 H         1 <0>         0.0678
     28 H7         -0.4659   -2.2540    3.2638 H         1 <0>         0.0771
     29 H8         -0.4502   -3.7937    2.3708 H         1 <0>         0.0618
     30 H9          2.1310   -7.6282   -1.0363 H         1 <0>         0.1166
     31 H10         2.5216   -7.3365    0.6786 H         1 <0>         0.1150
     32 H11         1.4853   -9.6248    0.1705 H         1 <0>         0.1009
     33 H12         0.6440   -8.6698    1.4162 H         1 <0>         0.0823
     34 H13        -0.1384   -8.6560   -1.5310 H         1 <0>         0.0833
     35 H14        -0.8870   -9.7253   -0.3205 H         1 <0>         0.1092
     36 H15        -1.6971   -7.8301    0.9594 H         1 <0>         0.1133
     37 H16        -2.1436   -7.5482   -0.7429 H         1 <0>         0.1323
     38 H17         1.0550   -2.9728   -2.8493 H         1 <0>         0.0678
     39 H18        -0.4737   -3.7679   -2.4031 H         1 <0>         0.0618
     40 H19        -0.4989   -2.2186   -3.2791 H         1 <0>         0.0771
     41 H20         2.0641   -4.7144   -0.0355 H         1 <0>         0.4499
@<TRIPOS>BOND
     1    1    2 1
     2    1   22 1
     3    1   23 1
     4    1   24 1
     5    2    7 ar
     6    2    3 ar
     7    3    4 ar
     8    3   25 1
     9    4    5 ar
    10    4   21 1
    11    5    6 ar
    12    5    9 1
    13    6    7 ar
    14    6    8 1
    15    7   26 1
    16    8   27 1
    17    8   28 1
    18    8   29 1
    19    9   13 1
    20    9   10 2
    21   10   11 1
    22   10   18 1
    23   11   17 1
    24   11   12 1
    25   12   13 2
    26   12   14 1
    27   13   41 1
    28   14   15 1
    29   14   30 1
    30   14   31 1
    31   15   16 1
    32   15   32 1
    33   15   33 1
    34   16   17 1
    35   16   34 1
    36   16   35 1
    37   17   36 1
    38   17   37 1
    39   18   19 2
    40   18   20 1
    41   21   38 1
    42   21   39 1
    43   21   40 1
@<TRIPOS>MOLECULE
ZINC35222032
   43    45     0     0     0
SMALL
USER_CHARGES

@<TRIPOS>ATOM
      1 C1          1.6571    0.9596   -0.5957 C.3       1 <0>        -0.1645
      2 C2          0.9247   -0.3494   -0.2942 C.3       1 <0>         0.1642
      3 H1          1.4949   -1.1877   -0.6943 H         1 <0>         0.0788
      4 C3         -0.4653   -0.3200   -0.9376 C.3       1 <0>        -0.1320
      5 C4         -1.2439   -1.5689   -0.5177 C.3       1 <0>        -0.1211
      6 C5         -1.4156   -1.5777    1.0031 C.3       1 <0>        -0.1354
      7 C6         -0.0364   -1.6213    1.6684 C.3       1 <0>         0.1215
      8 N1          0.7731   -0.5056    1.1589 N.pl3     1 <0>        -0.5964
      9 C7          1.3794    0.3850    2.0324 C.2       1 <0>         0.5262
     10 N2          1.4948    1.6682    1.8488 N.2       1 <0>        -0.3123
     11 N3          2.1655    2.2064    2.9558 N.pl3     1 <0>        -0.4703
     12 C8          2.4388    1.1869    3.7961 C.2       1 <0>         0.4815
     13 N4          1.9531    0.0596    3.2393 N.pl3     1 <0>        -0.4996
     14 C9          2.0267   -1.2837    3.8192 C.3       1 <0>         0.1474
     15 C10         3.4884   -1.6395    4.0982 C.3       1 <0>        -0.1490
     16 C11         3.5652   -3.0424    4.7039 C.3       1 <0>        -0.1094
     17 C12         2.7732   -3.0770    6.0125 C.3       1 <0>        -0.1241
     18 C13         1.3115   -2.7213    5.7335 C.3       1 <0>        -0.1100
     19 C14         1.2347   -1.3184    5.1278 C.3       1 <0>        -0.1451
     20 S1          3.2491    1.3048    5.2996 S.2       1 <0>        -0.5794
     21 H2          2.6438    0.9388   -0.1329 H         1 <0>         0.0556
     22 H3          1.7641    1.0761   -1.6742 H         1 <0>         0.0733
     23 H4          1.0854    1.7966   -0.1948 H         1 <0>         0.0876
     24 H5         -1.0003    0.5704   -0.6074 H         1 <0>         0.0720
     25 H6         -0.3636   -0.3025   -2.0227 H         1 <0>         0.0801
     26 H7         -2.2243   -1.5627   -0.9938 H         1 <0>         0.0706
     27 H8         -0.6960   -2.4592   -0.8264 H         1 <0>         0.0667
     28 H9         -1.9417   -0.6754    1.3150 H         1 <0>         0.0699
     29 H10        -1.9903   -2.4552    1.2992 H         1 <0>         0.0816
     30 H11        -0.1487   -1.5279    2.7486 H         1 <0>         0.0807
     31 H12         0.4546   -2.5648    1.4302 H         1 <0>         0.0747
     32 H13         1.6043   -2.0051    3.1197 H         1 <0>         0.1047
     33 H14         4.0526   -1.6148    3.1659 H         1 <0>         0.0607
     34 H15         3.9107   -0.9181    4.7977 H         1 <0>         0.1158
     35 H16         3.1428   -3.7638    4.0043 H         1 <0>         0.0588
     36 H17         4.6065   -3.2958    4.9026 H         1 <0>         0.0718
     37 H18         2.8279   -4.0765    6.4440 H         1 <0>         0.0658
     38 H19         3.1955   -2.3556    6.7120 H         1 <0>         0.0722
     39 H20         0.8891   -3.4426    5.0340 H         1 <0>         0.0604
     40 H21         0.7472   -2.7459    6.6658 H         1 <0>         0.0723
     41 H22         1.6570   -0.5970    5.8274 H         1 <0>         0.1063
     42 H23         0.1933   -1.0649    4.9291 H         1 <0>         0.0606
     43 H24         2.3915    3.1397    3.0924 H         1 <0>         0.4667
@<TRIPOS>BOND
     1    1    2 1
     2    1   21 1
     3    1   22 1
     4    1   23 1
     5    2    3 1
     6    2    8 1
     7    2    4 1
     8    4    5 1
     9    4   24 1
    10    4   25 1
    11    5    6 1
    12    5   26 1
    13    5   27 1
    14    6    7 1
    15    6   28 1
    16    6   29 1
    17    7    8 1
    18    7   30 1
    19    7   31 1
    20    8    9 1
    21    9   13 1
    22    9   10 2
    23   10   11 1
    24   11   12 1
    25   11   43 1
    26   12   20 2
    27   12   13 1
    28   13   14 1
    29   14   19 1
    30   14   15 1
    31   14   32 1
    32   15   16 1
    33   15   33 1
    34   15   34 1
    35   16   17 1
    36   16   35 1
    37   16   36 1
    38   17   18 1
    39   17   37 1
    40   17   38 1
    41   18   19 1
    42   18   39 1
    43   18   40 1
    44   19   41 1
    45   19   42 1
@<TRIPOS>MOLECULE
ZINC13126632
   38    40     0     0     0
SMALL
USER_CHARGES

@<TRIPOS>ATOM
      1 C1         -0.0184    1.5028    0.0103 C.3       1 <0>        -0.0713
      2 C2          0.0021   -0.0041    0.0020 C.2       1 <0>         0.0769
      3 C3          0.0081   -0.8255   -1.1451 C.2       1 <0>        -0.0770
      4 C4          0.0286   -2.1332   -0.7127 C.2       1 <0>         0.0729
      5 N1          0.0349   -2.1114    0.6370 N.pl3     1 <0>        -0.3657
      6 N2          0.0230   -0.7759    1.0555 N.2       1 <0>        -0.2889
      7 C5          0.0557   -3.2850    1.5137 C.3       1 <0>         0.1017
      8 C6          0.0417   -3.3616   -1.5855 C.3       1 <0>        -0.0888
      9 N3         -0.0047   -0.4007   -2.4490 N.2       1 <0>        -0.4127
     10 C7          1.1188   -0.1829   -3.0750 C.2       1 <0>         0.1981
     11 C8          1.1051    0.2714   -4.4693 C.ar      1 <0>        -0.1068
     12 C9          2.3554    0.5147   -5.1886 C.ar      1 <0>        -0.0101
     13 C10         3.5992    0.3239   -4.5759 C.ar      1 <0>        -0.1173
     14 C11         4.7416    0.5615   -5.2814 C.ar      1 <0>        -0.1012
     15 C12         4.6880    0.9924   -6.6045 C.ar      1 <0>        -0.1232
     16 C13         3.4945    1.1879   -7.2305 C.ar      1 <0>        -0.0942
     17 C14         2.2972    0.9522   -6.5338 C.ar      1 <0>        -0.0683
     18 C15         1.0462    1.1428   -7.1479 C.ar      1 <0>        -0.0662
     19 C16        -0.1064    0.9128   -6.4659 C.ar      1 <0>        -0.1523
     20 C17        -0.1017    0.4756   -5.1416 C.ar      1 <0>         0.1727
     21 O1         -1.2767    0.2529   -4.5009 O.3       1 <0>        -0.4709
     22 H1          1.0042    1.8801    0.0026 H         1 <0>         0.0749
     23 H2         -0.5455    1.8639   -0.8728 H         1 <0>         0.0775
     24 H3         -0.5286    1.8543    0.9071 H         1 <0>         0.0763
     25 H4          1.0884   -3.5615    1.7261 H         1 <0>         0.0766
     26 H5         -0.4569   -3.0507    2.4466 H         1 <0>         0.0912
     27 H6         -0.4489   -4.1159    1.0206 H         1 <0>         0.0879
     28 H7          1.0724   -3.6433   -1.8009 H         1 <0>         0.0779
     29 H8         -0.4581   -4.1804   -1.0679 H         1 <0>         0.0729
     30 H9         -0.4797   -3.1497   -2.5189 H         1 <0>         0.0879
     31 H10         2.0590   -0.3370   -2.5664 H         1 <0>         0.1005
     32 H11         3.6539   -0.0094   -3.5501 H         1 <0>         0.1271
     33 H12         5.7008    0.4139   -4.8076 H         1 <0>         0.1259
     34 H13         5.6068    1.1746   -7.1421 H         1 <0>         0.1255
     35 H14         3.4683    1.5224   -8.2571 H         1 <0>         0.1303
     36 H15         1.0012    1.4765   -8.1741 H         1 <0>         0.1334
     37 H16        -1.0517    1.0687   -6.9643 H         1 <0>         0.1335
     38 H17        -1.6274    1.0282   -4.0417 H         1 <0>         0.3933
@<TRIPOS>BOND
     1    1    2 1
     2    1   22 1
     3    1   23 1
     4    1   24 1
     5    2    6 2
     6    2    3 1
     7    3    4 2
     8    3    9 1
     9    4    5 1
    10    4    8 1
    11    5    6 1
    12    5    7 1
    13    7   25 1
    14    7   26 1
    15    7   27 1
    16    8   28 1
    17    8   29 1
    18    8   30 1
    19    9   10 2
    20   10   11 1
    21   10   31 1
    22   11   20 ar
    23   11   12 ar
    24   12   17 ar
    25   12   13 ar
    26   13   14 ar
    27   13   32 1
    28   14   15 ar
    29   14   33 1
    30   15   16 ar
    31   15   34 1
    32   16   17 ar
    33   16   35 1
    34   17   18 ar
    35   18   19 ar
    36   18   36 1
    37   19   20 ar
    38   19   37 1
    39   20   21 1
    40   21   38 1
@<TRIPOS>MOLECULE
ZINC09173321
   42    44     0     0     0
SMALL
USER_CHARGES
N-(4,4-dimethyl-5-oxo-2-oxa-6-azabicyclo[5.4.0]undeca-8,10,12-trien-9-yl)benzenesulfonamide
@<TRIPOS>ATOM
      1 C1          2.3350    0.3620    1.4610 C.3       1 <0>        -0.1722
      2 C2          2.1033    1.6284    0.6344 C.3       1 <0>        -0.1204
      3 C3          0.8723    2.3610    1.1642 C.3       1 <0>         0.0768
      4 O1         -0.3190    1.7037    0.7401 O.3       1 <0>        -0.3207
      5 C4         -0.3430    0.3463    0.8246 C.ar      1 <0>         0.0946
      6 C5         -1.0589   -0.2802    1.8306 C.ar      1 <0>        -0.1049
      7 C6         -1.0728   -1.6601    1.9133 C.ar      1 <0>        -0.0936
      8 C7         -0.3700   -2.4222    0.9892 C.ar      1 <0>         0.1370
      9 C8          0.3475   -1.7986   -0.0230 C.ar      1 <0>        -0.1177
     10 C9          0.3594   -0.4163   -0.1067 C.ar      1 <0>         0.1276
     11 N1          1.0722    0.2301   -1.1257 N.am      1 <0>        -0.6702
     12 C10         1.8993    1.2519   -0.8103 C.2       1 <0>         0.5369
     13 O2          2.4749    1.8625   -1.6861 O.2       1 <0>        -0.5129
     14 N2         -0.3845   -3.8186    1.0783 N.pl3     1 <0>        -1.0616
     15 S1          0.5006   -4.5826    2.2511 S.o2      1 <0>         2.6877
     16 O3          0.2143   -3.9176    3.4738 O.2       1 <0>        -0.9430
     17 O4          0.2904   -5.9769    2.0748 O.2       1 <0>        -0.9487
     18 C11         2.2007   -4.2813    1.9000 C.ar      1 <0>        -0.6773
     19 C12         2.9180   -5.1803    1.1331 C.ar      1 <0>        -0.0187
     20 C13         4.2505   -4.9412    0.8532 C.ar      1 <0>        -0.1393
     21 C14         4.8685   -3.8086    1.3494 C.ar      1 <0>        -0.0595
     22 C15         4.1527   -2.9125    2.1211 C.ar      1 <0>        -0.1393
     23 C16         2.8188   -3.1487    2.3962 C.ar      1 <0>        -0.0164
     24 C17         3.3246    2.5423    0.7531 C.3       1 <0>        -0.1294
     25 H1          3.0088   -0.3049    0.9231 H         1 <0>         0.0675
     26 H2          2.7782    0.6301    2.4201 H         1 <0>         0.0762
     27 H3          1.3829   -0.1415    1.6289 H         1 <0>         0.0787
     28 H4          0.8725    3.3843    0.7887 H         1 <0>         0.1122
     29 H5          0.9052    2.3800    2.2535 H         1 <0>         0.0787
     30 H6         -1.6066    0.3093    2.5509 H         1 <0>         0.1487
     31 H7         -1.6322   -2.1468    2.6985 H         1 <0>         0.1485
     32 H8          0.8942   -2.3897   -0.7428 H         1 <0>         0.1414
     33 H9          0.9733   -0.0530   -2.0482 H         1 <0>         0.4147
     34 H10        -0.9129   -4.3390    0.4532 H         1 <0>         0.4293
     35 H11         2.4363   -6.0674    0.7491 H         1 <0>         0.1415
     36 H12         4.8096   -5.6411    0.2501 H         1 <0>         0.1345
     37 H13         5.9105   -3.6237    1.1339 H         1 <0>         0.1321
     38 H14         4.6356   -2.0276    2.5088 H         1 <0>         0.1332
     39 H15         2.2595   -2.4486    2.9991 H         1 <0>         0.1381
     40 H16         3.1632    3.4432    0.1612 H         1 <0>         0.0715
     41 H17         3.4737    2.8157    1.7976 H         1 <0>         0.0708
     42 H18         4.2071    2.0190    0.3849 H         1 <0>         0.0674
@<TRIPOS>BOND
     1    1    2 1
     2    1   25 1
     3    1   26 1
     4    1   27 1
     5    2   12 1
     6    2    3 1
     7    2   24 1
     8    3    4 1
     9    3   28 1
    10    3   29 1
    11    4    5 1
    12    5   10 ar
    13    5    6 ar
    14    6    7 ar
    15    6   30 1
    16    7    8 ar
    17    7   31 1
    18    8    9 ar
    19    8   14 1
    20    9   10 ar
    21    9   32 1
    22   10   11 1
    23   11   12 am
    24   11   33 1
    25   12   13 2
    26   14   15 1
    27   14   34 1
    28   15   16 2
    29   15   17 2
    30   15   18 1
    31   18   23 ar
    32   18   19 ar
    33   19   20 ar
    34   19   35 1
    35   20   21 ar
    36   20   36 1
    37   21   22 ar
    38   21   37 1
    39   22   23 ar
    40   22   38 1
    41   23   39 1
    42   24   40 1
    43   24   41 1
    44   24   42 1
@<TRIPOS>MOLECULE
ZINC23139390
   36    39     0     0     0
SMALL
USER_CHARGES
8-methyl-2-[(4-oxo-3H-thieno[2,3-d]pyrimidin-2-yl)sulfanylmethyl]-3H-quinazolin-4-one
@<TRIPOS>ATOM
      1 C1         -4.6228    5.3840    0.0546 C.3       1 <0>        -0.1053
      2 C2         -5.7908    4.4316    0.0539 C.ar      1 <0>        -0.0708
      3 C3         -7.0794    4.9171    0.0627 C.ar      1 <0>        -0.0766
      4 C4         -8.1654    4.0522    0.0626 C.ar      1 <0>        -0.1276
      5 C5         -7.9745    2.6874    0.0538 C.ar      1 <0>        -0.0487
      6 C6         -6.6790    2.1758    0.0449 C.ar      1 <0>        -0.1912
      7 C7         -5.5715    3.0529    0.0449 C.ar      1 <0>         0.1509
      8 N1         -4.3192    2.5313    0.0414 N.2       1 <0>        -0.5116
      9 C8         -4.1160    1.2490    0.0282 C.2       1 <0>         0.4090
     10 N2         -5.1196    0.3333    0.0279 N.am      1 <0>        -0.6596
     11 H1         -4.8838   -0.7411    0.0213 H         1 <0>         0.4500
     12 C9         -6.4138    0.7294    0.0357 C.2       1 <0>         0.5560
     13 O1         -7.3228   -0.0802    0.0356 O.2       1 <0>        -0.5052
     14 C10        -2.6938    0.7507    0.0188 C.3       1 <0>        -0.0865
     15 S1         -1.5601    2.1617    0.0211 S.3       1 <0>         0.1251
     16 C11        -0.0158    1.3134    0.0093 C.2       1 <0>         0.3601
     17 N3          1.1459    2.0298    0.0020 N.am      1 <0>        -0.6324
     18 H2          1.1141    3.1293    0.0081 H         1 <0>         0.4536
     19 C12         2.3438    1.4171   -0.0126 C.2       1 <0>         0.5643
     20 O2          3.3722    2.0717   -0.0189 O.2       1 <0>        -0.5217
     21 C13         2.3950   -0.0125   -0.0208 C.2       1 <0>        -0.2625
     22 C14         3.5519   -0.8912   -0.0361 C.2       1 <0>        -0.0849
     23 C15         3.3656   -2.2194   -0.0411 C.2       1 <0>        -0.1878
     24 S2          1.5910   -2.3888   -0.0254 S.3       1 <0>         0.1369
     25 C16         1.1503   -0.6699   -0.0125 C.2       1 <0>         0.1213
     26 N4          0.0021   -0.0041    0.0020 N.2       1 <0>        -0.5093
     27 H3         -4.9940    6.4194    0.0622 H         1 <0>         0.0659
     28 H4         -4.0147    5.2191   -0.8471 H         1 <0>         0.0758
     29 H5         -4.0072    5.2086    0.9492 H         1 <0>         0.0759
     30 H6         -7.2472    5.9840    0.0700 H         1 <0>         0.1364
     31 H7         -9.1685    4.4524    0.0692 H         1 <0>         0.1360
     32 H8         -8.8232    2.0195    0.0534 H         1 <0>         0.1391
     33 H9         -2.5150    0.1352    0.9128 H         1 <0>         0.1410
     34 H10        -2.5235    0.1449   -0.8834 H         1 <0>         0.1409
     35 H11         4.5503   -0.4797   -0.0430 H         1 <0>         0.1450
     36 H12         4.1122   -2.9997   -0.0517 H         1 <0>         0.1985
@<TRIPOS>BOND
     1    1    2 1
     2    1   27 1
     3    1   28 1
     4    1   29 1
     5    2    7 ar
     6    2    3 ar
     7    3    4 ar
     8    3   30 1
     9    4    5 ar
    10    4   31 1
    11    5    6 ar
    12    5   32 1
    13    6   12 1
    14    6    7 ar
    15    7    8 1
    16    8    9 2
    17    9   10 1
    18    9   14 1
    19   10   11 1
    20   10   12 am
    21   12   13 2
    22   14   15 1
    23   14   33 1
    24   14   34 1
    25   15   16 1
    26   16   26 2
    27   16   17 1
    28   17   18 1
    29   17   19 am
    30   19   20 2
    31   19   21 1
    32   21   25 2
    33   21   22 1
    34   22   23 2
    35   22   35 1
    36   23   24 1
    37   23   36 1
    38   24   25 1
    39   25   26 1
@<TRIPOS>MOLECULE
ZINC37844203
   29    30     0     0     0
SMALL
USER_CHARGES

@<TRIPOS>ATOM
      1 C1         -0.0398    0.9773   -0.6545 C.ar      1 <0>        -0.0649
      2 C2          1.1125    1.7385   -0.6609 C.ar      1 <0>        -0.1201
      3 C3          2.2578    1.2689   -0.0320 C.ar      1 <0>         0.2211
      4 C4          2.2436    0.0339    0.6032 C.ar      1 <0>        -0.0716
      5 C5          1.0909   -0.7259    0.6088 C.ar      1 <0>        -0.0631
      6 C6         -0.0532   -0.2560   -0.0199 C.ar      1 <0>         0.0933
      7 O1         -1.1882   -1.0046   -0.0136 O.3       1 <0>        -0.4841
      8 N1          3.4643   -0.4678    1.2736 N.pl3     1 <0>         0.0459
      9 O2          3.4817   -1.5819    1.7428 O.2       1 <0>        -0.1341
     10 O3          4.4438    0.2365    1.3519 O.3       1 <0>        -0.1866
     11 N2          3.4268    2.0400   -0.0385 N.am      1 <0>        -0.6614
     12 C7          3.3502    3.3788   -0.1732 C.2       1 <0>         0.5579
     13 O4          2.2652    3.9275   -0.1865 O.2       1 <0>        -0.4776
     14 C8          4.5838    4.1793   -0.3047 C.ar      1 <0>        -0.1334
     15 C9          5.8316    3.5511   -0.2955 C.ar      1 <0>        -0.0428
     16 C10         6.9797    4.3030   -0.4185 C.ar      1 <0>        -0.1450
     17 C11         6.8989    5.6813   -0.5513 C.ar      1 <0>         0.1445
     18 C12         5.6644    6.3108   -0.5612 C.ar      1 <0>        -0.1367
     19 C13         4.5075    5.5677   -0.4445 C.ar      1 <0>        -0.0114
     20 Br1         2.8231    6.4268   -0.4660 Br        1 <0>         0.0120
     21 F1          8.0283    6.4131   -0.6711 F         1 <0>        -0.1217
     22 H1         -0.9321    1.3444   -1.1398 H         1 <0>         0.1552
     23 H2          1.1229    2.6986   -1.1554 H         1 <0>         0.1752
     24 H3          1.0798   -1.6863    1.1027 H         1 <0>         0.1647
     25 H4         -1.2638   -1.6107   -0.7633 H         1 <0>         0.3989
     26 H5          4.2916    1.6106    0.0540 H         1 <0>         0.4245
     27 H6          5.8962    2.4781   -0.1918 H         1 <0>         0.1491
     28 H7          7.9447    3.8180   -0.4111 H         1 <0>         0.1554
     29 H8          5.6074    7.3843   -0.6645 H         1 <0>         0.1569
@<TRIPOS>BOND
     1    1    6 ar
     2    1    2 ar
     3    1   22 1
     4    2    3 ar
     5    2   23 1
     6    3    4 ar
     7    3   11 1
     8    4    5 ar
     9    4    8 1
    10    5    6 ar
    11    5   24 1
    12    6    7 1
    13    7   25 1
    14    8    9 2
    15    8   10 1
    16   11   12 am
    17   11   26 1
    18   12   13 2
    19   12   14 1
    20   14   19 ar
    21   14   15 ar
    22   15   16 ar
    23   15   27 1
    24   16   17 ar
    25   16   28 1
    26   17   18 ar
    27   17   21 1
    28   18   19 ar
    29   18   29 1
    30   19   20 1
@<TRIPOS>MOLECULE
ZINC48105106
   45    47     0     0     0
SMALL
USER_CHARGES

@<TRIPOS>ATOM
      1 C1          2.3230   -4.9126   -0.8796 C.3       1 <0>        -0.0761
      2 C2          1.3918   -3.7829   -0.5223 C.2       1 <0>         0.1102
      3 C3          0.7517   -2.8661   -1.4590 C.ar      1 <0>        -0.2029
      4 C4          0.7705   -2.7240   -2.8517 C.ar      1 <0>         0.0063
      5 C5          0.0155   -1.7065   -3.4121 C.ar      1 <0>         0.0656
      6 C6         -0.7277   -0.8696   -2.5810 C.ar      1 <0>         0.1555
      7 N1         -0.7289   -1.0236   -1.2756 N.ar      1 <0>        -0.4839
      8 C7         -0.0244   -1.9810   -0.6851 C.ar      1 <0>         0.3012
      9 N2          0.1477   -2.3529    0.6223 N.pl3     1 <0>        -0.3954
     10 N3          1.0091   -3.4529    0.6781 N.2       1 <0>        -0.2370
     11 C8         -0.4759   -1.7039    1.7783 C.3       1 <0>         0.1127
     12 N4         -0.0007   -1.5199   -4.8016 N.am      1 <0>        -0.6771
     13 C9          0.1114   -2.5808   -5.6253 C.2       1 <0>         0.7058
     14 O1          0.1293   -3.7070   -5.1672 O.2       1 <0>        -0.5707
     15 N5          0.2036   -2.3934   -6.9568 N.am      1 <0>        -0.7365
     16 C10         0.3253   -3.5465   -7.8521 C.3       1 <0>         0.1703
     17 H1          0.9166   -4.3228   -7.3664 H         1 <0>         0.0962
     18 C11        -1.0675   -4.0922   -8.1732 C.3       1 <0>        -0.1351
     19 C12        -0.9403   -5.2965   -9.1083 C.3       1 <0>        -0.1122
     20 C13        -0.2502   -4.8655  -10.4040 C.3       1 <0>        -0.1226
     21 C14         1.1426   -4.3198  -10.0829 C.3       1 <0>        -0.1270
     22 H2          1.7339   -5.0961   -9.5972 H         1 <0>         0.1196
     23 C15         1.0154   -3.1155   -9.1478 C.3       1 <0>        -0.1287
     24 C16         1.8327   -3.8888  -11.3786 C.3       1 <0>         0.4546
     25 F1          1.0739   -2.8925  -12.0020 F         1 <0>        -0.1816
     26 F2          3.1063   -3.3899  -11.0850 F         1 <0>        -0.1828
     27 F3          1.9490   -4.9900  -12.2336 F         1 <0>        -0.1810
     28 H3          1.7446   -5.8213   -1.0463 H         1 <0>         0.0865
     29 H4          2.8706   -4.6588   -1.7873 H         1 <0>         0.0831
     30 H5          3.0273   -5.0748   -0.0637 H         1 <0>         0.0821
     31 H6          1.3564   -3.3874   -3.4706 H         1 <0>         0.1531
     32 H7         -1.3154   -0.0768   -3.0195 H         1 <0>         0.1679
     33 H8         -1.4334   -2.1800    1.9895 H         1 <0>         0.0707
     34 H9          0.1773   -1.8008    2.6455 H         1 <0>         0.0882
     35 H10        -0.6355   -0.6480    1.5598 H         1 <0>         0.0900
     36 H11        -0.0924   -0.6274   -5.1701 H         1 <0>         0.4098
     37 H12         0.1892   -1.4950   -7.3222 H         1 <0>         0.3994
     38 H13        -1.5591   -4.3993   -7.2502 H         1 <0>         0.0756
     39 H14        -1.6588   -3.3159   -8.6590 H         1 <0>         0.0680
     40 H15        -0.3491   -6.0728   -8.6226 H         1 <0>         0.0713
     41 H16        -1.9326   -5.6853   -9.3371 H         1 <0>         0.0770
     42 H17        -0.1596   -5.7235  -11.0702 H         1 <0>         0.0810
     43 H18        -0.8415   -4.0892  -10.8898 H         1 <0>         0.0790
     44 H19         0.4242   -2.3392   -9.6335 H         1 <0>         0.0845
     45 H20         2.0077   -2.7268   -8.9191 H         1 <0>         0.0855
@<TRIPOS>BOND
     1    1    2 1
     2    1   28 1
     3    1   29 1
     4    1   30 1
     5    2   10 2
     6    2    3 1
     7    3    8 ar
     8    3    4 ar
     9    4    5 ar
    10    4   31 1
    11    5    6 ar
    12    5   12 1
    13    6    7 ar
    14    6   32 1
    15    7    8 ar
    16    8    9 1
    17    9   10 1
    18    9   11 1
    19   11   33 1
    20   11   34 1
    21   11   35 1
    22   12   13 am
    23   12   36 1
    24   13   14 2
    25   13   15 am
    26   15   16 1
    27   15   37 1
    28   16   17 1
    29   16   23 1
    30   16   18 1
    31   18   19 1
    32   18   38 1
    33   18   39 1
    34   19   20 1
    35   19   40 1
    36   19   41 1
    37   20   21 1
    38   20   42 1
    39   20   43 1
    40   21   22 1
    41   21   23 1
    42   21   24 1
    43   23   44 1
    44   23   45 1
    45   24   25 1
    46   24   26 1
    47   24   27 1
@<TRIPOS>MOLECULE
ZINC66929695
   45    47     0     0     0
SMALL
USER_CHARGES

@<TRIPOS>ATOM
      1 C1         -0.5480    1.4409    0.0870 C.3       1 <0>        -0.1237
      2 C2         -0.3717   -0.0555    0.0619 C.ar      1 <0>        -0.0190
      3 C3         -0.5490   -0.7530   -1.1154 C.ar      1 <0>        -0.0651
      4 C4         -0.3874   -2.1267   -1.1401 C.ar      1 <0>        -0.0204
      5 C5         -0.0468   -2.8103    0.0139 C.ar      1 <0>        -0.0700
      6 C6          0.1338   -2.1251    1.1972 C.ar      1 <0>        -0.0805
      7 C7         -0.0229   -0.7383    1.2280 C.ar      1 <0>        -0.0927
      8 C8          0.1741    0.0033    2.4918 C.2       1 <0>         0.5552
      9 O1          0.1489    1.2186    2.4936 O.2       1 <0>        -0.5150
     10 N1          0.3817   -0.6681    3.6418 N.am      1 <0>        -0.7149
     11 C9          0.5770    0.0667    4.8940 C.3       1 <0>         0.0948
     12 C10         0.9507   -0.9136    6.0077 C.3       1 <0>         0.1708
     13 C11         2.2076   -1.6809    5.6024 C.3       1 <0>        -0.1065
     14 C12         2.6889   -2.4933    6.8104 C.3       1 <0>        -0.1179
     15 C13         3.2301   -1.5229    7.8584 C.3       1 <0>        -0.0873
     16 C14         2.2297   -0.4315    8.1360 C.ar      1 <0>        -0.0524
     17 C15         1.1852   -0.1492    7.2842 C.ar      1 <0>        -0.1133
     18 C16         0.3012    0.8754    7.5962 C.ar      1 <0>        -0.1139
     19 C17         0.4591    1.6097    8.7536 C.ar      1 <0>        -0.1224
     20 C18         1.5052    1.3237    9.6105 C.ar      1 <0>        -0.1070
     21 C19         2.3858    0.3074    9.3014 C.ar      1 <0>        -0.1238
     22 O2         -0.1223   -1.8372    6.2019 O.3       1 <0>        -0.5466
     23 N2         -0.5802   -2.8686   -2.4063 N.pl3     1 <0>         0.0280
     24 O3         -0.8782   -2.2740   -3.4159 O.2       1 <0>        -0.1495
     25 O4         -0.4397   -4.0691   -2.4309 O.3       1 <0>        -0.1491
     26 H1          0.4247    1.9231   -0.0100 H         1 <0>         0.0864
     27 H2         -1.1886    1.7452   -0.7408 H         1 <0>         0.0690
     28 H3         -1.0078    1.7368    1.0299 H         1 <0>         0.1023
     29 H4         -0.8149   -0.2254   -2.0194 H         1 <0>         0.1618
     30 H5          0.0775   -3.8829   -0.0121 H         1 <0>         0.1613
     31 H6          0.3996   -2.6598    2.0971 H         1 <0>         0.1500
     32 H7          0.4018   -1.6379    3.6403 H         1 <0>         0.4055
     33 H8          1.3782    0.7948    4.7669 H         1 <0>         0.0870
     34 H9         -0.3451    0.5838    5.1594 H         1 <0>         0.0766
     35 H10         1.9767   -2.3533    4.7762 H         1 <0>         0.0745
     36 H11         2.9843   -0.9790    5.2990 H         1 <0>         0.0821
     37 H12         1.8556   -3.0581    7.2285 H         1 <0>         0.0772
     38 H13         3.4787   -3.1779    6.5013 H         1 <0>         0.0725
     39 H14         3.4339   -2.0669    8.7807 H         1 <0>         0.0791
     40 H15         4.1553   -1.0778    7.4923 H         1 <0>         0.0794
     41 H16        -0.5164    1.0996    6.9271 H         1 <0>         0.1224
     42 H17        -0.2325    2.4050    8.9894 H         1 <0>         0.1252
     43 H18         1.6332    1.8940   10.5187 H         1 <0>         0.1252
     44 H19         3.2031    0.0848    9.9713 H         1 <0>         0.1244
     45 H20        -0.9583   -1.4216    6.4535 H         1 <0>         0.3802
@<TRIPOS>BOND
     1    1    2 1
     2    1   26 1
     3    1   27 1
     4    1   28 1
     5    2    7 ar
     6    2    3 ar
     7    3    4 ar
     8    3   29 1
     9    4    5 ar
    10    4   23 1
    11    5    6 ar
    12    5   30 1
    13    6    7 ar
    14    6   31 1
    15    7    8 1
    16    8    9 2
    17    8   10 am
    18   10   11 1
    19   10   32 1
    20   11   12 1
    21   11   33 1
    22   11   34 1
    23   12   17 1
    24   12   13 1
    25   12   22 1
    26   13   14 1
    27   13   35 1
    28   13   36 1
    29   14   15 1
    30   14   37 1
    31   14   38 1
    32   15   16 1
    33   15   39 1
    34   15   40 1
    35   16   21 ar
    36   16   17 ar
    37   17   18 ar
    38   18   19 ar
    39   18   41 1
    40   19   20 ar
    41   19   42 1
    42   20   21 ar
    43   20   43 1
    44   21   44 1
    45   22   45 1
    46   23   24 2
    47   23   25 1
@<TRIPOS>MOLECULE
ZINC12417076
   50    54     0     0     0
SMALL
USER_CHARGES
(2R)-N-(2-adamantyl)-2-methyl-3-oxo-4H-1,4-benzoxazine-6-sulfonamide
@<TRIPOS>ATOM
      1 C1          7.5065    4.4227    1.0785 C.3       1 <0>        -0.1372
      2 C2          5.9801    4.3231    1.0455 C.3       1 <0>         0.0764
      3 H1          5.5547    5.3162    0.9013 H         1 <0>         0.1108
      4 C3          5.4864    3.7502    2.3496 C.2       1 <0>         0.4928
      5 O1          6.1201    3.9228    3.3694 O.2       1 <0>        -0.4958
      6 N1          4.3350    3.0442    2.3780 N.am      1 <0>        -0.6601
      7 C4          3.6400    2.8296    1.1793 C.ar      1 <0>         0.0742
      8 C5          2.3209    2.4073    1.1917 C.ar      1 <0>        -0.0244
      9 C6          1.6555    2.1956   -0.0020 C.ar      1 <0>        -0.6717
     10 C7          2.2997    2.4148   -1.2057 C.ar      1 <0>        -0.0033
     11 C8          3.6151    2.8422   -1.2246 C.ar      1 <0>        -0.1270
     12 C9          4.2891    3.0514   -0.0342 C.ar      1 <0>         0.1384
     13 O2          5.5816    3.4739   -0.0338 O.3       1 <0>        -0.2959
     14 S1         -0.0204    1.6518    0.0111 S.o2      1 <0>         2.6951
     15 O3         -0.5885    2.0570   -1.2267 O.2       1 <0>        -0.9535
     16 O4         -0.5648    2.0437    1.2638 O.2       1 <0>        -0.9526
     17 N2          0.0021   -0.0041    0.0020 N.pl3     1 <0>        -1.1075
     18 C10         0.5591   -0.7354    1.1427 C.3       1 <0>         0.1598
     19 C11         2.0238   -1.0779    0.8629 C.3       1 <0>        -0.1061
     20 C12         2.1133   -1.9470   -0.3931 C.3       1 <0>        -0.1055
     21 C13         1.3199   -3.2374   -0.1779 C.3       1 <0>        -0.0877
     22 C14         1.9017   -4.0012    1.0134 C.3       1 <0>        -0.1084
     23 C15         1.8121   -3.1320    2.2693 C.3       1 <0>        -0.0883
     24 C16         2.6055   -1.8416    2.0542 C.3       1 <0>        -0.1074
     25 C17         0.3474   -2.7895    2.5491 C.3       1 <0>        -0.1082
     26 C18        -0.2343   -2.0258    1.3579 C.3       1 <0>        -0.0873
     27 C19        -0.1448   -2.8949    0.1019 C.3       1 <0>        -0.1098
     28 H2          7.9324    3.4300    1.2238 H         1 <0>         0.0730
     29 H3          7.8640    4.8369    0.1357 H         1 <0>         0.0839
     30 H4          7.8106    5.0723    1.8993 H         1 <0>         0.0958
     31 H5          3.9942    2.6913    3.2148 H         1 <0>         0.4196
     32 H6          1.8147    2.2400    2.1309 H         1 <0>         0.1502
     33 H7          1.7739    2.2512   -2.1348 H         1 <0>         0.1534
     34 H8          4.1151    3.0126   -2.1666 H         1 <0>         0.1521
     35 H9         -0.3536   -0.4898   -0.7586 H         1 <0>         0.4197
     36 H10         0.4953   -0.1162    2.0375 H         1 <0>         0.0925
     37 H11         2.5890   -0.1586    0.7096 H         1 <0>         0.0743
     38 H12         1.6989   -1.4029   -1.2418 H         1 <0>         0.0648
     39 H13         3.1568   -2.1911   -0.5924 H         1 <0>         0.0636
     40 H14         1.3837   -3.8567   -1.0727 H         1 <0>         0.0715
     41 H15         2.9451   -4.2452    0.8140 H         1 <0>         0.0619
     42 H16         1.3364   -4.9205    1.1666 H         1 <0>         0.0629
     43 H17         2.2266   -3.6761    3.1180 H         1 <0>         0.0725
     44 H18         2.5417   -1.2224    2.9489 H         1 <0>         0.0635
     45 H19         3.6490   -2.0856    1.8548 H         1 <0>         0.0667
     46 H20         0.2837   -2.1703    3.4439 H         1 <0>         0.0664
     47 H21        -0.2178   -3.7088    2.7024 H         1 <0>         0.0697
     48 H22        -1.2778   -1.7817    1.5572 H         1 <0>         0.0814
     49 H23        -0.7100   -3.8142    0.2552 H         1 <0>         0.0681
     50 H24        -0.5592   -2.3508   -0.7468 H         1 <0>         0.0628
@<TRIPOS>BOND
     1    1    2 1
     2    1   28 1
     3    1   29 1
     4    1   30 1
     5    2    3 1
     6    2   13 1
     7    2    4 1
     8    4    5 2
     9    4    6 am
    10    6    7 1
    11    6   31 1
    12    7   12 ar
    13    7    8 ar
    14    8    9 ar
    15    8   32 1
    16    9   10 ar
    17    9   14 1
    18   10   11 ar
    19   10   33 1
    20   11   12 ar
    21   11   34 1
    22   12   13 1
    23   14   15 2
    24   14   16 2
    25   14   17 1
    26   17   18 1
    27   17   35 1
    28   18   26 1
    29   18   19 1
    30   18   36 1
    31   19   24 1
    32   19   20 1
    33   19   37 1
    34   20   21 1
    35   20   38 1
    36   20   39 1
    37   21   27 1
    38   21   22 1
    39   21   40 1
    40   22   23 1
    41   22   41 1
    42   22   42 1
    43   23   24 1
    44   23   25 1
    45   23   43 1
    46   24   44 1
    47   24   45 1
    48   25   26 1
    49   25   46 1
    50   25   47 1
    51   26   27 1
    52   26   48 1
    53   27   49 1
    54   27   50 1
@<TRIPOS>MOLECULE
ZINC23543822
   47    49     0     0     0
SMALL
USER_CHARGES
2-(1,3-dioxo-2,4-diazaspiro[4.5]decan-2-yl)-N-[(1R)-1-(2-fluorophenyl)ethyl]acetamide
@<TRIPOS>ATOM
      1 C1          2.8405    4.2965    1.4346 C.3       1 <0>        -0.1574
      2 C2          2.4530    3.9350   -0.0007 C.3       1 <0>         0.1899
      3 H1          2.3459    4.8376   -0.6202 H         1 <0>         0.1007
      4 C3          1.1577    3.1647    0.0075 C.ar      1 <0>        -0.1242
      5 C4          1.1753    1.7826    0.0004 C.ar      1 <0>        -0.0898
      6 C5         -0.0126    1.0758    0.0080 C.ar      1 <0>        -0.1222
      7 C6         -1.2196    1.7503    0.0173 C.ar      1 <0>        -0.0901
      8 C7         -1.2395    3.1318    0.0307 C.ar      1 <0>        -0.1469
      9 C8         -0.0501    3.8410    0.0227 C.ar      1 <0>         0.1085
     10 F1         -0.0684    5.1919    0.0292 F         1 <0>        -0.1337
     11 N1          3.5070    3.1117   -0.5985 N.am      1 <0>        -0.7345
     12 C9          4.5764    3.6981   -1.1721 C.2       1 <0>         0.5058
     13 O1          4.6661    4.9074   -1.1934 O.2       1 <0>        -0.5266
     14 C10         5.6606    2.8511   -1.7870 C.3       1 <0>         0.0972
     15 N2          6.7037    3.7188   -2.3397 N.am      1 <0>        -0.5624
     16 C11         7.7805    4.1453   -1.6478 C.2       1 <0>         0.5357
     17 O2          8.0591    3.8934   -0.4951 O.2       1 <0>        -0.4622
     18 C12         8.5666    5.0031   -2.6128 C.3       1 <0>         0.1184
     19 C13         9.9526    4.4107   -2.8422 C.3       1 <0>        -0.1143
     20 C14        10.7218    5.2772   -3.8427 C.3       1 <0>        -0.1170
     21 C15        10.8415    6.7012   -3.2957 C.3       1 <0>        -0.1267
     22 C16         9.4439    7.2903   -3.0943 C.3       1 <0>        -0.1170
     23 C17         8.6694    6.4320   -2.0909 C.3       1 <0>        -0.1149
     24 N3          7.7775    4.9621   -3.8504 N.am      1 <0>        -0.7248
     25 C18         6.7095    4.1822   -3.5956 C.2       1 <0>         0.7188
     26 O3          5.8463    3.9299   -4.4131 O.2       1 <0>        -0.5426
     27 H2          3.7859    4.8587    1.4286 H         1 <0>         0.0684
     28 H3          2.9651    3.3759    2.0237 H         1 <0>         0.0633
     29 H4          2.0491    4.9147    1.8834 H         1 <0>         0.0695
     30 H5          2.1174    1.2548   -0.0114 H         1 <0>         0.1305
     31 H6          0.0021   -0.0041    0.0020 H         1 <0>         0.1335
     32 H7         -2.1471    1.1970    0.0187 H         1 <0>         0.1356
     33 H8         -2.1823    3.6584    0.0425 H         1 <0>         0.1389
     34 H9          3.4256    2.0149   -0.5792 H         1 <0>         0.4190
     35 H10         6.0969    2.1981   -1.0168 H         1 <0>         0.1277
     36 H11         5.2325    2.2344   -2.5910 H         1 <0>         0.1302
     37 H12        10.5003    4.3793   -1.8888 H         1 <0>         0.0893
     38 H13         9.8538    3.3907   -3.2420 H         1 <0>         0.0742
     39 H14        11.7268    4.8568   -3.9952 H         1 <0>         0.0755
     40 H15        10.1830    5.2963   -4.8015 H         1 <0>         0.0649
     41 H16        11.3726    6.6806   -2.3327 H         1 <0>         0.0691
     42 H17        11.4015    7.3225   -4.0101 H         1 <0>         0.0698
     43 H18         9.5308    8.3170   -2.7091 H         1 <0>         0.0755
     44 H19         8.9095    7.3034   -4.0557 H         1 <0>         0.0646
     45 H20         7.6595    6.8471   -1.9575 H         1 <0>         0.0776
     46 H21         9.1966    6.4327   -1.1255 H         1 <0>         0.0880
     47 H22         8.1185    5.5140   -4.7387 H         1 <0>         0.4674
@<TRIPOS>BOND
     1    1    2 1
     2    1   27 1
     3    1   28 1
     4    1   29 1
     5    2    3 1
     6    2    4 1
     7    2   11 1
     8    4    9 ar
     9    4    5 ar
    10    5    6 ar
    11    5   30 1
    12    6    7 ar
    13    6   31 1
    14    7    8 ar
    15    7   32 1
    16    8    9 ar
    17    8   33 1
    18    9   10 1
    19   11   12 am
    20   11   34 1
    21   12   13 2
    22   12   14 1
    23   14   15 1
    24   14   35 1
    25   14   36 1
    26   15   25 am
    27   15   16 am
    28   16   17 2
    29   16   18 1
    30   18   23 1
    31   18   19 1
    32   18   24 1
    33   19   20 1
    34   19   37 1
    35   19   38 1
    36   20   21 1
    37   20   39 1
    38   20   40 1
    39   21   22 1
    40   21   41 1
    41   21   42 1
    42   22   23 1
    43   22   43 1
    44   22   44 1
    45   23   45 1
    46   23   46 1
    47   24   25 am
    48   24   47 1
    49   25   26 2
@<TRIPOS>MOLECULE
ZINC38980557
   36    38     0     0     0
SMALL
USER_CHARGES

@<TRIPOS>ATOM
      1 C1         -0.0184    1.5028    0.0103 C.3       1 <0>        -0.0885
      2 C2          0.0021   -0.0041    0.0020 C.2       1 <0>        -0.0406
      3 C3         -1.0863   -0.7768    0.0030 C.2       1 <0>        -0.1521
      4 C4         -0.5311   -2.1901   -0.0073 C.3       1 <0>        -0.0333
      5 H1         -0.8370   -2.7309    0.8883 H         1 <0>         0.1592
      6 N1          0.9257   -1.9734   -0.0130 N.2       1 <0>        -0.1254
      7 N2          1.1248   -0.7562   -0.0132 N.2       1 <0>        -0.1701
      8 C5         -0.9759   -2.9370   -1.2664 C.3       1 <0>         0.3435
      9 H2         -0.5544   -2.4604   -2.1514 H         1 <0>         0.0692
     10 N3         -2.4540   -2.9504   -1.3528 N.3       1 <0>        -0.4691
     11 N4         -2.7763   -4.2780   -1.8993 N.3       1 <0>        -0.4717
     12 C6         -1.7762   -5.1607   -1.2435 C.3       1 <0>         0.3083
     13 H3         -1.6145   -6.0605   -1.8371 H         1 <0>         0.1110
     14 N5         -0.5449   -4.3443   -1.1972 N.pl3     1 <0>        -0.5331
     15 N6          0.7715   -4.8147   -1.1053 N.2       1 <0>        -0.1305
     16 C7          1.0024   -6.0903   -1.0520 C.2       1 <0>         0.0610
     17 C8          2.3882   -6.5855   -0.9552 C.ar      1 <0>        -0.0294
     18 C9          2.6406   -7.9585   -0.9034 C.ar      1 <0>        -0.0706
     19 C10         3.9386   -8.4151   -0.8134 C.ar      1 <0>        -0.1100
     20 C11         4.9917   -7.5162   -0.7743 C.ar      1 <0>        -0.0151
     21 C12         4.7495   -6.1541   -0.8247 C.ar      1 <0>        -0.1078
     22 C13         3.4552   -5.6834   -0.9207 C.ar      1 <0>        -0.0100
     23 Cl1         3.1533   -3.9753   -0.9916 Cl        1 <0>         0.0037
     24 Cl2         6.6226   -8.1002   -0.6610 Cl        1 <0>        -0.0549
     25 S1         -2.3167   -5.5965    0.4323 S.3       1 <0>        -0.2063
     26 H4          1.0042    1.8801    0.0026 H         1 <0>         0.0785
     27 H5         -0.5455    1.8639   -0.8728 H         1 <0>         0.0773
     28 H6         -0.5286    1.8543    0.9071 H         1 <0>         0.0786
     29 H7         -2.1213   -0.4684    0.0099 H         1 <0>         0.1745
     30 H8         -2.7872   -2.2180   -1.9616 H         1 <0>         0.3640
     31 H9         -2.6684   -4.2921   -2.9024 H         1 <0>         0.3271
     32 H10         0.1797   -6.7896   -1.0785 H         1 <0>         0.1273
     33 H11         1.8207   -8.6608   -0.9335 H         1 <0>         0.1462
     34 H12         4.1347   -9.4764   -0.7730 H         1 <0>         0.1441
     35 H13         5.5751   -5.4584   -0.7934 H         1 <0>         0.1467
     36 H14        -3.4726   -6.2569    0.2400 H         1 <0>         0.0980
@<TRIPOS>BOND
     1    1    2 1
     2    1   26 1
     3    1   27 1
     4    1   28 1
     5    2    7 1
     6    2    3 2
     7    3    4 1
     8    3   29 1
     9    4    5 1
    10    4    6 1
    11    4    8 1
    12    6    7 2
    13    8    9 1
    14    8   14 1
    15    8   10 1
    16   10   11 1
    17   10   30 1
    18   11   12 1
    19   11   31 1
    20   12   13 1
    21   12   14 1
    22   12   25 1
    23   14   15 1
    24   15   16 2
    25   16   17 1
    26   16   32 1
    27   17   22 ar
    28   17   18 ar
    29   18   19 ar
    30   18   33 1
    31   19   20 ar
    32   19   34 1
    33   20   21 ar
    34   20   24 1
    35   21   22 ar
    36   21   35 1
    37   22   23 1
    38   25   36 1
@<TRIPOS>MOLECULE
ZINC47039815
   44    46     0     0     0
SMALL
USER_CHARGES

@<TRIPOS>ATOM
      1 C1          0.2987    1.4988   -0.0241 C.3       1 <0>        -0.1230
      2 C2          0.2250   -0.0064   -0.0179 C.ar      1 <0>        -0.0548
      3 C3         -0.5301   -0.6624   -0.9751 C.ar      1 <0>        -0.1277
      4 C4         -0.6034   -2.0387   -0.9767 C.ar      1 <0>        -0.0704
      5 C5          0.0893   -2.7738   -0.0063 C.ar      1 <0>        -0.1186
      6 C6          0.8513   -2.1018    0.9580 C.ar      1 <0>        -0.0851
      7 C7          0.9175   -0.7253    0.9415 C.ar      1 <0>        -0.1236
      8 C8          0.0169   -4.2392    0.0003 C.2       1 <0>         0.0846
      9 C9          0.1777   -4.9258    1.1704 C.2       1 <0>        -0.1370
     10 C10         0.2377   -4.2177    2.4136 C.1       1 <0>         0.2431
     11 N1          0.2852   -3.6559    3.3998 N.1       1 <0>        -0.3988
     12 C11         0.2892   -6.3936    1.1532 C.2       1 <0>         0.5778
     13 O1          0.2383   -6.9951    0.0971 O.2       1 <0>        -0.5060
     14 N2          0.4479   -7.0709    2.3075 N.am      1 <0>        -0.6628
     15 C12         0.6631   -8.4524    2.2836 C.ar      1 <0>         0.1758
     16 C13         1.2644   -9.0438    1.1791 C.ar      1 <0>        -0.1512
     17 C14         1.4773  -10.4084    1.1549 C.ar      1 <0>        -0.0686
     18 C15         1.0930  -11.1898    2.2279 C.ar      1 <0>        -0.1746
     19 C16         0.4910  -10.6049    3.3347 C.ar      1 <0>         0.2092
     20 C17         0.2817   -9.2336    3.3651 C.ar      1 <0>        -0.1848
     21 N3          0.1018  -11.3972    4.4206 N.am      1 <0>        -0.5700
     22 C18         0.3820  -12.8328    4.5717 C.3       1 <0>         0.0852
     23 C19        -0.2610  -13.1941    5.9248 C.3       1 <0>         0.0910
     24 N4         -0.8352  -11.9236    6.3924 N.am      1 <0>        -0.7357
     25 C20        -0.5802  -10.9669    5.4902 C.2       1 <0>         0.6995
     26 O2         -0.9388   -9.8133    5.6277 O.2       1 <0>        -0.5659
     27 H1          1.1336    1.8192   -0.6473 H         1 <0>         0.0775
     28 H2         -0.6301    1.9064   -0.4235 H         1 <0>         0.0716
     29 H3          0.4457    1.8596    0.9938 H         1 <0>         0.0706
     30 H4         -1.0636   -0.0939   -1.7226 H         1 <0>         0.1317
     31 H5         -1.1935   -2.5488   -1.7236 H         1 <0>         0.1361
     32 H6          1.3885   -2.6609    1.7098 H         1 <0>         0.1278
     33 H7          1.5077   -0.2057    1.6818 H         1 <0>         0.1287
     34 H8         -0.1636   -4.7751   -0.9198 H         1 <0>         0.1676
     35 H9          0.4127   -6.6001    3.1549 H         1 <0>         0.4126
     36 H10         1.5653   -8.4359    0.3387 H         1 <0>         0.1454
     37 H11         1.9448  -10.8656    0.2954 H         1 <0>         0.1332
     38 H12         1.2605  -12.2565    2.2057 H         1 <0>         0.1265
     39 H13        -0.1814   -8.7758    4.2267 H         1 <0>         0.1609
     40 H14        -0.0813  -13.4001    3.7644 H         1 <0>         0.0937
     41 H15         1.4568  -13.0121    4.5988 H         1 <0>         0.0937
     42 H16        -1.0435  -13.9407    5.7894 H         1 <0>         0.0900
     43 H17         0.4946  -13.5527    6.6238 H         1 <0>         0.0897
     44 H18        -1.3182  -11.7974    7.2241 H         1 <0>         0.4348
@<TRIPOS>BOND
     1    1    2 1
     2    1   27 1
     3    1   28 1
     4    1   29 1
     5    2    7 ar
     6    2    3 ar
     7    3    4 ar
     8    3   30 1
     9    4    5 ar
    10    4   31 1
    11    5    6 ar
    12    5    8 1
    13    6    7 ar
    14    6   32 1
    15    7   33 1
    16    8    9 2
    17    8   34 1
    18    9   10 1
    19    9   12 1
    20   10   11 3
    21   12   13 2
    22   12   14 am
    23   14   15 1
    24   14   35 1
    25   15   20 ar
    26   15   16 ar
    27   16   17 ar
    28   16   36 1
    29   17   18 ar
    30   17   37 1
    31   18   19 ar
    32   18   38 1
    33   19   20 ar
    34   19   21 1
    35   20   39 1
    36   21   25 am
    37   21   22 1
    38   22   23 1
    39   22   40 1
    40   22   41 1
    41   23   24 1
    42   23   42 1
    43   23   43 1
    44   24   25 am
    45   24   44 1
    46   25   26 2
@<TRIPOS>MOLECULE
ZINC40282911
   42    45     0     0     0
SMALL
USER_CHARGES

@<TRIPOS>ATOM
      1 C1         -0.0173    1.4248    0.0099 C.3       1 <0>         0.0248
      2 O1          0.0021   -0.0041    0.0020 O.3       1 <0>        -0.3071
      3 C2         -1.2011   -0.6379    0.0101 C.ar      1 <0>         0.1056
      4 C3         -2.3743    0.0994    0.0195 C.ar      1 <0>        -0.1922
      5 C4         -3.5965   -0.5465    0.0272 C.ar      1 <0>        -0.0776
      6 C5         -3.6519   -1.9279    0.0261 C.ar      1 <0>        -0.1010
      7 C6         -2.4852   -2.6694    0.0172 C.ar      1 <0>        -0.0895
      8 C7         -1.2569   -2.0283    0.0032 C.ar      1 <0>         0.0762
      9 O2         -0.1083   -2.7563   -0.0116 O.3       1 <0>        -0.4844
     10 C8         -4.9869   -2.6268    0.0350 C.3       1 <0>         0.0514
     11 H1         -4.8383   -3.7066    0.0327 H         1 <0>         0.1159
     12 C9         -5.7805   -2.2146    1.2799 C.3       1 <0>        -0.1014
     13 C10        -6.3865   -0.8512    1.1198 C.2       1 <0>         0.3818
     14 N1         -6.7916   -0.3796   -0.0223 N.2       1 <0>        -0.5392
     15 C11        -6.6336   -1.1389   -1.1440 C.2       1 <0>         0.2025
     16 C12        -5.7856   -2.2184   -1.1777 C.2       1 <0>        -0.0299
     17 N2         -5.8370   -2.7496   -2.3922 N.2       1 <0>        -0.4483
     18 C13        -6.6765   -2.0674   -3.1313 C.2       1 <0>         0.1903
     19 N3         -7.1993   -1.0472   -2.3821 N.pl3     1 <0>        -0.3970
     20 C14        -8.1360   -0.0932   -2.8052 C.ar      1 <0>         0.1223
     21 C15        -9.4225   -0.4861   -3.1480 C.ar      1 <0>        -0.0947
     22 C16       -10.3432    0.4557   -3.5639 C.ar      1 <0>        -0.1040
     23 C17        -9.9851    1.7894   -3.6392 C.ar      1 <0>        -0.0936
     24 C18        -8.7047    2.1846   -3.2991 C.ar      1 <0>        -0.1030
     25 C19        -7.7802    1.2477   -2.8766 C.ar      1 <0>        -0.0171
     26 Cl1        -6.1748    1.7453   -2.4422 Cl        1 <0>        -0.0421
     27 O3         -6.5173   -0.0752    2.2164 O.3       1 <0>        -0.4563
     28 H2          1.0053    1.8021    0.0021 H         1 <0>         0.1027
     29 H3         -0.5445    1.7859   -0.8732 H         1 <0>         0.0547
     30 H4         -0.5275    1.7763    0.9067 H         1 <0>         0.0558
     31 H5         -2.3338    1.1787    0.0211 H         1 <0>         0.1299
     32 H6         -4.5102    0.0294    0.0345 H         1 <0>         0.1242
     33 H7         -2.5312   -3.7485    0.0167 H         1 <0>         0.1403
     34 H8          0.2323   -2.9716    0.8674 H         1 <0>         0.3867
     35 H9         -6.5758   -2.9399    1.4516 H         1 <0>         0.1118
     36 H10        -5.1133   -2.2088    2.1418 H         1 <0>         0.1131
     37 H11        -6.9165   -2.2756   -4.1635 H         1 <0>         0.2154
     38 H12        -9.7031   -1.5274   -3.0899 H         1 <0>         0.1396
     39 H13       -11.3441    0.1502   -3.8310 H         1 <0>         0.1409
     40 H14       -10.7071    2.5236   -3.9647 H         1 <0>         0.1411
     41 H15        -8.4279    3.2268   -3.3592 H         1 <0>         0.1430
     42 H16        -6.9146    0.7889    2.0416 H         1 <0>         0.4087
@<TRIPOS>BOND
     1    1    2 1
     2    1   28 1
     3    1   29 1
     4    1   30 1
     5    2    3 1
     6    3    8 ar
     7    3    4 ar
     8    4    5 ar
     9    4   31 1
    10    5    6 ar
    11    5   32 1
    12    6    7 ar
    13    6   10 1
    14    7    8 ar
    15    7   33 1
    16    8    9 1
    17    9   34 1
    18   10   11 1
    19   10   16 1
    20   10   12 1
    21   12   13 1
    22   12   35 1
    23   12   36 1
    24   13   14 2
    25   13   27 1
    26   14   15 1
    27   15   19 1
    28   15   16 2
    29   16   17 1
    30   17   18 2
    31   18   19 1
    32   18   37 1
    33   19   20 1
    34   20   25 ar
    35   20   21 ar
    36   21   22 ar
    37   21   38 1
    38   22   23 ar
    39   22   39 1
    40   23   24 ar
    41   23   40 1
    42   24   25 ar
    43   24   41 1
    44   25   26 1
    45   27   42 1
@<TRIPOS>MOLECULE
ZINC11694930
   41    44     0     0     0
SMALL
USER_CHARGES
(5S,6R,7R)-N-(4-chlorophenyl)-5-methyl-7-(2-thienyl)-4,5,6,7-tetrahydro-[1,2,4]triazolo[1,5-a]pyrimidine-6-carboxamide
@<TRIPOS>ATOM
      1 C1         -2.7281    4.3922   -2.2333 C.3       1 <0>        -0.1793
      2 C2         -3.4297    3.8541   -0.9846 C.3       1 <0>         0.1611
      3 H1         -3.5810    2.7793   -1.0845 H         1 <0>         0.1142
      4 C3         -2.5701    4.1399    0.2520 C.3       1 <0>        -0.1371
      5 H2         -3.0927    3.7955    1.1443 H         1 <0>         0.1235
      6 C4         -2.3097    5.6473    0.3633 C.3       1 <0>         0.2798
      7 H3         -1.6282    5.9597   -0.4280 H         1 <0>         0.1212
      8 N1         -3.5806    6.3572    0.2252 N.pl3     1 <0>        -0.4098
      9 C5         -4.6978    5.8221   -0.3237 C.2       1 <0>         0.5229
     10 N2         -5.6402    6.7249   -0.2839 N.2       1 <0>        -0.5671
     11 C6         -5.1650    7.8418    0.2776 C.2       1 <0>         0.2188
     12 N3         -3.9096    7.6595    0.6027 N.2       1 <0>        -0.3028
     13 N4         -4.7337    4.5245   -0.8172 N.pl3     1 <0>        -0.7028
     14 C7         -1.7031    5.9571    1.7075 C.2       1 <0>        -0.1631
     15 C8         -0.5060    6.5250    1.9934 C.2       1 <0>        -0.1048
     16 C9         -0.1534    6.7159    3.3162 C.2       1 <0>        -0.1592
     17 C10        -1.0152    6.3296    4.2885 C.2       1 <0>        -0.1601
     18 S1         -2.3781    5.6787    3.3367 S.3       1 <0>         0.0451
     19 C11        -1.2563    3.4122    0.1283 C.2       1 <0>         0.5342
     20 O1         -0.2156    4.0352    0.1269 O.2       1 <0>        -0.4909
     21 N5         -1.2376    2.0690    0.0191 N.am      1 <0>        -0.6686
     22 C12        -0.0170    1.3840    0.0153 C.ar      1 <0>         0.1491
     23 C13         0.1264    0.2223   -0.7319 C.ar      1 <0>        -0.1304
     24 C14         1.3302   -0.4545   -0.7298 C.ar      1 <0>        -0.0894
     25 C15         2.3929    0.0237    0.0165 C.ar      1 <0>        -0.0475
     26 C16         2.2526    1.1808    0.7624 C.ar      1 <0>        -0.0887
     27 C17         1.0510    1.8617    0.7633 C.ar      1 <0>        -0.1070
     28 Cl1         3.9046   -0.8298    0.0174 Cl        1 <0>        -0.0660
     29 H4         -1.7598    3.9042   -2.3448 H         1 <0>         0.0758
     30 H5         -3.3412    4.1877   -3.1111 H         1 <0>         0.0797
     31 H6         -2.5835    5.4679   -2.1337 H         1 <0>         0.0640
     32 H7         -5.7271    8.7501    0.4372 H         1 <0>         0.2200
     33 H8         -5.5687    4.0835   -1.0390 H         1 <0>         0.4318
     34 H9          0.1626    6.8236    1.1994 H         1 <0>         0.1358
     35 H10         0.7944    7.1665    3.5713 H         1 <0>         0.1375
     36 H11        -0.9071    6.4008    5.3607 H         1 <0>         0.1878
     37 H12        -2.0701    1.5769   -0.0567 H         1 <0>         0.4136
     38 H13        -0.7028   -0.1515   -1.3143 H         1 <0>         0.1372
     39 H14         1.4423   -1.3578   -1.3111 H         1 <0>         0.1395
     40 H15         3.0835    1.5519    1.3440 H         1 <0>         0.1382
     41 H16         0.9419    2.7647    1.3457 H         1 <0>         0.1441
@<TRIPOS>BOND
     1    1    2 1
     2    1   29 1
     3    1   30 1
     4    1   31 1
     5    2    3 1
     6    2   13 1
     7    2    4 1
     8    4    5 1
     9    4    6 1
    10    4   19 1
    11    6    7 1
    12    6    8 1
    13    6   14 1
    14    8   12 1
    15    8    9 1
    16    9   10 2
    17    9   13 1
    18   10   11 1
    19   11   12 2
    20   11   32 1
    21   13   33 1
    22   14   18 1
    23   14   15 2
    24   15   16 1
    25   15   34 1
    26   16   17 2
    27   16   35 1
    28   17   18 1
    29   17   36 1
    30   19   20 2
    31   19   21 am
    32   21   22 1
    33   21   37 1
    34   22   27 ar
    35   22   23 ar
    36   23   24 ar
    37   23   38 1
    38   24   25 ar
    39   24   39 1
    40   25   26 ar
    41   25   28 1
    42   26   27 ar
    43   26   40 1
    44   27   41 1
@<TRIPOS>MOLECULE
ZINC16267095
   41    43     0     0     0
SMALL
USER_CHARGES

@<TRIPOS>ATOM
      1 C1          2.3831    0.6941   -2.0237 C.3       1 <0>        -0.1068
      2 C2          1.8102   -0.5822   -1.4634 C.2       1 <0>         0.1349
      3 C3          1.4077   -0.6203   -0.1806 C.2       1 <0>        -0.2925
      4 C4          0.8686   -1.8282    0.3398 C.2       1 <0>         0.4123
      5 O1          0.4927   -1.8984    1.5006 O.2       1 <0>        -0.4660
      6 C5          0.7783   -2.9442   -0.5194 C.2       1 <0>        -0.2762
      7 C6          1.2078   -2.8215   -1.8037 C.2       1 <0>         0.3328
      8 O2          1.7045   -1.6603   -2.2526 O.3       1 <0>        -0.2536
      9 O3          1.1284   -3.8808   -2.6384 O.3       1 <0>        -0.4102
     10 C7          0.2154   -4.2505   -0.0216 C.3       1 <0>         0.0939
     11 C8         -0.6841   -3.9923    1.1595 C.ar      1 <0>        -0.0242
     12 C9         -1.8383   -3.2485    0.9999 C.ar      1 <0>        -0.1070
     13 C10        -2.6635   -3.0116    2.0831 C.ar      1 <0>        -0.1182
     14 C11        -2.3352   -3.5183    3.3269 C.ar      1 <0>        -0.1150
     15 C12        -1.1816   -4.2621    3.4878 C.ar      1 <0>        -0.1099
     16 C13        -0.3580   -4.5044    2.4025 C.ar      1 <0>        -0.0181
     17 Cl1         1.0878   -5.4442    2.6024 Cl        1 <0>        -0.0706
     18 C14        -0.5767   -4.9081   -1.1221 C.2       1 <0>        -0.2663
     19 C15        -1.4244   -4.1624   -1.9209 C.2       1 <0>         0.2466
     20 O4         -1.5580   -2.8289   -1.7291 O.3       1 <0>        -0.4428
     21 C16        -2.1477   -4.8193   -2.9413 C.2       1 <0>        -0.3103
     22 C17        -2.0010   -6.1461   -3.1168 C.2       1 <0>         0.1745
     23 O5         -1.1772   -6.8621   -2.3381 O.3       1 <0>        -0.2667
     24 C18        -0.4629   -6.2839   -1.3573 C.2       1 <0>         0.5172
     25 O6          0.2829   -6.9597   -0.6677 O.2       1 <0>        -0.4614
     26 C19        -2.7769   -6.8387   -4.2073 C.3       1 <0>        -0.1172
     27 H1          2.6490    0.5444   -3.0701 H         1 <0>         0.0846
     28 H2          1.6416    1.4894   -1.9475 H         1 <0>         0.1002
     29 H3          3.2729    0.9717   -1.4587 H         1 <0>         0.1004
     30 H4          1.4934    0.2552    0.4460 H         1 <0>         0.1588
     31 H5          1.0320   -4.9065    0.2802 H         1 <0>         0.1111
     32 H6         -2.0951   -2.8521    0.0287 H         1 <0>         0.1401
     33 H7         -3.5650   -2.4301    1.9580 H         1 <0>         0.1193
     34 H8         -2.9802   -3.3326    4.1730 H         1 <0>         0.1246
     35 H9         -0.9251   -4.6576    4.4594 H         1 <0>         0.1276
     36 H10        -2.8163   -4.2592   -3.5782 H         1 <0>         0.1591
     37 H11        -2.1745   -2.4034   -2.3406 H         1 <0>         0.3989
     38 H12        -2.1933   -6.8335   -5.1279 H         1 <0>         0.0999
     39 H13        -2.9796   -7.8680   -3.9115 H         1 <0>         0.0926
     40 H14        -3.7190   -6.3156   -4.3715 H         1 <0>         0.1004
     41 H15         1.4558   -3.7038   -3.5309 H         1 <0>         0.4031
@<TRIPOS>BOND
     1    1    2 1
     2    1   27 1
     3    1   28 1
     4    1   29 1
     5    2    8 1
     6    2    3 2
     7    3    4 1
     8    3   30 1
     9    4    5 2
    10    4    6 1
    11    6    7 2
    12    6   10 1
    13    7    8 1
    14    7    9 1
    15    9   41 1
    16   10   11 1
    17   10   31 1
    18   10   18 1
    19   11   16 ar
    20   11   12 ar
    21   12   13 ar
    22   12   32 1
    23   13   14 ar
    24   13   33 1
    25   14   15 ar
    26   14   34 1
    27   15   16 ar
    28   15   35 1
    29   16   17 1
    30   18   24 1
    31   18   19 2
    32   19   20 1
    33   19   21 1
    34   20   37 1
    35   21   36 1
    36   21   22 2
    37   22   26 1
    38   22   23 1
    39   23   24 1
    40   24   25 2
    41   26   38 1
    42   26   39 1
    43   26   40 1
@<TRIPOS>MOLECULE
ZINC41572334
   40    43     0     0     0
SMALL
USER_CHARGES

@<TRIPOS>ATOM
      1 C1         -0.0184    1.5028    0.0103 C.3       1 <0>        -0.1454
      2 C2          0.0021   -0.0041    0.0020 C.ar      1 <0>         0.1192
      3 C3          0.0060   -0.6961   -1.1872 C.ar      1 <0>        -0.1846
      4 C4          0.0248   -2.0823   -1.1923 C.ar      1 <0>         0.1890
      5 N1          0.0396   -2.7543   -0.0572 N.ar      1 <0>        -0.4332
      6 C5          0.0370   -2.1378    1.1031 C.ar      1 <0>         0.0366
      7 C6          0.0235   -0.7288    1.2168 C.ar      1 <0>        -0.0791
      8 C7          0.0291   -0.2255    2.5844 C.2       1 <0>         0.2690
      9 C8          0.0507   -1.1012    3.6032 C.2       1 <0>        -0.3656
     10 S1          0.0530   -2.6878    2.7914 S.3       1 <0>         0.1762
     11 N2          0.0125    1.1590    2.8346 N.2       1 <0>        -1.0766
     12 S2          0.0191    1.7190    4.3931 S.o2      1 <0>         2.6248
     13 O1         -1.2157    1.3210    4.9728 O.2       1 <0>        -1.0143
     14 O2          1.2746    1.3549    4.9501 O.2       1 <0>        -1.0137
     15 C9         -0.0056    3.4790    4.3144 C.ar      1 <0>        -0.6451
     16 C10         1.1812    4.1876    4.2667 C.ar      1 <0>         0.0134
     17 C11         1.1689    5.5656    4.2050 C.ar      1 <0>        -0.1598
     18 C12        -0.0426    6.2544    4.1898 C.ar      1 <0>         0.1848
     19 C13        -1.2276    5.5313    4.2376 C.ar      1 <0>        -0.1675
     20 C14        -1.2126    4.1558    4.2943 C.ar      1 <0>         0.0322
     21 C15        -2.3468    6.5466    4.2065 C.3       1 <0>        -0.1139
     22 C16        -1.6325    7.8796    4.1374 C.2       1 <0>         0.5301
     23 O3         -2.1528    8.9744    4.0946 O.2       1 <0>        -0.4983
     24 N3         -0.3138    7.6218    4.1319 N.am      1 <0>        -0.6605
     25 C17         0.0279   -2.8262   -2.5029 C.3       1 <0>        -0.1342
     26 H1          1.0042    1.8801    0.0026 H         1 <0>         0.0997
     27 H2         -0.5455    1.8639   -0.8728 H         1 <0>         0.0737
     28 H3         -0.5286    1.8543    0.9071 H         1 <0>         0.1338
     29 H4         -0.0060   -0.1561   -2.1224 H         1 <0>         0.1747
     30 H5          0.0579   -0.8930    4.6630 H         1 <0>         0.1858
     31 H6          2.1230    3.6591    4.2783 H         1 <0>         0.1463
     32 H7          2.0999    6.1118    4.1688 H         1 <0>         0.1346
     33 H8         -2.1414    3.6058    4.3272 H         1 <0>         0.1446
     34 H9         -2.9700    6.4010    3.3241 H         1 <0>         0.1271
     35 H10        -2.9469    6.4814    5.1141 H         1 <0>         0.1272
     36 H11         0.3710    8.3077    4.0922 H         1 <0>         0.4155
     37 H12         1.0562   -2.9916   -2.8244 H         1 <0>         0.1100
     38 H13        -0.4722   -3.7864   -2.3769 H         1 <0>         0.0924
     39 H14        -0.4980   -2.2387   -3.2554 H         1 <0>         0.1129
     40 H15         0.0524   -3.7240   -0.0796 H         1 <0>         0.4381
@<TRIPOS>BOND
     1    1    2 1
     2    1   26 1
     3    1   27 1
     4    1   28 1
     5    2    7 ar
     6    2    3 ar
     7    3    4 ar
     8    3   29 1
     9    4    5 ar
    10    4   25 1
    11    5    6 ar
    12    5   40 1
    13    6   10 1
    14    6    7 ar
    15    7    8 1
    16    8    9 2
    17    8   11 1
    18    9   10 1
    19    9   30 1
    20   11   12 1
    21   12   13 2
    22   12   14 2
    23   12   15 1
    24   15   20 ar
    25   15   16 ar
    26   16   17 ar
    27   16   31 1
    28   17   18 ar
    29   17   32 1
    30   18   24 1
    31   18   19 ar
    32   19   20 ar
    33   19   21 1
    34   20   33 1
    35   21   22 1
    36   21   34 1
    37   21   35 1
    38   22   23 2
    39   22   24 am
    40   24   36 1
    41   25   37 1
    42   25   38 1
    43   25   39 1
@<TRIPOS>MOLECULE
ZINC35877118
   54    57     0     0     0
SMALL
USER_CHARGES

@<TRIPOS>ATOM
      1 C1         -0.0187    1.5258    0.0104 C.3       1 <0>        -0.1522
      2 C2          0.0021   -0.0041    0.0020 C.3       1 <0>        -0.1402
      3 C3          0.7182   -0.4975   -1.2568 C.3       1 <0>         0.1271
      4 H1          1.7103   -0.0491   -1.3098 H         1 <0>         0.1056
      5 C4          0.8493   -2.0210   -1.2049 C.3       1 <0>        -0.1714
      6 N1         -0.0549   -0.1139   -2.4405 N.am      1 <0>        -0.5614
      7 C5         -1.3151   -0.5150   -2.6429 C.2       1 <0>         0.5371
      8 O1         -1.9537   -1.2226   -1.8938 O.2       1 <0>        -0.4601
      9 C6         -1.8192    0.0520   -3.9509 C.3       1 <0>        -0.1561
     10 H2         -2.7192    0.6548   -3.8297 H         1 <0>         0.1419
     11 C7         -0.6080    0.8724   -4.4759 C.3       1 <0>        -0.1414
     12 H3         -0.8468    1.9245   -4.6311 H         1 <0>         0.1417
     13 C8          0.4397    0.6709   -3.4048 C.2       1 <0>         0.5436
     14 O2          1.5555    1.1446   -3.4187 O.2       1 <0>        -0.4613
     15 C9         -0.1942    0.1662   -5.7720 C.3       1 <0>         0.1279
     16 C10         0.9730   -0.7536   -5.5517 C.ar      1 <0>        -0.1242
     17 C11         1.1797   -1.8448   -4.7375 C.ar      1 <0>        -0.0632
     18 C12         2.3964   -2.5031   -4.7576 C.ar      1 <0>        -0.1311
     19 C13         3.4032   -2.0630   -5.5974 C.ar      1 <0>        -0.0757
     20 C14         3.2007   -0.9707   -6.4148 C.ar      1 <0>        -0.0974
     21 C15         1.9790   -0.3016   -6.4005 C.ar      1 <0>         0.1607
     22 N2          1.5391    0.8108   -7.1212 N.am      1 <0>        -0.6497
     23 C16         0.2733    1.1500   -6.8096 C.2       1 <0>         0.5477
     24 O3         -0.3657    2.0696   -7.2756 O.2       1 <0>        -0.4847
     25 C17         4.3047   -0.4994   -7.3260 C.3       1 <0>        -0.1159
     26 N3         -1.3859   -0.5722   -6.2298 N.3       1 <0>        -0.6178
     27 C18        -2.0053   -1.0990   -4.9629 C.3       1 <0>         0.0963
     28 H4         -1.4918   -1.9957   -4.6161 H         1 <0>         0.1042
     29 C19        -3.4931   -1.3849   -5.1764 C.3       1 <0>        -0.0923
     30 C20        -3.6538   -2.5273   -6.1814 C.3       1 <0>        -0.1437
     31 C21        -4.1320   -1.7837   -3.8446 C.3       1 <0>        -0.1470
     32 H5          1.0039    1.9031    0.0027 H         1 <0>         0.0576
     33 H6         -0.5459    1.8868   -0.8726 H         1 <0>         0.0452
     34 H7         -0.5289    1.8773    0.9072 H         1 <0>         0.0612
     35 H8          0.5293   -0.3651    0.8851 H         1 <0>         0.0835
     36 H9         -1.0205   -0.3814    0.0098 H         1 <0>         0.0823
     37 H10         1.4245   -2.3064   -0.3242 H         1 <0>         0.0776
     38 H11        -0.1428   -2.4694   -1.1520 H         1 <0>         0.0749
     39 H12         1.3594   -2.3725   -2.1017 H         1 <0>         0.0631
     40 H13         0.3918   -2.1866   -4.0826 H         1 <0>         0.1183
     41 H14         2.5597   -3.3585   -4.1188 H         1 <0>         0.1318
     42 H15         4.3530   -2.5769   -5.6129 H         1 <0>         0.1344
     43 H16         2.0823    1.2845   -7.7705 H         1 <0>         0.4183
     44 H17         4.2230   -1.0057   -8.2878 H         1 <0>         0.0743
     45 H18         4.2191    0.5772   -7.4737 H         1 <0>         0.0620
     46 H19         5.2704   -0.7287   -6.8755 H         1 <0>         0.0749
     47 H20        -2.0232    0.0378   -6.7196 H         1 <0>         0.3566
     48 H21        -3.9834   -0.4907   -5.5612 H         1 <0>         0.0772
     49 H22        -3.1635   -3.4215   -5.7966 H         1 <0>         0.0563
     50 H23        -4.7138   -2.7310   -6.3335 H         1 <0>         0.0576
     51 H24        -3.1987   -2.2432   -7.1302 H         1 <0>         0.0642
     52 H25        -5.1919   -1.9874   -3.9966 H         1 <0>         0.0599
     53 H26        -3.6417   -2.6779   -3.4597 H         1 <0>         0.0607
     54 H27        -4.0175   -0.9699   -3.1285 H         1 <0>         0.0609
@<TRIPOS>BOND
     1    1    2 1
     2    1   32 1
     3    1   33 1
     4    1   34 1
     5    2    3 1
     6    2   35 1
     7    2   36 1
     8    3    4 1
     9    3    5 1
    10    3    6 1
    11    5   37 1
    12    5   38 1
    13    5   39 1
    14    6   13 am
    15    6    7 am
    16    7    8 2
    17    7    9 1
    18    9   10 1
    19    9   27 1
    20    9   11 1
    21   11   12 1
    22   11   13 1
    23   11   15 1
    24   13   14 2
    25   15   23 1
    26   15   16 1
    27   15   26 1
    28   16   21 ar
    29   16   17 ar
    30   17   18 ar
    31   17   40 1
    32   18   19 ar
    33   18   41 1
    34   19   20 ar
    35   19   42 1
    36   20   21 ar
    37   20   25 1
    38   21   22 1
    39   22   23 am
    40   22   43 1
    41   23   24 2
    42   25   44 1
    43   25   45 1
    44   25   46 1
    45   26   27 1
    46   26   47 1
    47   27   28 1
    48   27   29 1
    49   29   30 1
    50   29   31 1
    51   29   48 1
    52   30   49 1
    53   30   50 1
    54   30   51 1
    55   31   52 1
    56   31   53 1
    57   31   54 1
@<TRIPOS>MOLECULE
ZINC62447541
   47    50     0     0     0
SMALL
USER_CHARGES

@<TRIPOS>ATOM
      1 C1         -0.0187    1.5258    0.0104 C.3       1 <0>        -0.1533
      2 C2          0.0021   -0.0041    0.0020 C.3       1 <0>        -0.1282
      3 C3          0.7182   -0.4975   -1.2568 C.3       1 <0>         0.1983
      4 H1          1.7102   -0.0488   -1.3092 H         1 <0>         0.1046
      5 C4          0.8488   -1.9990   -1.2039 C.ar      1 <0>        -0.0942
      6 C5          1.7475   -2.5393   -0.2940 C.ar      1 <0>        -0.1067
      7 C6          1.9043   -3.9061   -0.1920 C.ar      1 <0>        -0.1205
      8 C7          1.1591   -4.7438   -1.0011 C.ar      1 <0>        -0.0811
      9 C8          0.2687   -4.2082   -1.9077 C.ar      1 <0>        -0.1220
     10 C9          0.1132   -2.8314   -2.0171 C.ar      1 <0>        -0.0592
     11 C10        -0.8571   -2.3182   -3.0482 C.3       1 <0>        -0.1003
     12 C11        -1.2739   -0.8820   -2.7353 C.3       1 <0>         0.1176
     13 N1         -0.0555   -0.1112   -2.4416 N.pl3     1 <0>        -0.9909
     14 S1          0.4224    1.1438   -3.4106 S.o2      1 <0>         2.6942
     15 O1         -0.7436    1.6103   -4.0755 O.2       1 <0>        -0.9503
     16 O2          1.2319    1.9916   -2.6074 O.2       1 <0>        -0.9425
     17 C12         1.4754    0.4711   -4.6529 C.ar      1 <0>        -0.6715
     18 C13         2.8390    0.3866   -4.4289 C.ar      1 <0>        -0.0084
     19 C14         3.6724   -0.1391   -5.3965 C.ar      1 <0>        -0.1222
     20 C15         3.1411   -0.5841   -6.5975 C.ar      1 <0>         0.1460
     21 C16         1.7658   -0.4989   -6.8234 C.ar      1 <0>         0.0695
     22 C17         0.9363    0.0253   -5.8436 C.ar      1 <0>        -0.0013
     23 N2          1.5342   -1.0152   -8.0961 N.am      1 <0>        -0.6392
     24 H2          0.6701   -1.0872   -8.5309 H         1 <0>         0.4401
     25 C18         2.7141   -1.3970   -8.6202 C.2       1 <0>         0.6865
     26 O3          2.8646   -1.8903   -9.7224 O.2       1 <0>        -0.5430
     27 N3          3.7024   -1.1496   -7.7399 N.am      1 <0>        -0.6404
     28 H3          4.6447   -1.3339   -7.8778 H         1 <0>         0.4404
     29 C19         1.3199   -6.2383   -0.8929 C.3       1 <0>        -0.1171
     30 H4          1.0039    1.9031    0.0027 H         1 <0>         0.0688
     31 H5         -0.5459    1.8868   -0.8726 H         1 <0>         0.0449
     32 H6         -0.5289    1.8773    0.9072 H         1 <0>         0.0589
     33 H7          0.5293   -0.3651    0.8851 H         1 <0>         0.0789
     34 H8         -1.0205   -0.3814    0.0098 H         1 <0>         0.0708
     35 H9          2.3286   -1.8846    0.3385 H         1 <0>         0.1251
     36 H10         2.6065   -4.3200    0.5166 H         1 <0>         0.1232
     37 H11        -0.3128   -4.8642   -2.5384 H         1 <0>         0.1204
     38 H12        -0.3857   -2.3487   -4.0305 H         1 <0>         0.0796
     39 H13        -1.7419   -2.9547   -3.0560 H         1 <0>         0.0886
     40 H14        -1.7851   -0.4506   -3.5959 H         1 <0>         0.1006
     41 H15        -1.9352   -0.8704   -1.8689 H         1 <0>         0.0860
     42 H16         3.2527    0.7336   -3.4936 H         1 <0>         0.1514
     43 H17         4.7357   -0.2031   -5.2183 H         1 <0>         0.1446
     44 H18        -0.1284    0.0887   -6.0131 H         1 <0>         0.1491
     45 H19         0.6178   -6.6268   -0.1552 H         1 <0>         0.0715
     46 H20         1.1197   -6.6964   -1.8615 H         1 <0>         0.0656
     47 H21         2.3385   -6.4727   -0.5837 H         1 <0>         0.0669
@<TRIPOS>BOND
     1    1    2 1
     2    1   30 1
     3    1   31 1
     4    1   32 1
     5    2    3 1
     6    2   33 1
     7    2   34 1
     8    3    4 1
     9    3   13 1
    10    3    5 1
    11    5   10 ar
    12    5    6 ar
    13    6    7 ar
    14    6   35 1
    15    7    8 ar
    16    7   36 1
    17    8    9 ar
    18    8   29 1
    19    9   10 ar
    20    9   37 1
    21   10   11 1
    22   11   12 1
    23   11   38 1
    24   11   39 1
    25   12   13 1
    26   12   40 1
    27   12   41 1
    28   13   14 1
    29   14   15 2
    30   14   16 2
    31   14   17 1
    32   17   22 ar
    33   17   18 ar
    34   18   19 ar
    35   18   42 1
    36   19   20 ar
    37   19   43 1
    38   20   27 1
    39   20   21 ar
    40   21   22 ar
    41   21   23 1
    42   22   44 1
    43   23   24 1
    44   23   25 am
    45   25   26 2
    46   25   27 am
    47   27   28 1
    48   29   45 1
    49   29   46 1
    50   29   47 1
@<TRIPOS>MOLECULE
ZINC03578829
   39    41     0     0     0
SMALL
USER_CHARGES
N-[(5-bromo-2-hydroxy-phenyl)methyleneamino]-2-(1-methylbenzoimidazol-2-yl)-acetamide
@<TRIPOS>ATOM
      1 C1         -3.3231   -6.6970    2.5020 C.3       1 <0>         0.0767
      2 N1         -3.2445   -7.1501    1.1110 N.pl3     1 <0>        -0.4840
      3 C2         -2.9875   -8.4372    0.6830 C.ar      1 <0>         0.0530
      4 C3         -2.7374   -9.6396    1.3304 C.ar      1 <0>        -0.1117
      5 C4         -2.5133  -10.7803    0.5895 C.ar      1 <0>        -0.0987
      6 C5         -2.5355  -10.7338   -0.7973 C.ar      1 <0>        -0.1286
      7 C6         -2.7796   -9.5597   -1.4514 C.ar      1 <0>        -0.0612
      8 C7         -3.0099   -8.3907   -0.7211 C.ar      1 <0>         0.0476
      9 N2         -3.2785   -7.1063   -1.0700 N.2       1 <0>        -0.4763
     10 C8         -3.4108   -6.3804    0.0017 C.2       1 <0>         0.2945
     11 C9         -3.7109   -4.9037    0.0126 C.3       1 <0>        -0.0581
     12 C10        -2.4187   -4.1284    0.0039 C.2       1 <0>         0.5335
     13 O1         -1.3581   -4.7172   -0.0098 O.2       1 <0>        -0.4786
     14 N3         -2.4413   -2.7808    0.0114 N.am      1 <0>        -0.5862
     15 N4         -1.2399   -2.0600    0.0033 N.2       1 <0>        -0.1987
     16 C11        -1.2617   -0.7623    0.0105 C.2       1 <0>         0.1024
     17 C12         0.0021   -0.0041    0.0020 C.ar      1 <0>        -0.0803
     18 C13        -0.0169    1.3925    0.0097 C.ar      1 <0>        -0.0457
     19 C14         1.1699    2.0963    0.0021 C.ar      1 <0>        -0.1082
     20 C15         2.3806    1.4231   -0.0135 C.ar      1 <0>        -0.0570
     21 C16         2.4118    0.0414   -0.0207 C.ar      1 <0>        -0.1459
     22 C17         1.2294   -0.6804   -0.0133 C.ar      1 <0>         0.1645
     23 O2          1.2596   -2.0382   -0.0205 O.3       1 <0>        -0.4706
     24 Br1         1.1438    3.9870    0.0119 Br        1 <0>        -0.0399
     25 H1         -4.3497   -6.7890    2.8566 H         1 <0>         0.0782
     26 H2         -2.6685   -7.3101    3.1214 H         1 <0>         0.0878
     27 H3         -3.0097   -5.6548    2.5629 H         1 <0>         0.0836
     28 H4         -2.7187   -9.6812    2.4094 H         1 <0>         0.1218
     29 H5         -2.3188  -11.7164    1.0917 H         1 <0>         0.1311
     30 H6         -2.3583  -11.6352   -1.3653 H         1 <0>         0.1306
     31 H7         -2.7942   -9.5348   -2.5310 H         1 <0>         0.1298
     32 H8         -4.2780   -4.6548    0.9096 H         1 <0>         0.1192
     33 H9         -4.2957   -4.6452   -0.8702 H         1 <0>         0.1370
     34 H10        -3.2893   -2.3100    0.0223 H         1 <0>         0.3872
     35 H11        -2.2058   -0.2381    0.0227 H         1 <0>         0.1253
     36 H12        -0.9589    1.9207    0.0170 H         1 <0>         0.1430
     37 H13         3.3052    1.9811   -0.0197 H         1 <0>         0.1408
     38 H14         3.3595   -0.4764   -0.0326 H         1 <0>         0.1437
     39 H15         1.2597   -2.4270   -0.9059 H         1 <0>         0.3982
@<TRIPOS>BOND
     1    1    2 1
     2    1   25 1
     3    1   26 1
     4    1   27 1
     5    2   10 1
     6    2    3 1
     7    3    8 ar
     8    3    4 ar
     9    4    5 ar
    10    4   28 1
    11    5    6 ar
    12    5   29 1
    13    6    7 ar
    14    6   30 1
    15    7    8 ar
    16    7   31 1
    17    8    9 1
    18    9   10 2
    19   10   11 1
    20   11   12 1
    21   11   32 1
    22   11   33 1
    23   12   13 2
    24   12   14 am
    25   14   15 1
    26   14   34 1
    27   15   16 2
    28   16   17 1
    29   16   35 1
    30   17   22 ar
    31   17   18 ar
    32   18   19 ar
    33   18   36 1
    34   19   20 ar
    35   19   24 1
    36   20   21 ar
    37   20   37 1
    38   21   22 ar
    39   21   38 1
    40   22   23 1
    41   23   39 1
@<TRIPOS>MOLECULE
ZINC15735110
   50    52     0     0     0
SMALL
USER_CHARGES
N-[5-(dimethylsulfamoyl)-2-methyl-phenyl]-2,3-dimethyl-1H-indole-5-carboxamide
@<TRIPOS>ATOM
      1 C1         -1.2547    1.1893    0.1793 C.3       1 <0>        -0.1259
      2 C2         -0.5797   -0.1547    0.0833 C.ar      1 <0>        -0.0554
      3 C3         -0.5750   -0.8419   -1.1149 C.ar      1 <0>        -0.1221
      4 C4          0.0482   -2.0729   -1.2051 C.ar      1 <0>        -0.0321
      5 C5          0.6596   -2.6249   -0.0941 C.ar      1 <0>        -0.6664
      6 C6          0.6539   -1.9454    1.1080 C.ar      1 <0>        -0.0176
      7 C7          0.0332   -0.7062    1.2007 C.ar      1 <0>         0.1259
      8 N1          0.0261   -0.0152    2.4165 N.am      1 <0>        -0.6699
      9 C8         -0.0554   -0.6949    3.5775 C.2       1 <0>         0.5675
     10 O1         -0.0399   -1.9107    3.5725 O.2       1 <0>        -0.5190
     11 C9         -0.1635    0.0367    4.8551 C.ar      1 <0>        -0.1740
     12 C10        -0.1755    1.4388    4.8607 C.ar      1 <0>        -0.0688
     13 C11        -0.2790    2.1286    6.0319 C.ar      1 <0>        -0.1318
     14 C12        -0.3652    1.4453    7.2436 C.ar      1 <0>         0.1248
     15 C13        -0.3487    0.0367    7.2519 C.ar      1 <0>        -0.1148
     16 C14        -0.2476   -0.6657    6.0536 C.ar      1 <0>         0.0100
     17 C15        -0.4531   -0.3611    8.6588 C.2       1 <0>        -0.1582
     18 C16        -0.5228    0.7686    9.3798 C.2       1 <0>         0.0744
     19 N2         -0.4716    1.8561    8.5504 N.pl3     1 <0>        -0.5862
     20 H1         -0.5052    2.7805    8.8422 H         1 <0>         0.4174
     21 C17        -0.6401    0.8305   10.8809 C.3       1 <0>        -0.0953
     22 C18        -0.4780   -1.7698    9.1935 C.3       1 <0>        -0.0817
     23 S1          1.4471   -4.1967   -0.2128 S.o2      1 <0>         2.6922
     24 O2          1.7863   -4.3786   -1.5807 O.2       1 <0>        -0.9532
     25 O3          2.4162   -4.2448    0.8253 O.2       1 <0>        -0.9509
     26 N3          0.3085   -5.3434    0.1490 N.pl3     1 <0>        -1.0034
     27 C19        -0.5161   -5.9188   -0.9165 C.3       1 <0>         0.0918
     28 C20         0.1257   -5.7825    1.5347 C.3       1 <0>         0.0849
     29 H2         -0.5355    1.9745   -0.0536 H         1 <0>         0.0809
     30 H3         -2.0816    1.2320   -0.5295 H         1 <0>         0.0795
     31 H4         -1.6351    1.3333    1.1906 H         1 <0>         0.0700
     32 H5         -1.0553   -0.4156   -1.9832 H         1 <0>         0.1383
     33 H6          0.0544   -2.6062   -2.1442 H         1 <0>         0.1416
     34 H7          1.1312   -2.3772    1.9753 H         1 <0>         0.1578
     35 H8          0.0797    0.9533    2.4243 H         1 <0>         0.4117
     36 H9         -0.1054    1.9777    3.9274 H         1 <0>         0.1263
     37 H10        -0.2912    3.2084    6.0211 H         1 <0>         0.1280
     38 H11        -0.2342   -1.7456    6.0544 H         1 <0>         0.1395
     39 H12         0.3562    0.8579   11.3224 H         1 <0>         0.0799
     40 H13        -1.1885    1.7284   11.1658 H         1 <0>         0.0693
     41 H14        -1.1727   -0.0499   11.2404 H         1 <0>         0.0876
     42 H15         0.5406   -2.0974    9.4018 H         1 <0>         0.0673
     43 H16        -1.0642   -1.7995   10.1119 H         1 <0>         0.0657
     44 H17        -0.9282   -2.4314    8.4535 H         1 <0>         0.0662
     45 H18        -0.0211   -6.8008   -1.3228 H         1 <0>         0.0628
     46 H19        -1.4877   -6.2016   -0.5115 H         1 <0>         0.0751
     47 H20        -0.6529   -5.1820   -1.7081 H         1 <0>         0.0714
     48 H21         0.8222   -5.2475    2.1802 H         1 <0>         0.0878
     49 H22        -0.8964   -5.5730    1.8504 H         1 <0>         0.0633
     50 H23         0.3152   -6.8536    1.6044 H         1 <0>         0.0677
@<TRIPOS>BOND
     1    1    2 1
     2    1   29 1
     3    1   30 1
     4    1   31 1
     5    2    7 ar
     6    2    3 ar
     7    3    4 ar
     8    3   32 1
     9    4    5 ar
    10    4   33 1
    11    5    6 ar
    12    5   23 1
    13    6    7 ar
    14    6   34 1
    15    7    8 1
    16    8    9 am
    17    8   35 1
    18    9   10 2
    19    9   11 1
    20   11   16 ar
    21   11   12 ar
    22   12   13 ar
    23   12   36 1
    24   13   14 ar
    25   13   37 1
    26   14   19 1
    27   14   15 ar
    28   15   16 ar
    29   15   17 1
    30   16   38 1
    31   17   18 2
    32   17   22 1
    33   18   19 1
    34   18   21 1
    35   19   20 1
    36   21   39 1
    37   21   40 1
    38   21   41 1
    39   22   42 1
    40   22   43 1
    41   22   44 1
    42   23   24 2
    43   23   25 2
    44   23   26 1
    45   26   27 1
    46   26   28 1
    47   27   45 1
    48   27   46 1
    49   27   47 1
    50   28   48 1
    51   28   49 1
    52   28   50 1
@<TRIPOS>MOLECULE
ZINC38714037
   52    54     0     0     0
SMALL
USER_CHARGES

@<TRIPOS>ATOM
      1 C1          0.6955    1.9473   -0.5144 C.3       1 <0>        -0.1264
      2 C2          0.5363    0.4528   -0.4037 C.ar      1 <0>        -0.0269
      3 C3          0.4676   -0.3215   -1.5468 C.ar      1 <0>        -0.1419
      4 C4          0.3216   -1.6924   -1.4452 C.ar      1 <0>        -0.0157
      5 C5          0.2447   -2.2890   -0.2006 C.ar      1 <0>        -0.6837
      6 C6          0.3143   -1.5147    0.9425 C.ar      1 <0>        -0.0142
      7 C7          0.4646   -0.1443    0.8410 C.ar      1 <0>        -0.1413
      8 S1          0.0574   -4.0362   -0.0712 S.o2      1 <0>         2.6944
      9 O1         -0.5370   -4.2883    1.1946 O.2       1 <0>        -0.9528
     10 O2         -0.5299   -4.4730   -1.2892 O.2       1 <0>        -0.9513
     11 N1          1.5784   -4.6891   -0.0183 N.pl3     1 <0>        -0.9973
     12 C8          2.2877   -5.0785   -1.2483 C.3       1 <0>         0.1185
     13 C9          3.5253   -4.1920   -1.3773 C.3       1 <0>        -0.0984
     14 C10         4.2808   -4.1328   -0.0755 C.ar      1 <0>        -0.0822
     15 C11         5.6146   -3.7430   -0.1231 C.ar      1 <0>        -0.0981
     16 C12         6.3637   -3.6575    1.0301 C.ar      1 <0>        -0.1150
     17 C13         5.7819   -3.9620    2.2540 C.ar      1 <0>         0.1686
     18 C14         4.4535   -4.3539    2.3012 C.ar      1 <0>        -0.1445
     19 C15         3.7052   -4.4439    1.1365 C.ar      1 <0>        -0.0744
     20 C16         2.2754   -4.8969    1.2554 C.3       1 <0>         0.1668
     21 N2          6.5323   -3.8733    3.4320 N.am      1 <0>        -0.6872
     22 C17         7.4958   -2.9381    3.5484 C.2       1 <0>         0.7038
     23 O3          7.6488   -2.1105    2.6710 O.2       1 <0>        -0.5703
     24 N3          8.2896   -2.9203    4.6375 N.am      1 <0>        -0.7374
     25 C18         9.3369   -1.9038    4.7640 C.3       1 <0>         0.1536
     26 C19         8.7393   -0.6274    5.3595 C.3       1 <0>        -0.1661
     27 C20        10.4449   -2.4245    5.6816 C.3       1 <0>        -0.1618
     28 H1          1.7558    2.1992   -0.5342 H         1 <0>         0.0801
     29 H2          0.2219    2.2961   -1.4321 H         1 <0>         0.0736
     30 H3          0.2239    2.4274    0.3430 H         1 <0>         0.0732
     31 H4          0.5277    0.1446   -2.5192 H         1 <0>         0.1331
     32 H5          0.2672   -2.2973   -2.3383 H         1 <0>         0.1394
     33 H6          0.2539   -1.9808    1.9149 H         1 <0>         0.1379
     34 H7          0.5228    0.4602    1.7341 H         1 <0>         0.1323
     35 H8          2.5882   -6.1244   -1.1853 H         1 <0>         0.0857
     36 H9          1.6377   -4.9322   -2.1109 H         1 <0>         0.1005
     37 H10         4.1769   -4.5966   -2.1518 H         1 <0>         0.0893
     38 H11         3.2172   -3.1851   -1.6591 H         1 <0>         0.0795
     39 H12         6.0682   -3.5051   -1.0739 H         1 <0>         0.1255
     40 H13         7.3992   -3.3545    0.9825 H         1 <0>         0.1360
     41 H14         3.9976   -4.5908    3.2512 H         1 <0>         0.1277
     42 H15         1.7782   -4.3246    2.0386 H         1 <0>         0.0976
     43 H16         2.2540   -5.9561    1.5120 H         1 <0>         0.0903
     44 H17         6.3590   -4.4849    4.1647 H         1 <0>         0.4069
     45 H18         8.1675   -3.5806    5.3375 H         1 <0>         0.3971
     46 H19         9.7524   -1.6858    3.7802 H         1 <0>         0.0901
     47 H20         7.9500   -0.2564    4.7058 H         1 <0>         0.0610
     48 H21         8.3238   -0.8454    6.3434 H         1 <0>         0.0563
     49 H22         9.5185    0.1290    5.4537 H         1 <0>         0.0676
     50 H23        10.8705   -3.3339    5.2574 H         1 <0>         0.0625
     51 H24        11.2241   -1.6682    5.7758 H         1 <0>         0.0761
     52 H25        10.0293   -2.6425    6.6655 H         1 <0>         0.0615
@<TRIPOS>BOND
     1    1    2 1
     2    1   28 1
     3    1   29 1
     4    1   30 1
     5    2    7 ar
     6    2    3 ar
     7    3    4 ar
     8    3   31 1
     9    4    5 ar
    10    4   32 1
    11    5    6 ar
    12    5    8 1
    13    6    7 ar
    14    6   33 1
    15    7   34 1
    16    8    9 2
    17    8   10 2
    18    8   11 1
    19   11   20 1
    20   11   12 1
    21   12   13 1
    22   12   35 1
    23   12   36 1
    24   13   14 1
    25   13   37 1
    26   13   38 1
    27   14   19 ar
    28   14   15 ar
    29   15   16 ar
    30   15   39 1
    31   16   17 ar
    32   16   40 1
    33   17   18 ar
    34   17   21 1
    35   18   19 ar
    36   18   41 1
    37   19   20 1
    38   20   42 1
    39   20   43 1
    40   21   22 am
    41   21   44 1
    42   22   23 2
    43   22   24 am
    44   24   25 1
    45   24   45 1
    46   25   26 1
    47   25   27 1
    48   25   46 1
    49   26   47 1
    50   26   48 1
    51   26   49 1
    52   27   50 1
    53   27   51 1
    54   27   52 1
@<TRIPOS>MOLECULE
ZINC54517065
   37    40     0     0     0
SMALL
USER_CHARGES

@<TRIPOS>ATOM
      1 C1         -1.5962    1.3844    0.6687 C.3       1 <0>        -0.1151
      2 C2         -1.4239   -0.1110    0.5967 C.2       1 <0>        -0.0923
      3 C3         -2.0795   -0.8255   -0.3298 C.2       1 <0>        -0.1374
      4 S1         -1.5566   -2.5001   -0.0113 S.3       1 <0>         0.1189
      5 C4         -0.4717   -2.1949    1.3576 C.ar      1 <0>         0.1410
      6 C5         -0.5414   -0.7944    1.5261 C.ar      1 <0>        -0.2236
      7 C6          0.2554   -0.2668    2.5789 C.ar      1 <0>         0.4918
      8 N1          0.9910   -1.0915    3.3068 N.ar      1 <0>        -0.5626
      9 C7          1.0115   -2.3941    3.0890 C.ar      1 <0>         0.3845
     10 N2          0.2864   -2.9436    2.1339 N.ar      1 <0>        -0.4920
     11 C8          1.8734   -3.2732    3.9582 C.3       1 <0>        -0.0489
     12 S2          0.9155   -3.8283    5.3951 S.3       1 <0>         0.1077
     13 C9          2.0468   -4.8315    6.2998 C.2       1 <0>         0.1379
     14 N3          3.2920   -5.0853    5.9728 N.2       1 <0>        -0.2796
     15 N4          3.8208   -5.8526    6.8597 N.2       1 <0>        -0.2511
     16 C10         2.9333   -6.1201    7.7900 C.2       1 <0>         0.2574
     17 O1          1.7932   -5.4738    7.4570 O.3       1 <0>        -0.1969
     18 C11         3.1426   -6.9616    8.9774 C.2       1 <0>        -0.1258
     19 C12         4.2810   -7.6359    9.3782 C.2       1 <0>        -0.0756
     20 C13         4.2321   -8.3682   10.5427 C.2       1 <0>        -0.1663
     21 C14         3.0773   -8.4057   11.2560 C.2       1 <0>        -0.1464
     22 S3          1.9952   -7.3729   10.2820 S.3       1 <0>         0.1165
     23 N5          0.2620    1.0918    2.8388 N.pl3     1 <0>        -0.8387
     24 C15        -3.0320   -0.3309   -1.3876 C.3       1 <0>        -0.0729
     25 H1         -0.7788    1.8704    0.1360 H         1 <0>         0.0754
     26 H2         -2.5451    1.6633    0.2105 H         1 <0>         0.0789
     27 H3         -1.5893    1.7012    1.7116 H         1 <0>         0.0744
     28 H4          2.2034   -4.1395    3.3848 H         1 <0>         0.1335
     29 H5          2.7425   -2.7091    4.2968 H         1 <0>         0.1334
     30 H6          5.1867   -7.5894    8.7917 H         1 <0>         0.1512
     31 H7          5.1029   -8.9075   10.8851 H         1 <0>         0.1492
     32 H8          2.8681   -8.9247   12.1797 H         1 <0>         0.1976
     33 H9          0.1103    1.7241    2.1189 H         1 <0>         0.4154
     34 H10         0.4182    1.4124    3.7409 H         1 <0>         0.4111
     35 H11        -2.4756   -0.0893   -2.2932 H         1 <0>         0.0846
     36 H12        -3.7652   -1.1069   -1.6078 H         1 <0>         0.0790
     37 H13        -3.5442    0.5611   -1.0270 H         1 <0>         0.0859
@<TRIPOS>BOND
     1    1    2 1
     2    1   25 1
     3    1   26 1
     4    1   27 1
     5    2    6 1
     6    2    3 2
     7    3    4 1
     8    3   24 1
     9    4    5 1
    10    5   10 ar
    11    5    6 ar
    12    6    7 ar
    13    7    8 ar
    14    7   23 1
    15    8    9 ar
    16    9   10 ar
    17    9   11 1
    18   11   12 1
    19   11   28 1
    20   11   29 1
    21   12   13 1
    22   13   17 1
    23   13   14 2
    24   14   15 1
    25   15   16 2
    26   16   17 1
    27   16   18 1
    28   18   22 1
    29   18   19 2
    30   19   20 1
    31   19   30 1
    32   20   21 2
    33   20   31 1
    34   21   22 1
    35   21   32 1
    36   23   33 1
    37   23   34 1
    38   24   35 1
    39   24   36 1
    40   24   37 1
@<TRIPOS>MOLECULE
ZINC04146685
   47    50     0     0     0
SMALL
USER_CHARGES

@<TRIPOS>ATOM
      1 C1         -2.8509    0.9468   -1.8998 C.3       1 <0>        -0.1491
      2 C2         -2.4784   -0.5371   -1.8877 C.3       1 <0>        -0.0909
      3 C3         -1.0926   -0.7202   -2.5098 C.3       1 <0>        -0.1523
      4 C4         -2.4612   -1.0468   -0.4452 C.3       1 <0>        -0.0806
      5 C5         -2.2154   -2.5336   -0.4407 C.ar      1 <0>        -0.0628
      6 C6         -3.2848   -3.4090   -0.4994 C.ar      1 <0>        -0.1175
      7 C7         -3.0654   -4.7717   -0.4960 C.ar      1 <0>        -0.0817
      8 C8         -1.7639   -5.2650   -0.4333 C.ar      1 <0>        -0.0260
      9 C9         -0.6905   -4.3787   -0.3744 C.ar      1 <0>        -0.0881
     10 C10        -0.9210   -3.0179   -0.3836 C.ar      1 <0>        -0.1143
     11 C11        -1.5218   -6.7293   -0.4289 C.2       1 <0>         0.1667
     12 C12        -0.5963   -7.4076    0.3697 C.2       1 <0>        -0.2594
     13 C13        -0.6798   -8.7379    0.0763 C.2       1 <0>         0.2852
     14 N1         -1.6265   -8.8902   -0.8730 N.pl3     1 <0>        -0.4442
     15 H1         -1.9021   -9.7292   -1.2741 H         1 <0>         0.4494
     16 N2         -2.1462   -7.6216   -1.1739 N.2       1 <0>        -0.2481
     17 O1          0.0953   -9.6715    0.6825 O.3       1 <0>        -0.2275
     18 C14         1.1546   -9.2371    1.3950 C.2       1 <0>         0.4499
     19 C15         1.3400   -7.9480    1.7566 C.2       1 <0>        -0.2675
     20 C16         0.3611   -6.8586    1.3957 C.3       1 <0>         0.1655
     21 H2          0.8973   -6.0059    0.9792 H         1 <0>         0.1173
     22 C17        -0.4002   -6.4310    2.6240 C.2       1 <0>         0.0004
     23 C18        -0.3518   -5.2144    3.1956 C.2       1 <0>        -0.1980
     24 C19        -1.2148   -5.2530    4.3148 C.2       1 <0>        -0.2101
     25 C20        -1.7390   -6.4910    4.3602 C.2       1 <0>        -0.0445
     26 O2         -1.2464   -7.1984    3.3303 O.3       1 <0>        -0.1684
     27 C21         2.5078   -7.6041    2.5105 C.1       1 <0>         0.2699
     28 N3          3.4343   -7.3313    3.1086 N.1       1 <0>        -0.4330
     29 N4          2.0997  -10.1574    1.7748 N.pl3     1 <0>        -0.8278
     30 H3         -2.8632    1.3100   -2.9275 H         1 <0>         0.0556
     31 H4         -3.8381    1.0772   -1.4566 H         1 <0>         0.0546
     32 H5         -2.1168    1.5104   -1.3240 H         1 <0>         0.0552
     33 H6         -3.2125   -1.1007   -2.4634 H         1 <0>         0.0711
     34 H7         -1.1049   -0.3570   -3.5375 H         1 <0>         0.0531
     35 H8         -0.3585   -0.1565   -1.9340 H         1 <0>         0.0542
     36 H9         -0.8273   -1.7773   -2.5012 H         1 <0>         0.0601
     37 H10        -1.6668   -0.5456    0.1079 H         1 <0>         0.0742
     38 H11        -3.4211   -0.8358    0.0262 H         1 <0>         0.0736
     39 H12        -4.2932   -3.0255   -0.5476 H         1 <0>         0.1251
     40 H13        -3.9010   -5.4543   -0.5415 H         1 <0>         0.1254
     41 H14         0.3204   -4.7558   -0.3253 H         1 <0>         0.1258
     42 H15        -0.0895   -2.3300   -0.3424 H         1 <0>         0.1269
     43 H16         0.2344   -4.3702    2.8637 H         1 <0>         0.1454
     44 H17        -1.4146   -4.4439    5.0018 H         1 <0>         0.1461
     45 H18        -2.4401   -6.8534    5.0974 H         1 <0>         0.1993
     46 H19         1.9943  -11.0900    1.5299 H         1 <0>         0.4127
     47 H20         2.8728   -9.8750    2.2880 H         1 <0>         0.4290
@<TRIPOS>BOND
     1    1    2 1
     2    1   30 1
     3    1   31 1
     4    1   32 1
     5    2    3 1
     6    2    4 1
     7    2   33 1
     8    3   34 1
     9    3   35 1
    10    3   36 1
    11    4    5 1
    12    4   37 1
    13    4   38 1
    14    5   10 ar
    15    5    6 ar
    16    6    7 ar
    17    6   39 1
    18    7    8 ar
    19    7   40 1
    20    8    9 ar
    21    8   11 1
    22    9   10 ar
    23    9   41 1
    24   10   42 1
    25   11   16 2
    26   11   12 1
    27   12   20 1
    28   12   13 2
    29   13   14 1
    30   13   17 1
    31   14   15 1
    32   14   16 1
    33   17   18 1
    34   18   19 2
    35   18   29 1
    36   19   20 1
    37   19   27 1
    38   20   21 1
    39   20   22 1
    40   22   26 1
    41   22   23 2
    42   23   24 1
    43   23   43 1
    44   24   25 2
    45   24   44 1
    46   25   26 1
    47   25   45 1
    48   27   28 3
    49   29   46 1
    50   29   47 1
@<TRIPOS>MOLECULE
ZINC67148640
   45    47     0     0     0
SMALL
USER_CHARGES

@<TRIPOS>ATOM
      1 C1         -0.0184    1.5028    0.0103 C.3       1 <0>        -0.1255
      2 C2          0.0021   -0.0041    0.0020 C.2       1 <0>         0.0278
      3 C3          0.0224   -0.6845    1.1661 C.2       1 <0>        -0.2071
      4 C4          0.0422   -2.1482    1.1581 C.2       1 <0>         0.5509
      5 O1          0.0404   -2.7510    0.1008 O.2       1 <0>        -0.4953
      6 N1          0.0625   -2.8283    2.3215 N.am      1 <0>        -0.5038
      7 N2          0.0815   -4.2291    2.3138 N.am      1 <0>        -0.3728
      8 C5         -0.9837   -5.0023    2.6032 C.2       1 <0>         0.5382
      9 O2         -2.0969   -4.6310    2.9078 O.2       1 <0>        -0.4463
     10 C6         -0.5007   -6.4327    2.4678 C.3       1 <0>         0.1801
     11 N3          0.9133   -6.2856    2.0815 N.am      1 <0>        -0.7107
     12 C7          1.1578   -4.9645    2.0126 C.2       1 <0>         0.7097
     13 O3          2.2368   -4.4919    1.7134 O.2       1 <0>        -0.5181
     14 C8         -0.6200   -7.1699    3.8032 C.3       1 <0>        -0.1457
     15 C9         -1.2720   -7.1532    1.3921 C.ar      1 <0>        -0.1003
     16 C10        -2.5796   -6.7956    1.1219 C.ar      1 <0>        -0.1072
     17 C11        -3.2871   -7.4565    0.1352 C.ar      1 <0>        -0.1132
     18 C12        -2.6868   -8.4746   -0.5816 C.ar      1 <0>        -0.1068
     19 C13        -1.3788   -8.8316   -0.3121 C.ar      1 <0>        -0.1168
     20 C14        -0.6699   -8.1678    0.6717 C.ar      1 <0>        -0.0941
     21 C15        -0.0001   -0.7329   -1.2763 C.ar      1 <0>        -0.0402
     22 C16        -1.1654   -1.3640   -1.7239 C.ar      1 <0>        -0.0659
     23 C17        -1.1597   -2.0444   -2.9226 C.ar      1 <0>        -0.1119
     24 C18        -0.0046   -2.1050   -3.6837 C.ar      1 <0>        -0.1031
     25 C19         1.1525   -1.4840   -3.2492 C.ar      1 <0>        -0.1102
     26 C20         1.1621   -0.7934   -2.0536 C.ar      1 <0>        -0.0176
     27 Cl1         2.6131   -0.0085   -1.5130 Cl        1 <0>        -0.0686
     28 H1          1.0042    1.8801    0.0026 H         1 <0>         0.0891
     29 H2         -0.5455    1.8639   -0.8728 H         1 <0>         0.0785
     30 H3         -0.5286    1.8543    0.9071 H         1 <0>         0.0813
     31 H4          0.0240   -0.1496    2.1043 H         1 <0>         0.1445
     32 H5          0.0639   -2.3478    3.1641 H         1 <0>         0.4270
     33 H6          1.5441   -7.0016    1.9079 H         1 <0>         0.4439
     34 H7         -1.6640   -7.1886    4.1158 H         1 <0>         0.0897
     35 H8         -0.2568   -8.1911    3.6882 H         1 <0>         0.0877
     36 H9         -0.0242   -6.6550    4.5569 H         1 <0>         0.0752
     37 H10        -3.0487   -6.0002    1.6820 H         1 <0>         0.1378
     38 H11        -4.3090   -7.1776   -0.0754 H         1 <0>         0.1281
     39 H12        -3.2397   -8.9914   -1.3521 H         1 <0>         0.1270
     40 H13        -0.9098   -9.6272   -0.8719 H         1 <0>         0.1286
     41 H14         0.3532   -8.4442    0.8797 H         1 <0>         0.1229
     42 H15        -2.0673   -1.3186   -1.1315 H         1 <0>         0.1243
     43 H16        -2.0589   -2.5320   -3.2691 H         1 <0>         0.1268
     44 H17        -0.0070   -2.6404   -4.6216 H         1 <0>         0.1296
     45 H18         2.0495   -1.5362   -3.8485 H         1 <0>         0.1323
@<TRIPOS>BOND
     1    1    2 1
     2    1   28 1
     3    1   29 1
     4    1   30 1
     5    2    3 2
     6    2   21 1
     7    3    4 1
     8    3   31 1
     9    4    5 2
    10    4    6 am
    11    6    7 1
    12    6   32 1
    13    7   12 am
    14    7    8 am
    15    8    9 2
    16    8   10 1
    17   10   11 1
    18   10   14 1
    19   10   15 1
    20   11   12 am
    21   11   33 1
    22   12   13 2
    23   14   34 1
    24   14   35 1
    25   14   36 1
    26   15   20 ar
    27   15   16 ar
    28   16   17 ar
    29   16   37 1
    30   17   18 ar
    31   17   38 1
    32   18   19 ar
    33   18   39 1
    34   19   20 ar
    35   19   40 1
    36   20   41 1
    37   21   26 ar
    38   21   22 ar
    39   22   23 ar
    40   22   42 1
    41   23   24 ar
    42   23   43 1
    43   24   25 ar
    44   24   44 1
    45   25   26 ar
    46   25   45 1
    47   26   27 1
@<TRIPOS>MOLECULE
ZINC08448734
   52    55     0     0     0
SMALL
USER_CHARGES
N-(1-adamantylcarbamoyl)-2-(4-cyanophenoxy)-propanamide
@<TRIPOS>ATOM
      1 C1         -0.2597    1.4221    0.0389 C.3       1 <0>        -0.1808
      2 C2         -0.8679    1.6878    1.4174 C.3       1 <0>         0.0683
      3 H1         -0.9393    2.7629    1.5820 H         1 <0>         0.1088
      4 C3         -2.2437    1.0767    1.4857 C.2       1 <0>         0.5207
      5 O1         -2.4643    0.1641    2.2528 O.2       1 <0>        -0.4358
      6 N1         -3.2290    1.5446    0.6940 N.am      1 <0>        -0.6888
      7 C4         -4.4595    0.9980    0.7551 C.2       1 <0>         0.6962
      8 O2         -4.6806    0.0832    1.5241 O.2       1 <0>        -0.5182
      9 N2         -5.4447    1.4659   -0.0366 N.am      1 <0>        -0.7310
     10 C5         -6.7822    0.8719    0.0298 C.3       1 <0>         0.1997
     11 C6         -6.6982   -0.6143   -0.3238 C.3       1 <0>        -0.1241
     12 C7         -8.0951   -1.2348   -0.2545 C.3       1 <0>        -0.0823
     13 C8         -9.0180   -0.5256   -1.2476 C.3       1 <0>        -0.1118
     14 C9         -9.1019    0.9606   -0.8940 C.3       1 <0>        -0.0801
     15 C10        -7.7051    1.5810   -0.9633 C.3       1 <0>        -0.1135
     16 C11        -9.6598    1.1172    0.5221 C.3       1 <0>        -0.1119
     17 C12        -8.7369    0.4080    1.5152 C.3       1 <0>        -0.0823
     18 C13        -8.6530   -1.0782    1.1615 C.3       1 <0>        -0.1106
     19 C14        -7.3401    1.0284    1.4458 C.3       1 <0>        -0.1242
     20 O3         -0.0377    1.1059    2.4245 O.3       1 <0>        -0.2784
     21 C15         1.0130    1.8465    2.8608 C.ar      1 <0>         0.1600
     22 C16         1.7886    1.3919    3.9205 C.ar      1 <0>        -0.1461
     23 C17         2.8590    2.1375    4.3627 C.ar      1 <0>        -0.0267
     24 C18         3.1576    3.3583    3.7514 C.ar      1 <0>        -0.0670
     25 C19         2.3716    3.8144    2.6898 C.ar      1 <0>        -0.0260
     26 C20         1.3065    3.0598    2.2502 C.ar      1 <0>        -0.2159
     27 C21         4.2657    4.1398    4.2120 C.1       1 <0>         0.2538
     28 N3          5.1447    4.7597    4.5774 N.1       1 <0>        -0.4163
     29 H2         -0.1883    0.3470   -0.1257 H         1 <0>         0.0807
     30 H3          0.7354    1.8641   -0.0105 H         1 <0>         0.0846
     31 H4         -0.8930    1.8660   -0.7293 H         1 <0>         0.0818
     32 H5         -3.0525    2.2747    0.0803 H         1 <0>         0.4090
     33 H6         -5.2682    2.1960   -0.6504 H         1 <0>         0.3971
     34 H7         -6.3008   -0.7259   -1.3326 H         1 <0>         0.0600
     35 H8         -6.0407   -1.1196    0.3836 H         1 <0>         0.0871
     36 H9         -8.0353   -2.2936   -0.5064 H         1 <0>         0.0734
     37 H10       -10.0131   -0.9676   -1.1982 H         1 <0>         0.0658
     38 H11        -8.6205   -0.6371   -2.2564 H         1 <0>         0.0627
     39 H12        -9.7594    1.4658   -1.6014 H         1 <0>         0.0763
     40 H13        -7.7649    2.6398   -0.7114 H         1 <0>         0.0695
     41 H14        -7.3077    1.4695   -1.9721 H         1 <0>         0.0696
     42 H15        -9.7196    2.1760    0.7740 H         1 <0>         0.0627
     43 H16       -10.6550    0.6752    0.5715 H         1 <0>         0.0658
     44 H17        -9.1344    0.5196    2.5240 H         1 <0>         0.0733
     45 H18        -9.6481   -1.5202    1.2109 H         1 <0>         0.0636
     46 H19        -7.9955   -1.5834    1.8690 H         1 <0>         0.0660
     47 H20        -6.6826    0.5232    2.1533 H         1 <0>         0.0871
     48 H21        -7.3999    2.0872    1.6977 H         1 <0>         0.0600
     49 H22         1.5542    0.4506    4.3954 H         1 <0>         0.1462
     50 H23         3.4641    1.7812    5.1832 H         1 <0>         0.1430
     51 H24         2.5992    4.7571    2.2144 H         1 <0>         0.1380
     52 H25         0.6987    3.4114    1.4296 H         1 <0>         0.1408
@<TRIPOS>BOND
     1    1    2 1
     2    1   29 1
     3    1   30 1
     4    1   31 1
     5    2    3 1
     6    2    4 1
     7    2   20 1
     8    4    5 2
     9    4    6 am
    10    6    7 am
    11    6   32 1
    12    7    8 2
    13    7    9 am
    14    9   10 1
    15    9   33 1
    16   10   15 1
    17   10   19 1
    18   10   11 1
    19   11   12 1
    20   11   34 1
    21   11   35 1
    22   12   18 1
    23   12   13 1
    24   12   36 1
    25   13   14 1
    26   13   37 1
    27   13   38 1
    28   14   15 1
    29   14   16 1
    30   14   39 1
    31   15   40 1
    32   15   41 1
    33   16   17 1
    34   16   42 1
    35   16   43 1
    36   17   18 1
    37   17   19 1
    38   17   44 1
    39   18   45 1
    40   18   46 1
    41   19   47 1
    42   19   48 1
    43   20   21 1
    44   21   26 ar
    45   21   22 ar
    46   22   23 ar
    47   22   49 1
    48   23   24 ar
    49   23   50 1
    50   24   25 ar
    51   24   27 1
    52   25   26 ar
    53   25   51 1
    54   26   52 1
    55   27   28 3
@<TRIPOS>MOLECULE
ZINC20491687
   45    47     0     0     0
SMALL
USER_CHARGES
N-(4-isopropylphenyl)-6-methyl-3-oxo-4H-1,4-benzoxazine-7-sulfonamide
@<TRIPOS>ATOM
      1 C1         -0.7499    4.3320    2.7049 C.3       1 <0>        -0.1663
      2 C2         -1.5121    5.5584    3.1362 C.ar      1 <0>         0.0380
      3 C3         -1.5934    6.6518    2.2927 C.ar      1 <0>        -0.1509
      4 C4         -2.2942    7.7777    2.6907 C.ar      1 <0>         0.1656
      5 C5         -2.9150    7.8070    3.9389 C.ar      1 <0>         0.0462
      6 C6         -2.8344    6.7073    4.7745 C.ar      1 <0>         0.0008
      7 C7         -2.1284    5.5872    4.3732 C.ar      1 <0>        -0.6777
      8 S1         -2.0204    4.1891    5.4402 S.o2      1 <0>         2.6996
      9 O1         -2.8052    4.4908    6.5857 O.2       1 <0>        -0.9492
     10 O2         -0.6431    3.8506    5.5279 O.2       1 <0>        -0.9474
     11 N1         -2.7697    2.9279    4.6719 N.pl3     1 <0>        -1.0693
     12 C8         -4.1265    3.0123    4.3513 C.ar      1 <0>         0.1411
     13 C9         -4.5675    2.6414    3.0873 C.ar      1 <0>        -0.1256
     14 C10        -5.9099    2.7257    2.7738 C.ar      1 <0>        -0.1020
     15 C11        -6.8146    3.1787    3.7165 C.ar      1 <0>        -0.0825
     16 C12        -6.3782    3.5540    4.9739 C.ar      1 <0>        -0.0918
     17 C13        -5.0380    3.4669    5.2959 C.ar      1 <0>        -0.1475
     18 C14        -8.2786    3.2693    3.3708 C.3       1 <0>        -0.0578
     19 C15        -8.7478    4.7185    3.5143 C.3       1 <0>        -0.1473
     20 C16        -9.0826    2.3767    4.3183 C.3       1 <0>        -0.1469
     21 O3         -3.5990    8.9189    4.3198 O.3       1 <0>        -0.2961
     22 C17        -3.1014   10.1732    3.8466 C.3       1 <0>         0.0438
     23 C18        -2.7965   10.0741    2.3735 C.2       1 <0>         0.4942
     24 O4         -2.9155   11.0479    1.6602 O.2       1 <0>        -0.5005
     25 N2         -2.3898    8.8966    1.8511 N.am      1 <0>        -0.6750
     26 H1         -0.3327    4.4941    1.7001 H         1 <0>         0.0868
     27 H2         -1.4287    3.4666    2.6849 H         1 <0>         0.0847
     28 H3          0.0680    4.1401    3.4149 H         1 <0>         0.1089
     29 H4         -1.1120    6.6272    1.3262 H         1 <0>         0.1443
     30 H5         -3.3182    6.7248    5.7400 H         1 <0>         0.1600
     31 H6         -2.1989    2.0237    4.4140 H         1 <0>         0.4537
     32 H7         -3.8615    2.2873    2.3508 H         1 <0>         0.1272
     33 H8         -6.2535    2.4372    1.7914 H         1 <0>         0.1252
     34 H9         -7.0867    3.9118    5.7062 H         1 <0>         0.1282
     35 H10        -4.6984    3.7560    6.2795 H         1 <0>         0.1539
     36 H11        -8.4165    2.9326    2.3327 H         1 <0>         0.0779
     37 H12        -9.8164    4.7846    3.2620 H         1 <0>         0.0595
     38 H13        -8.1698    5.3602    2.8330 H         1 <0>         0.0557
     39 H14        -8.5945    5.0526    4.5511 H         1 <0>         0.0589
     40 H15       -10.1512    2.4429    4.0659 H         1 <0>         0.0594
     41 H16        -8.9293    2.7107    5.3551 H         1 <0>         0.0586
     42 H17        -8.7453    1.3348    4.2151 H         1 <0>         0.0568
     43 H18        -3.8589   10.9537    4.0110 H         1 <0>         0.1533
     44 H19        -2.1827   10.4329    4.3930 H         1 <0>         0.1051
     45 H20        -2.1354    8.8073    0.7846 H         1 <0>         0.4462
@<TRIPOS>BOND
     1    1    2 1
     2    1   26 1
     3    1   27 1
     4    1   28 1
     5    2    7 ar
     6    2    3 ar
     7    3    4 ar
     8    3   29 1
     9    4   25 1
    10    4    5 ar
    11    5    6 ar
    12    5   21 1
    13    6    7 ar
    14    6   30 1
    15    7    8 1
    16    8    9 2
    17    8   10 2
    18    8   11 1
    19   11   12 1
    20   11   31 1
    21   12   17 ar
    22   12   13 ar
    23   13   14 ar
    24   13   32 1
    25   14   15 ar
    26   14   33 1
    27   15   16 ar
    28   15   18 1
    29   16   17 ar
    30   16   34 1
    31   17   35 1
    32   18   19 1
    33   18   20 1
    34   18   36 1
    35   19   37 1
    36   19   38 1
    37   19   39 1
    38   20   40 1
    39   20   41 1
    40   20   42 1
    41   21   22 1
    42   22   23 1
    43   22   43 1
    44   22   44 1
    45   23   24 2
    46   23   25 am
    47   25   45 1
@<TRIPOS>MOLECULE
ZINC39574663
   37    39     0     0     0
SMALL
USER_CHARGES

@<TRIPOS>ATOM
      1 C1         -0.0184    1.5028    0.0103 C.3       1 <0>        -0.1620
      2 C2          0.0021   -0.0041    0.0020 C.2       1 <0>         0.1472
      3 N1          0.0216   -0.6593    1.1229 N.2       1 <0>        -0.2325
      4 N2          0.0237    0.0346    2.3400 N.am      1 <0>        -0.5653
      5 C3          0.0440   -0.6455    3.5034 C.2       1 <0>         0.6116
      6 O1          0.0605   -1.8634    3.4967 O.2       1 <0>        -0.4876
      7 C4          0.0461    0.0568    4.7351 C.2       1 <0>         0.0129
      8 N3          0.0243    1.3554    4.9124 N.2       1 <0>        -0.2170
      9 N4          0.0318    1.7205    6.1343 N.2       1 <0>        -0.2904
     10 C5          0.0601    0.7198    6.9955 C.2       1 <0>         0.2024
     11 C6          0.0674   -0.5334    6.1354 C.3       1 <0>        -0.1398
     12 C7          0.0757    0.7966    8.3991 C.2       1 <0>        -0.1865
     13 C8          0.0592    1.9271    9.2193 C.2       1 <0>        -0.0486
     14 C9          0.0812    1.6816   10.5664 C.2       1 <0>        -0.1714
     15 C10         0.1167    0.3928   11.0044 C.2       1 <0>        -0.1619
     16 S1          0.1139   -0.5237    9.5965 S.3       1 <0>         0.2934
     17 Cl1         0.1507   -0.1744   12.6448 Cl        1 <0>         0.0334
     18 C11        -0.0001   -0.7341   -1.2784 C.ar      1 <0>        -0.0611
     19 C12        -0.0153   -0.0309   -2.4861 C.ar      1 <0>        -0.0735
     20 C13        -0.0168   -0.7177   -3.6807 C.ar      1 <0>        -0.1497
     21 C14        -0.0033   -2.1067   -3.6859 C.ar      1 <0>         0.1244
     22 C15         0.0118   -2.8098   -2.4880 C.ar      1 <0>        -0.1499
     23 C16         0.0188   -2.1315   -1.2886 C.ar      1 <0>        -0.0595
     24 O2         -0.0053   -2.7795   -4.8660 O.3       1 <0>        -0.4992
     25 H1          1.0042    1.8801    0.0026 H         1 <0>         0.0920
     26 H2         -0.5455    1.8639   -0.8728 H         1 <0>         0.0928
     27 H3         -0.5286    1.8543    0.9071 H         1 <0>         0.0733
     28 H4          0.0105    1.0045    2.3453 H         1 <0>         0.3979
     29 H5         -0.8203   -1.1392    6.3175 H         1 <0>         0.1593
     30 H6          0.9751   -1.1137    6.3009 H         1 <0>         0.1586
     31 H7          0.0312    2.9291    8.8175 H         1 <0>         0.1625
     32 H8          0.0710    2.4993   11.2718 H         1 <0>         0.1521
     33 H9         -0.0262    1.0490   -2.4831 H         1 <0>         0.1359
     34 H10        -0.0289   -0.1752   -4.6145 H         1 <0>         0.1352
     35 H11         0.0219   -3.8897   -2.4968 H         1 <0>         0.1346
     36 H12         0.0351   -2.6790   -0.3577 H         1 <0>         0.1412
     37 H13         0.8775   -2.9657   -5.2141 H         1 <0>         0.3949
@<TRIPOS>BOND
     1    1    2 1
     2    1   25 1
     3    1   26 1
     4    1   27 1
     5    2    3 2
     6    2   18 1
     7    3    4 1
     8    4    5 am
     9    4   28 1
    10    5    6 2
    11    5    7 1
    12    7   11 1
    13    7    8 2
    14    8    9 1
    15    9   10 2
    16   10   11 1
    17   10   12 1
    18   11   29 1
    19   11   30 1
    20   12   16 1
    21   12   13 2
    22   13   14 1
    23   13   31 1
    24   14   15 2
    25   14   32 1
    26   15   16 1
    27   15   17 1
    28   18   23 ar
    29   18   19 ar
    30   19   20 ar
    31   19   33 1
    32   20   21 ar
    33   20   34 1
    34   21   22 ar
    35   21   24 1
    36   22   23 ar
    37   22   35 1
    38   23   36 1
    39   24   37 1
@<TRIPOS>MOLECULE
ZINC28618508
   44    46     0     0     0
SMALL
USER_CHARGES

@<TRIPOS>ATOM
      1 C1         -0.0187    1.5258    0.0104 C.3       1 <0>        -0.1429
      2 C2          0.0021   -0.0041    0.0020 C.3       1 <0>        -0.0537
      3 C3         -1.4117   -0.5257    0.0127 C.2       1 <0>         0.1152
      4 C4         -2.1086   -0.7874    1.1866 C.2       1 <0>        -0.2484
      5 S1         -3.6589   -1.3567    0.5090 S.3       1 <0>         0.3308
      6 N1         -3.2918   -1.2151   -1.0640 N.2       1 <0>        -0.1742
      7 N2         -2.0880   -0.7649   -1.0836 N.2       1 <0>        -0.2637
      8 C5         -1.6879   -0.6382    2.5890 C.2       1 <0>         0.6142
      9 O1         -0.5727   -0.2282    2.8490 O.2       1 <0>        -0.5023
     10 N3         -2.5383   -0.9558    3.5851 N.am      1 <0>        -0.5091
     11 N4         -2.1378   -0.8137    4.9201 N.am      1 <0>        -0.5144
     12 C6         -2.9883   -1.1313    5.9163 C.2       1 <0>         0.6147
     13 O2         -4.1042   -1.5415    5.6561 O.2       1 <0>        -0.5203
     14 C7         -2.5692   -0.9826    7.3130 C.2       1 <0>        -0.2578
     15 C8         -3.2717   -1.2523    8.4671 C.2       1 <0>        -0.0444
     16 C9         -2.6269   -0.9890    9.6794 C.2       1 <0>        -0.1370
     17 C10        -1.3919   -0.4569    9.6099 C.2       1 <0>        -0.1528
     18 S2         -1.0151   -0.4131    7.9679 S.3       1 <0>         0.1707
     19 C11        -0.4629    0.1016   10.6593 C.3       1 <0>        -0.0467
     20 C12        -1.0741    0.0562   12.0598 C.3       1 <0>        -0.1213
     21 C13        -0.9607   -1.3366   12.6573 C.3       1 <0>        -0.1224
     22 C14        -1.1745   -2.4353   11.6358 C.3       1 <0>        -0.1320
     23 C15        -2.6877   -2.6461   11.5202 C.3       1 <0>        -0.1161
     24 C16        -3.3257   -1.3676   10.9772 C.3       1 <0>        -0.0702
     25 H1          1.0039    1.9031    0.0027 H         1 <0>         0.0724
     26 H2         -0.5459    1.8868   -0.8726 H         1 <0>         0.0581
     27 H3         -0.5289    1.8773    0.9072 H         1 <0>         0.0583
     28 H4          0.5123   -0.3556   -0.8948 H         1 <0>         0.0925
     29 H5          0.5293   -0.3651    0.8851 H         1 <0>         0.1067
     30 H6         -3.4277   -1.2827    3.3778 H         1 <0>         0.4348
     31 H7         -1.2484   -0.4867    5.1275 H         1 <0>         0.4351
     32 H8         -4.2757   -1.6491    8.4367 H         1 <0>         0.1492
     33 H9          0.4605   -0.4776   10.6580 H         1 <0>         0.0861
     34 H10        -0.2289    1.1364   10.4093 H         1 <0>         0.0862
     35 H11        -0.5513    0.7651   12.7019 H         1 <0>         0.0733
     36 H12        -2.1260    0.3361   12.0007 H         1 <0>         0.0776
     37 H13         0.0311   -1.4516   13.0945 H         1 <0>         0.0584
     38 H14        -1.7046   -1.4417   13.4470 H         1 <0>         0.0647
     39 H15        -0.7661   -2.1320   10.6717 H         1 <0>         0.0758
     40 H16        -0.6950   -3.3547   11.9719 H         1 <0>         0.0640
     41 H17        -2.8902   -3.4728   10.8393 H         1 <0>         0.0610
     42 H18        -3.1010   -2.8711   12.5034 H         1 <0>         0.0694
     43 H19        -3.2090   -0.5634   11.7036 H         1 <0>         0.0882
     44 H20        -4.3848   -1.5401   10.7856 H         1 <0>         0.0722
@<TRIPOS>BOND
     1    1    2 1
     2    1   25 1
     3    1   26 1
     4    1   27 1
     5    2    3 1
     6    2   28 1
     7    2   29 1
     8    3    7 1
     9    3    4 2
    10    4    5 1
    11    4    8 1
    12    5    6 1
    13    6    7 2
    14    8    9 2
    15    8   10 am
    16   10   11 1
    17   10   30 1
    18   11   12 am
    19   11   31 1
    20   12   13 2
    21   12   14 1
    22   14   18 1
    23   14   15 2
    24   15   16 1
    25   15   32 1
    26   16   24 1
    27   16   17 2
    28   17   18 1
    29   17   19 1
    30   19   20 1
    31   19   33 1
    32   19   34 1
    33   20   21 1
    34   20   35 1
    35   20   36 1
    36   21   22 1
    37   21   37 1
    38   21   38 1
    39   22   23 1
    40   22   39 1
    41   22   40 1
    42   23   24 1
    43   23   41 1
    44   23   42 1
    45   24   43 1
    46   24   44 1
@<TRIPOS>MOLECULE
ZINC41817133
   47    50     0     0     0
SMALL
USER_CHARGES

@<TRIPOS>ATOM
      1 C1         -0.0167    1.3828    0.0096 C.ar      1 <0>        -0.1798
      2 C2          1.1695    2.0903    0.0021 C.ar      1 <0>        -0.1080
      3 C3          2.3808    1.4126   -0.0129 C.ar      1 <0>         0.1245
      4 C4          2.3987    0.0239   -0.0203 C.ar      1 <0>        -0.0803
      5 C5          1.2126   -0.6821   -0.0133 C.ar      1 <0>        -0.1082
      6 C6          0.0021   -0.0041    0.0020 C.ar      1 <0>         0.1109
      7 O1         -1.1663   -0.6996    0.0097 O.3       1 <0>        -0.2872
      8 C7         -2.3749    0.0626    0.0256 C.3       1 <0>         0.0487
      9 C8         -3.5577   -0.8712    0.0322 C.2       1 <0>         0.5078
     10 O2         -3.3828   -2.0714    0.0241 O.2       1 <0>        -0.4415
     11 N1         -4.8098   -0.3728    0.0472 N.am      1 <0>        -0.6209
     12 C9         -5.9007   -1.2341    0.0532 C.2       1 <0>         0.2687
     13 N2         -5.9044   -2.5495    0.0520 N.2       1 <0>        -0.5175
     14 C10        -7.0396   -3.2508    0.0594 C.2       1 <0>         0.0942
     15 C11        -8.1592   -2.5046    0.0874 C.2       1 <0>        -0.2167
     16 S1         -7.5421   -0.8476    0.0714 S.3       1 <0>         0.1190
     17 C12        -9.5815   -2.9968    0.1611 C.3       1 <0>        -0.0278
     18 C13        -9.8867   -3.6878   -1.1823 C.3       1 <0>        -0.1119
     19 C14        -9.2804   -5.0711   -1.2043 C.3       1 <0>        -0.1221
     20 C15        -7.7807   -5.1526   -1.3205 C.3       1 <0>        -0.1129
     21 C16        -7.0833   -4.7783   -0.0086 C.3       1 <0>        -0.0384
     22 C17         3.7151   -0.7087   -0.0354 C.3       1 <0>        -0.0796
     23 C18         4.7361    0.0909   -0.8454 C.3       1 <0>        -0.1388
     24 C19         4.7294    1.5290   -0.4019 C.2       1 <0>         0.5203
     25 O3          5.7670    2.1570   -0.3887 O.2       1 <0>        -0.5267
     26 N3          3.5856    2.1263   -0.0202 N.am      1 <0>        -0.6627
     27 H1         -0.9593    1.9097    0.0260 H         1 <0>         0.1349
     28 H2          1.1545    3.1701    0.0076 H         1 <0>         0.1342
     29 H3          1.2269   -1.7620   -0.0193 H         1 <0>         0.1422
     30 H4         -2.3994    0.6863    0.9193 H         1 <0>         0.1006
     31 H5         -2.4168    0.6958   -0.8606 H         1 <0>         0.1006
     32 H6         -4.9496    0.5871    0.0537 H         1 <0>         0.4267
     33 H7         -9.6868   -3.7098    0.9788 H         1 <0>         0.0898
     34 H8        -10.2591   -2.1559    0.3096 H         1 <0>         0.0794
     35 H9        -10.9663   -3.7643   -1.3124 H         1 <0>         0.0736
     36 H10        -9.4676   -3.0965   -1.9964 H         1 <0>         0.0648
     37 H11        -9.5754   -5.5827   -0.2882 H         1 <0>         0.0614
     38 H12        -9.7131   -5.6151   -2.0439 H         1 <0>         0.0613
     39 H13        -7.5009   -6.1702   -1.5930 H         1 <0>         0.0724
     40 H14        -7.4483   -4.4729   -2.1052 H         1 <0>         0.0614
     41 H15        -6.0699   -5.1796    0.0009 H         1 <0>         0.0853
     42 H16        -7.6474   -5.1717    0.8371 H         1 <0>         0.0841
     43 H17         4.0757   -0.8287    0.9862 H         1 <0>         0.0887
     44 H18         3.5793   -1.6901   -0.4899 H         1 <0>         0.0969
     45 H19         5.7296   -0.3305   -0.6925 H         1 <0>         0.1121
     46 H20         4.4806    0.0373   -1.9037 H         1 <0>         0.1055
     47 H21         3.5957    3.0574    0.2513 H         1 <0>         0.4111
@<TRIPOS>BOND
     1    1    6 ar
     2    1    2 ar
     3    1   27 1
     4    2    3 ar
     5    2   28 1
     6    3   26 1
     7    3    4 ar
     8    4    5 ar
     9    4   22 1
    10    5    6 ar
    11    5   29 1
    12    6    7 1
    13    7    8 1
    14    8    9 1
    15    8   30 1
    16    8   31 1
    17    9   10 2
    18    9   11 am
    19   11   12 1
    20   11   32 1
    21   12   16 1
    22   12   13 2
    23   13   14 1
    24   14   21 1
    25   14   15 2
    26   15   16 1
    27   15   17 1
    28   17   18 1
    29   17   33 1
    30   17   34 1
    31   18   19 1
    32   18   35 1
    33   18   36 1
    34   19   20 1
    35   19   37 1
    36   19   38 1
    37   20   21 1
    38   20   39 1
    39   20   40 1
    40   21   41 1
    41   21   42 1
    42   22   23 1
    43   22   43 1
    44   22   44 1
    45   23   24 1
    46   23   45 1
    47   23   46 1
    48   24   25 2
    49   24   26 am
    50   26   47 1
@<TRIPOS>MOLECULE
ZINC22059353
   51    53     0     0     0
SMALL
USER_CHARGES
2-[(4S)-4-(4-cyanophenyl)-4-methyl-2,5-dioxo-imidazolidin-1-yl]-N-(3-isopropylphenyl)acetamide
@<TRIPOS>ATOM
      1 C1          1.5462   -2.6303   -7.4530 C.3       1 <0>        -0.1452
      2 C2          0.7074   -3.2405   -6.3283 C.3       1 <0>        -0.0578
      3 C3         -0.1930   -4.3370   -6.9009 C.3       1 <0>        -0.1448
      4 C4          1.6202   -3.8335   -5.2860 C.ar      1 <0>        -0.0560
      5 C5          2.5004   -4.8425   -5.6321 C.ar      1 <0>        -0.1303
      6 C6          3.3388   -5.3897   -4.6786 C.ar      1 <0>        -0.0975
      7 C7          3.2996   -4.9299   -3.3766 C.ar      1 <0>        -0.1499
      8 C8          2.4173   -3.9167   -3.0260 C.ar      1 <0>         0.1528
      9 C9          1.5727   -3.3727   -3.9851 C.ar      1 <0>        -0.1196
     10 N1          2.3752   -3.4486   -1.7080 N.am      1 <0>        -0.6819
     11 C10         2.0994   -2.1525   -1.4617 C.2       1 <0>         0.5017
     12 O1          1.9823   -1.3718   -2.3825 O.2       1 <0>        -0.5068
     13 C11         1.9366   -1.6734   -0.0422 C.3       1 <0>         0.0983
     14 N2          1.6437   -0.2380   -0.0419 N.am      1 <0>        -0.5598
     15 C12         0.4010    0.2811   -0.0917 C.2       1 <0>         0.5402
     16 O2         -0.6458   -0.3285   -0.1421 O.2       1 <0>        -0.4559
     17 C13         0.5842    1.7857   -0.0707 C.3       1 <0>         0.1544
     18 N3          2.0460    1.9556   -0.0054 N.am      1 <0>        -0.7259
     19 C14         2.5768    0.7195    0.0072 C.2       1 <0>         0.7215
     20 O3          3.7707    0.4974    0.0571 O.2       1 <0>        -0.5348
     21 C15        -0.0840    2.3921    1.1649 C.3       1 <0>        -0.1467
     22 C16         0.0343    2.4044   -1.3300 C.ar      1 <0>        -0.0647
     23 C17        -1.0254    1.8038   -1.9864 C.ar      1 <0>        -0.1067
     24 C18        -1.5368    2.3674   -3.1370 C.ar      1 <0>        -0.0625
     25 C19        -0.9754    3.5406   -3.6450 C.ar      1 <0>        -0.0169
     26 C20         0.0973    4.1384   -2.9804 C.ar      1 <0>        -0.0670
     27 C21         0.5951    3.5672   -1.8276 C.ar      1 <0>        -0.0968
     28 C22        -1.4970    4.1277   -4.8424 C.1       1 <0>         0.2484
     29 N4         -1.9108    4.5935   -5.7923 N.1       1 <0>        -0.4058
     30 H1          2.1935   -1.8420   -7.0413 H         1 <0>         0.0565
     31 H2          0.8800   -2.1975   -8.2138 H         1 <0>         0.0593
     32 H3          2.1681   -3.4127   -7.9124 H         1 <0>         0.0579
     33 H4          0.0925   -2.4608   -5.8551 H         1 <0>         0.0770
     34 H5         -0.7960   -4.7757   -6.0923 H         1 <0>         0.0560
     35 H6          0.4289   -5.1194   -7.3603 H         1 <0>         0.0582
     36 H7         -0.8592   -3.9042   -7.6617 H         1 <0>         0.0595
     37 H8          2.5328   -5.2040   -6.6493 H         1 <0>         0.1223
     38 H9          4.0249   -6.1777   -4.9519 H         1 <0>         0.1262
     39 H10         3.9548   -5.3577   -2.6322 H         1 <0>         0.1253
     40 H11         0.8820   -2.5878   -3.7144 H         1 <0>         0.1302
     41 H12         2.5672   -4.1384   -0.8730 H         1 <0>         0.4372
     42 H13         1.1080   -2.2168    0.4354 H         1 <0>         0.1332
     43 H14         2.8663   -1.8581    0.5160 H         1 <0>         0.1343
     44 H15         2.4817    2.9653    0.0223 H         1 <0>         0.4706
     45 H16         0.0600    3.4826    1.1616 H         1 <0>         0.0866
     46 H17         0.3677    1.9654    2.0726 H         1 <0>         0.0758
     47 H18        -1.1600    2.1643    1.1488 H         1 <0>         0.0886
     48 H19        -1.4555    0.8937   -1.5950 H         1 <0>         0.1491
     49 H20        -2.3666    1.8998   -3.6461 H         1 <0>         0.1386
     50 H21         0.5364    5.0458   -3.3681 H         1 <0>         0.1394
     51 H22         1.4247    4.0286   -1.3126 H         1 <0>         0.1342
@<TRIPOS>BOND
     1    1    2 1
     2    1   30 1
     3    1   31 1
     4    1   32 1
     5    2    3 1
     6    2    4 1
     7    2   33 1
     8    3   34 1
     9    3   35 1
    10    3   36 1
    11    4    9 ar
    12    4    5 ar
    13    5    6 ar
    14    5   37 1
    15    6    7 ar
    16    6   38 1
    17    7    8 ar
    18    7   39 1
    19    8    9 ar
    20    8   10 1
    21    9   40 1
    22   10   11 am
    23   10   41 1
    24   11   12 2
    25   11   13 1
    26   13   14 1
    27   13   42 1
    28   13   43 1
    29   14   19 am
    30   14   15 am
    31   15   16 2
    32   15   17 1
    33   17   18 1
    34   17   21 1
    35   17   22 1
    36   18   19 am
    37   18   44 1
    38   19   20 2
    39   21   45 1
    40   21   46 1
    41   21   47 1
    42   22   27 ar
    43   22   23 ar
    44   23   24 ar
    45   23   48 1
    46   24   25 ar
    47   24   49 1
    48   25   26 ar
    49   25   28 1
    50   26   27 ar
    51   26   50 1
    52   27   51 1
    53   28   29 3
@<TRIPOS>MOLECULE
ZINC39975245
   45    48     0     0     0
SMALL
USER_CHARGES

@<TRIPOS>ATOM
      1 C1         -0.0173    1.4248    0.0099 C.3       1 <0>         0.0275
      2 O1          0.0021   -0.0041    0.0020 O.3       1 <0>        -0.3151
      3 C2          0.6061   -0.6074   -1.0563 C.ar      1 <0>         0.0937
      4 C3          1.1726    0.1618   -2.0619 C.ar      1 <0>        -0.1582
      5 C4          1.7872   -0.4486   -3.1397 C.ar      1 <0>        -0.1698
      6 C5          1.8389   -1.8301   -3.2180 C.ar      1 <0>         0.1088
      7 C6          1.2713   -2.6055   -2.2096 C.ar      1 <0>         0.1760
      8 C7          0.6603   -1.9910   -1.1266 C.ar      1 <0>        -0.1033
      9 N1          1.3221   -4.0020   -2.2864 N.pl3     1 <0>        -0.6411
     10 C8          2.3806   -4.8793   -1.7464 C.3       1 <0>         0.3545
     11 H1          3.2060   -4.9607   -2.4536 H         1 <0>         0.1222
     12 N2          1.7122   -6.1956   -1.5736 N.3       1 <0>        -0.4774
     13 N3          0.8242   -6.2715   -2.7444 N.3       1 <0>        -0.4721
     14 C9          0.3270   -4.8874   -2.9164 C.3       1 <0>         0.3322
     15 H2         -0.6394   -4.7718   -2.4259 H         1 <0>         0.0696
     16 S1          0.1790   -4.4990   -4.6821 S.3       1 <0>        -0.1961
     17 C10         2.8805   -4.3490   -0.4011 C.3       1 <0>        -0.0540
     18 H3          3.1970   -3.3100   -0.4921 H         1 <0>         0.1630
     19 C11         4.0142   -5.2103    0.1266 C.2       1 <0>        -0.1145
     20 C12         3.5346   -5.6976    1.2905 C.2       1 <0>         0.0463
     21 N4          2.2743   -5.2367    1.5127 N.2       1 <0>        -0.1397
     22 N5          1.8398   -4.4868    0.6309 N.2       1 <0>        -0.1500
     23 C13         4.2737   -6.6038    2.1945 C.2       1 <0>        -0.1047
     24 C14         3.8729   -7.1514    3.3841 C.2       1 <0>        -0.1201
     25 C15         4.7439   -7.9781    4.0593 C.2       1 <0>        -0.1595
     26 C16         5.9688   -8.2244    3.5275 C.2       1 <0>        -0.1640
     27 S2          5.9181   -7.2757    2.0161 S.3       1 <0>         0.0748
     28 O2          2.4432   -2.4298   -4.2797 O.3       1 <0>        -0.2895
     29 C17         3.0033   -1.5728   -5.2766 C.3       1 <0>         0.0262
     30 H4          1.0053    1.8021    0.0021 H         1 <0>         0.0545
     31 H5         -0.5445    1.7859   -0.8732 H         1 <0>         0.0553
     32 H6         -0.5275    1.7763    0.9067 H         1 <0>         0.1009
     33 H7          1.1333    1.2395   -2.0031 H         1 <0>         0.1329
     34 H8          2.2272    0.1529   -3.9214 H         1 <0>         0.1355
     35 H9          0.2233   -2.5897   -0.3411 H         1 <0>         0.1453
     36 H10         1.1822   -6.2222   -0.7154 H         1 <0>         0.3232
     37 H11         0.0603   -6.9094   -2.5782 H         1 <0>         0.3538
     38 H12        -0.7468   -5.3661   -5.1295 H         1 <0>         0.0746
     39 H13         4.9788   -5.3911   -0.3242 H         1 <0>         0.1792
     40 H14         2.8930   -6.9390    3.7854 H         1 <0>         0.1421
     41 H15         4.4563   -8.4243    4.9998 H         1 <0>         0.1399
     42 H16         6.7668   -8.8392    3.9168 H         1 <0>         0.1910
     43 H17         3.4527   -2.1772   -6.0645 H         1 <0>         0.1007
     44 H18         2.2178   -0.9478   -5.7014 H         1 <0>         0.0541
     45 H19         3.7666   -0.9397   -4.8243 H         1 <0>         0.0511
@<TRIPOS>BOND
     1    1    2 1
     2    1   30 1
     3    1   31 1
     4    1   32 1
     5    2    3 1
     6    3    8 ar
     7    3    4 ar
     8    4    5 ar
     9    4   33 1
    10    5    6 ar
    11    5   34 1
    12    6    7 ar
    13    6   28 1
    14    7    8 ar
    15    7    9 1
    16    8   35 1
    17    9   14 1
    18    9   10 1
    19   10   11 1
    20   10   12 1
    21   10   17 1
    22   12   13 1
    23   12   36 1
    24   13   14 1
    25   13   37 1
    26   14   15 1
    27   14   16 1
    28   16   38 1
    29   17   18 1
    30   17   22 1
    31   17   19 1
    32   19   20 2
    33   19   39 1
    34   20   21 1
    35   20   23 1
    36   21   22 2
    37   23   27 1
    38   23   24 2
    39   24   25 1
    40   24   40 1
    41   25   26 2
    42   25   41 1
    43   26   27 1
    44   26   42 1
    45   28   29 1
    46   29   43 1
    47   29   44 1
    48   29   45 1
@<TRIPOS>MOLECULE
ZINC16202485
   36    37     0     0     0
SMALL
USER_CHARGES

@<TRIPOS>ATOM
      1 C1         -1.0984    2.1740   -1.8203 C.3       1 <0>        -0.1579
      2 S1         -1.3838    0.4488   -2.3028 S.3       1 <0>        -0.0600
      3 C2          0.2375   -0.2111   -2.5049 C.ar      1 <0>        -0.0447
      4 C3          1.3491    0.5949   -2.2834 C.ar      1 <0>        -0.1176
      5 C4          2.6225    0.0819   -2.4412 C.ar      1 <0>        -0.0274
      6 C5          2.7999   -1.2339   -2.8191 C.ar      1 <0>        -0.0210
      7 C6          1.6910   -2.0514   -3.0439 C.ar      1 <0>        -0.0375
      8 C7          0.4055   -1.5360   -2.8793 C.ar      1 <0>        -0.0722
      9 C8          1.8787   -3.4610   -3.4491 C.2       1 <0>         0.5617
     10 O1          2.5406   -3.7275   -4.4332 O.2       1 <0>        -0.4888
     11 N1          1.3159   -4.4504   -2.7274 N.am      1 <0>        -0.5095
     12 N2          1.4938   -5.7859   -3.1114 N.am      1 <0>        -0.5123
     13 C9          0.9310   -6.7753   -2.3897 C.2       1 <0>         0.5657
     14 O2          0.2691   -6.5088   -1.4055 O.2       1 <0>        -0.5295
     15 C10         1.1186   -8.1841   -2.7947 C.ar      1 <0>        -0.1274
     16 C11         1.8831   -8.4936   -3.9212 C.ar      1 <0>        -0.0706
     17 C12         2.0550   -9.8100   -4.2940 C.ar      1 <0>        -0.1147
     18 C13         1.4710  -10.8243   -3.5533 C.ar      1 <0>        -0.0062
     19 C14         0.7115  -10.5235   -2.4347 C.ar      1 <0>        -0.1166
     20 C15         0.5369   -9.2111   -2.0491 C.ar      1 <0>        -0.0395
     21 Cl1         1.6914  -12.4792   -4.0291 Cl        1 <0>        -0.0548
     22 N3          4.1663   -1.7779   -2.9865 N.pl3     1 <0>         0.0290
     23 O3          5.1232   -1.0431   -2.9083 O.2       1 <0>        -0.1567
     24 O4          4.3255   -2.9569   -3.2014 O.3       1 <0>        -0.1268
     25 H1         -0.5251    2.2020   -0.8937 H         1 <0>         0.0927
     26 H2         -0.5425    2.6841   -2.6070 H         1 <0>         0.0926
     27 H3         -2.0560    2.6725   -1.6704 H         1 <0>         0.1206
     28 H4          1.2167    1.6251   -1.9876 H         1 <0>         0.1541
     29 H5          3.4819    0.7127   -2.2685 H         1 <0>         0.1666
     30 H6         -0.4562   -2.1651   -3.0475 H         1 <0>         0.1598
     31 H7          0.7877   -4.2377   -1.9421 H         1 <0>         0.4347
     32 H8          2.0220   -5.9986   -3.8967 H         1 <0>         0.4352
     33 H9          2.3386   -7.7035   -4.4998 H         1 <0>         0.1387
     34 H10         2.6458  -10.0506   -5.1654 H         1 <0>         0.1452
     35 H11         0.2586  -11.3186   -1.8611 H         1 <0>         0.1455
     36 H12        -0.0519   -8.9780   -1.1742 H         1 <0>         0.1497
@<TRIPOS>BOND
     1    1    2 1
     2    1   25 1
     3    1   26 1
     4    1   27 1
     5    2    3 1
     6    3    8 ar
     7    3    4 ar
     8    4    5 ar
     9    4   28 1
    10    5    6 ar
    11    5   29 1
    12    6    7 ar
    13    6   22 1
    14    7    8 ar
    15    7    9 1
    16    8   30 1
    17    9   10 2
    18    9   11 am
    19   11   12 1
    20   11   31 1
    21   12   13 am
    22   12   32 1
    23   13   14 2
    24   13   15 1
    25   15   20 ar
    26   15   16 ar
    27   16   17 ar
    28   16   33 1
    29   17   18 ar
    30   17   34 1
    31   18   19 ar
    32   18   21 1
    33   19   20 ar
    34   19   35 1
    35   20   36 1
    36   22   23 2
    37   22   24 1
@<TRIPOS>MOLECULE
ZINC39954930
   47    50     0     0     0
SMALL
USER_CHARGES

@<TRIPOS>ATOM
      1 C1         -0.0187    1.5258    0.0104 C.3       1 <0>        -0.1476
      2 C2          0.0021   -0.0041    0.0020 C.3       1 <0>        -0.0924
      3 C3          0.7421   -0.5109    1.2415 C.3       1 <0>        -0.1508
      4 C4         -1.4333   -0.5336    0.0129 C.3       1 <0>        -0.0482
      5 C5         -1.4159   -2.0348   -0.1192 C.2       1 <0>        -0.0360
      6 C6         -1.4647   -2.8865    0.9074 C.2       1 <0>        -0.1300
      7 C7         -1.4203   -4.2544    0.2498 C.3       1 <0>        -0.0348
      8 H1         -0.5350   -4.8058    0.5665 H         1 <0>         0.1522
      9 N1         -1.3461   -3.9297   -1.1850 N.2       1 <0>        -0.1433
     10 N2         -1.3546   -2.7011   -1.2934 N.2       1 <0>        -0.1560
     11 C8         -2.6904   -5.0474    0.5640 C.3       1 <0>         0.3692
     12 H2         -3.5596   -4.5538    0.1292 H         1 <0>         0.0954
     13 N3         -2.8592   -5.1849    2.0302 N.3       1 <0>        -0.4817
     14 N4         -2.7266   -6.6198    2.3349 N.3       1 <0>        -0.4502
     15 C9         -1.9225   -7.1256    1.2041 C.3       1 <0>         0.2503
     16 H3         -0.8539   -6.9350    1.3039 H         1 <0>         0.1562
     17 N5         -2.5731   -6.4289    0.0445 N.pl3     1 <0>        -0.5513
     18 N6         -2.8939   -7.2701   -0.9988 N.2       1 <0>        -0.1842
     19 C10        -2.9366   -8.5649   -0.8760 C.2       1 <0>         0.1703
     20 S1         -2.3319   -8.8676    0.8152 S.3       1 <0>        -0.1815
     21 C11        -3.3654   -9.5619   -1.8800 C.ar      1 <0>         0.0277
     22 C12        -3.3506  -10.9224   -1.5669 C.ar      1 <0>        -0.1218
     23 C13        -3.7513  -11.8501   -2.5062 C.ar      1 <0>        -0.0749
     24 C14        -4.1677  -11.4369   -3.7585 C.ar      1 <0>        -0.1888
     25 C15        -4.1854  -10.0863   -4.0790 C.ar      1 <0>         0.1303
     26 C16        -3.7915   -9.1463   -3.1413 C.ar      1 <0>        -0.1091
     27 O1         -4.5951   -9.6860   -5.3114 O.3       1 <0>        -0.3135
     28 C17        -4.9936  -10.7086   -6.2266 C.3       1 <0>         0.0254
     29 H4          1.0039    1.9031    0.0027 H         1 <0>         0.0578
     30 H5         -0.5459    1.8868   -0.8726 H         1 <0>         0.0575
     31 H6         -0.5289    1.8773    0.9072 H         1 <0>         0.0564
     32 H7          0.5123   -0.3556   -0.8948 H         1 <0>         0.0743
     33 H8          0.7568   -1.6008    1.2356 H         1 <0>         0.0513
     34 H9          1.7647   -0.1336    1.2338 H         1 <0>         0.0568
     35 H10         0.2319   -0.1594    2.1383 H         1 <0>         0.0570
     36 H11        -1.9156   -0.2570    0.9504 H         1 <0>         0.0831
     37 H12        -1.9862   -0.1019   -0.8214 H         1 <0>         0.0848
     38 H13        -1.5221   -2.6562    1.9610 H         1 <0>         0.1789
     39 H14        -3.7582   -4.8342    2.3252 H         1 <0>         0.3597
     40 H15        -3.6301   -7.0680    2.3652 H         1 <0>         0.3363
     41 H16        -3.0253  -11.2484   -0.5901 H         1 <0>         0.1316
     42 H17        -3.7394  -12.9022   -2.2629 H         1 <0>         0.1366
     43 H18        -4.4800  -12.1676   -4.4900 H         1 <0>         0.1353
     44 H19        -3.8097   -8.0949   -3.3877 H         1 <0>         0.1426
     45 H20        -5.2966  -10.2542   -7.1698 H         1 <0>         0.1033
     46 H21        -4.1573  -11.3855   -6.4015 H         1 <0>         0.0582
     47 H22        -5.8306  -11.2662   -5.8064 H         1 <0>         0.0577
@<TRIPOS>BOND
     1    1    2 1
     2    1   29 1
     3    1   30 1
     4    1   31 1
     5    2    3 1
     6    2    4 1
     7    2   32 1
     8    3   33 1
     9    3   34 1
    10    3   35 1
    11    4    5 1
    12    4   36 1
    13    4   37 1
    14    5   10 1
    15    5    6 2
    16    6    7 1
    17    6   38 1
    18    7    8 1
    19    7    9 1
    20    7   11 1
    21    9   10 2
    22   11   12 1
    23   11   17 1
    24   11   13 1
    25   13   14 1
    26   13   39 1
    27   14   15 1
    28   14   40 1
    29   15   16 1
    30   15   20 1
    31   15   17 1
    32   17   18 1
    33   18   19 2
    34   19   20 1
    35   19   21 1
    36   21   26 ar
    37   21   22 ar
    38   22   23 ar
    39   22   41 1
    40   23   24 ar
    41   23   42 1
    42   24   25 ar
    43   24   43 1
    44   25   26 ar
    45   25   27 1
    46   26   44 1
    47   27   28 1
    48   28   45 1
    49   28   46 1
    50   28   47 1
@<TRIPOS>MOLECULE
ZINC67430970
   39    41     0     0     0
SMALL
USER_CHARGES

@<TRIPOS>ATOM
      1 C1         -0.0173    1.4248    0.0099 C.3       1 <0>         0.0195
      2 O1          0.0021   -0.0041    0.0020 O.3       1 <0>        -0.2821
      3 C2          0.6247   -0.6172    1.0396 C.ar      1 <0>         0.1926
      4 C3          1.2017    0.1375    2.0502 C.ar      1 <0>        -0.2190
      5 C4          1.8354   -0.4879    3.1053 C.ar      1 <0>        -0.0439
      6 C5          1.9000   -1.8707    3.1639 C.ar      1 <0>        -0.1638
      7 C6          1.3322   -2.6360    2.1687 C.ar      1 <0>        -0.0461
      8 C7          0.6828   -2.0162    1.0982 C.ar      1 <0>        -0.1721
      9 C8          0.0674   -2.8297    0.0323 C.2       1 <0>         0.5667
     10 O2         -0.4923   -2.2865   -0.9005 O.2       1 <0>        -0.5151
     11 N1          0.1255   -4.1748    0.0925 N.am      1 <0>        -0.5236
     12 N2         -0.4589   -4.9473   -0.9197 N.am      1 <0>        -0.5147
     13 C9         -0.4007   -6.2925   -0.8594 C.2       1 <0>         0.4955
     14 O3          0.1576   -6.8342    0.0711 O.2       1 <0>        -0.5084
     15 C10        -1.0293   -7.1234   -1.9482 C.3       1 <0>         0.0398
     16 H1         -2.0826   -6.8707   -2.0699 H         1 <0>         0.1562
     17 C11        -0.2629   -6.9590   -3.2822 C.3       1 <0>        -0.1423
     18 C12         0.7113   -8.1212   -3.2487 C.2       1 <0>         0.1633
     19 N3          0.3184   -8.9525   -2.3364 N.2       1 <0>        -0.2556
     20 O4         -0.8638   -8.5311   -1.6834 O.3       1 <0>        -0.1495
     21 C13         1.8937   -8.2769   -4.1020 C.2       1 <0>        -0.1280
     22 C14         2.8188   -9.3059   -4.1317 C.2       1 <0>        -0.0871
     23 C15         3.8550   -9.2280   -5.0308 C.2       1 <0>        -0.1440
     24 C16         3.9389   -8.1500   -5.8576 C.2       1 <0>        -0.1077
     25 S1          2.5108   -7.1921   -5.3787 S.3       1 <0>         0.1609
     26 Cl1         5.1283   -7.7992   -7.0724 Cl        1 <0>         0.0309
     27 H2          1.0053    1.8021    0.0021 H         1 <0>         0.0585
     28 H3         -0.5445    1.7859   -0.8732 H         1 <0>         0.1052
     29 H4         -0.5275    1.7763    0.9067 H         1 <0>         0.0585
     30 H5          1.1555    1.2158    2.0115 H         1 <0>         0.1390
     31 H6          2.2838    0.1042    3.8894 H         1 <0>         0.1340
     32 H7          2.3979   -2.3508    3.9933 H         1 <0>         0.1349
     33 H8          1.3856   -3.7135    2.2182 H         1 <0>         0.1330
     34 H9          0.5720   -4.6081    0.8367 H         1 <0>         0.4308
     35 H10        -0.9053   -4.5140   -1.6638 H         1 <0>         0.4336
     36 H11        -0.9409   -7.0468   -4.1312 H         1 <0>         0.1307
     37 H12         0.2697   -6.0083   -3.3078 H         1 <0>         0.1125
     38 H13         2.7285  -10.1499   -3.4638 H         1 <0>         0.1540
     39 H14         4.5948  -10.0132   -5.0806 H         1 <0>         0.1529
@<TRIPOS>BOND
     1    1    2 1
     2    1   27 1
     3    1   28 1
     4    1   29 1
     5    2    3 1
     6    3    8 ar
     7    3    4 ar
     8    4    5 ar
     9    4   30 1
    10    5    6 ar
    11    5   31 1
    12    6    7 ar
    13    6   32 1
    14    7    8 ar
    15    7   33 1
    16    8    9 1
    17    9   10 2
    18    9   11 am
    19   11   12 1
    20   11   34 1
    21   12   13 am
    22   12   35 1
    23   13   14 2
    24   13   15 1
    25   15   16 1
    26   15   20 1
    27   15   17 1
    28   17   18 1
    29   17   36 1
    30   17   37 1
    31   18   19 2
    32   18   21 1
    33   19   20 1
    34   21   25 1
    35   21   22 2
    36   22   23 1
    37   22   38 1
    38   23   24 2
    39   23   39 1
    40   24   25 1
    41   24   26 1
@<TRIPOS>MOLECULE
ZINC12316501
   60    62     0     0     0
SMALL
USER_CHARGES
ethyl 4-[[[(5S)-2-tert-butyl-7,7-dimethyl-6,8-dihydro-5H-quinazolin-5-yl]amino]methyl]-1H-pyrazole-3-carboxylate
@<TRIPOS>ATOM
      1 C1         -2.2730   -0.2244    6.3296 C.3       1 <0>        -0.1585
      2 C2         -1.6892   -1.3061    5.4186 C.3       1 <0>         0.0638
      3 O1         -2.2799   -1.1962    4.0967 O.3       1 <0>        -0.3317
      4 C3         -1.8702   -2.0823    3.1681 C.2       1 <0>         0.5576
      5 O2         -1.0420   -2.9236    3.4549 O.2       1 <0>        -0.5135
      6 C4         -2.4274   -2.0307    1.8025 C.2       1 <0>         0.0170
      7 C5         -2.0939   -2.8844    0.7238 C.2       1 <0>        -0.2347
      8 C6         -2.8516   -2.4655   -0.3166 C.2       1 <0>         0.0527
      9 N1         -3.5844   -1.4178    0.1182 N.pl3     1 <0>        -0.3642
     10 H1         -4.2345   -0.9034   -0.4410 H         1 <0>         0.4730
     11 N2         -3.3263   -1.1770    1.3534 N.2       1 <0>        -0.2001
     12 C7         -1.1062   -4.0225    0.7329 C.3       1 <0>         0.0871
     13 C8         -0.8391   -6.3721    1.2534 C.3       1 <0>         0.0967
     14 H2         -0.2692   -6.3224    0.3255 H         1 <0>         0.1548
     15 C9          0.1247   -6.3610    2.4394 C.3       1 <0>        -0.1325
     16 C10         0.8935   -7.6865    2.4544 C.3       1 <0>        -0.0504
     17 C11        -0.0764   -8.8006    2.8456 C.3       1 <0>        -0.0805
     18 C12        -1.3117   -8.7469    1.9886 C.ar      1 <0>         0.2356
     19 C13        -1.6638   -7.6290    1.2636 C.ar      1 <0>        -0.2625
     20 C14        -2.8308   -7.6687    0.5101 C.ar      1 <0>         0.1557
     21 N3         -3.5621   -8.7702    0.5083 N.ar      1 <0>        -0.5000
     22 C15        -3.1933   -9.8226    1.2107 C.ar      1 <0>         0.3696
     23 N4         -2.0947   -9.8190    1.9358 N.ar      1 <0>        -0.5023
     24 C16        -4.0506  -11.0616    1.1825 C.3       1 <0>        -0.0066
     25 C17        -5.2611  -10.8237    0.2776 C.3       1 <0>        -0.1327
     26 C18        -3.2324  -12.2358    0.6415 C.3       1 <0>        -0.1396
     27 C19        -4.5287  -11.3833    2.5998 C.3       1 <0>        -0.1392
     28 C20         2.0293   -7.6114    3.4768 C.3       1 <0>        -0.1459
     29 C21         1.4699   -7.9708    1.0660 C.3       1 <0>        -0.1576
     30 H3         -1.8296   -0.3069    7.3219 H         1 <0>         0.0887
     31 H4         -2.0526    0.7587    5.9137 H         1 <0>         0.0715
     32 H5         -3.3528   -0.3545    6.4022 H         1 <0>         0.0704
     33 H6         -0.6094   -1.1761    5.3460 H         1 <0>         0.0788
     34 H7         -1.9096   -2.2893    5.8344 H         1 <0>         0.0766
     35 H8         -2.8645   -2.8878   -1.3106 H         1 <0>         0.2048
     36 H9         -0.8078   -4.2529   -0.2899 H         1 <0>         0.1437
     37 H10        -0.2280   -3.7369    1.3120 H         1 <0>         0.1500
     38 H11         0.8275   -5.5347    2.3326 H         1 <0>         0.1049
     39 H12        -0.4372   -6.2501    3.3669 H         1 <0>         0.0943
     40 H13        -0.3583   -8.6822    3.8919 H         1 <0>         0.1064
     41 H14         0.4138   -9.7649    2.7114 H         1 <0>         0.1085
     42 H15        -3.1369   -6.8093   -0.0680 H         1 <0>         0.1633
     43 H16        -4.9205  -10.5946   -0.7322 H         1 <0>         0.0628
     44 H17        -5.8813  -11.7199    0.2572 H         1 <0>         0.0675
     45 H18        -5.8441   -9.9872    0.6630 H         1 <0>         0.0619
     46 H19        -2.3699  -12.4053    1.2862 H         1 <0>         0.0690
     47 H20        -3.8525  -13.1320    0.6211 H         1 <0>         0.0756
     48 H21        -2.8917  -12.0066   -0.3682 H         1 <0>         0.0555
     49 H22        -5.1117  -10.5468    2.9852 H         1 <0>         0.0544
     50 H23        -5.1488  -12.2795    2.5795 H         1 <0>         0.0756
     51 H24        -3.6663  -11.5528    3.2445 H         1 <0>         0.0690
     52 H25         2.5610   -8.5626    3.4998 H         1 <0>         0.0709
     53 H26         2.7195   -6.8161    3.1954 H         1 <0>         0.0683
     54 H27         1.6166   -7.4019    4.4637 H         1 <0>         0.0648
     55 H28         0.6594   -8.0170    0.3386 H         1 <0>         0.0533
     56 H29         2.1612   -7.1748    0.7895 H         1 <0>         0.0699
     57 H30         1.9996   -8.9233    1.0806 H         1 <0>         0.0728
     58 N5         -1.7388   -5.2066    1.3442 N.4       1 <0>        -0.5194
     59 H31        -2.6145   -5.4155    0.8505 H         1 <0>         0.4208
     60 H32        -1.9408   -5.0108    2.3316 H         1 <0>         0.4343
@<TRIPOS>BOND
     1    1    2 1
     2    1   30 1
     3    1   31 1
     4    1   32 1
     5    2    3 1
     6    2   33 1
     7    2   34 1
     8    3    4 1
     9    4    5 2
    10    4    6 1
    11    6   11 2
    12    6    7 1
    13    7    8 2
    14    7   12 1
    15    8    9 1
    16    8   35 1
    17    9   10 1
    18    9   11 1
    19   12   36 1
    20   12   37 1
    21   12   58 1
    22   13   14 1
    23   13   19 1
    24   13   15 1
    25   13   58 1
    26   15   16 1
    27   15   38 1
    28   15   39 1
    29   16   17 1
    30   16   28 1
    31   16   29 1
    32   17   18 1
    33   17   40 1
    34   17   41 1
    35   18   23 ar
    36   18   19 ar
    37   19   20 ar
    38   20   21 ar
    39   20   42 1
    40   21   22 ar
    41   22   23 ar
    42   22   24 1
    43   24   25 1
    44   24   26 1
    45   24   27 1
    46   25   43 1
    47   25   44 1
    48   25   45 1
    49   26   46 1
    50   26   47 1
    51   26   48 1
    52   27   49 1
    53   27   50 1
    54   27   51 1
    55   28   52 1
    56   28   53 1
    57   28   54 1
    58   29   55 1
    59   29   56 1
    60   29   57 1
    61   58   59 1
    62   58   60 1
@<TRIPOS>MOLECULE
ZINC35990913
   56    58     0     0     0
SMALL
USER_CHARGES

@<TRIPOS>ATOM
      1 C1          0.5864    0.6225    0.4209 C.3       1 <0>        -0.1762
      2 C2          0.5899   -0.8239   -0.0778 C.3       1 <0>         0.0939
      3 N1          0.9263   -0.8481   -1.5034 N.am      1 <0>        -0.5407
      4 C3         -0.0917   -0.7448   -2.4077 C.2       1 <0>         0.2420
      5 C4          0.1516   -0.7605   -3.7360 C.2       1 <0>        -0.2395
      6 C5          1.5916   -0.8962   -4.1876 C.3       1 <0>         0.2363
      7 H1          1.6646   -1.7842   -4.8156 H         1 <0>         0.0975
      8 N2          2.6145   -1.0004   -3.1334 N.am      1 <0>        -0.7102
      9 C6          2.2153   -0.9649   -1.8466 C.2       1 <0>         0.7028
     10 O1          3.0523   -1.0463   -0.9689 O.2       1 <0>        -0.5490
     11 C7          1.9254    0.3001   -5.0412 C.ar      1 <0>        -0.1307
     12 C8          2.2474    1.5053   -4.4455 C.ar      1 <0>        -0.0681
     13 C9          2.5542    2.6029   -5.2272 C.ar      1 <0>        -0.1567
     14 C10         2.5390    2.4951   -6.6075 C.ar      1 <0>         0.1122
     15 C11         2.2164    1.2874   -7.2030 C.ar      1 <0>        -0.1554
     16 C12         1.9151    0.1898   -6.4192 C.ar      1 <0>        -0.0512
     17 F1          2.8382    3.5675   -7.3727 F         1 <0>        -0.1349
     18 C13        -0.9021   -0.6545   -4.6738 C.2       1 <0>         0.5461
     19 O2         -2.0382   -0.4458   -4.2914 O.2       1 <0>        -0.5158
     20 O3         -0.6473   -0.7848   -5.9925 O.3       1 <0>        -0.3428
     21 C14        -1.7587   -0.6662   -6.8828 C.3       1 <0>         0.0677
     22 C15        -1.2780   -0.8412   -8.3248 C.3       1 <0>        -0.1567
     23 C16        -1.5098   -0.6114   -1.9154 C.3       1 <0>         0.0678
     24 N3         -2.1806   -1.9159   -1.9956 N.3       1 <0>        -0.5194
     25 C17        -1.6709   -2.8344   -0.9676 C.3       1 <0>         0.0087
     26 C18        -2.3504   -4.1967   -1.1229 C.3       1 <0>         0.0000
     27 N4         -3.8040   -4.0375   -0.9844 N.4       1 <0>        -0.5084
     28 C19        -4.3019   -3.1371   -2.0327 C.3       1 <0>        -0.0022
     29 C20        -3.6385   -1.7660   -1.8850 C.3       1 <0>         0.0314
     30 H2          1.5736    1.0602    0.2731 H         1 <0>         0.0723
     31 H3         -0.1531    1.1973   -0.1367 H         1 <0>         0.0599
     32 H4          0.3360    0.6405    1.4816 H         1 <0>         0.0810
     33 H5          1.3293   -1.3987    0.4798 H         1 <0>         0.1093
     34 H6         -0.3974   -1.2616    0.0700 H         1 <0>         0.0835
     35 H7          3.5535   -1.0893   -3.3597 H         1 <0>         0.4371
     36 H8          2.2588    1.5893   -3.3688 H         1 <0>         0.1214
     37 H9          2.8053    3.5445   -4.7616 H         1 <0>         0.1367
     38 H10         2.2039    1.2023   -8.2795 H         1 <0>         0.1392
     39 H11         1.6678   -0.7534   -6.8834 H         1 <0>         0.1389
     40 H12        -2.4949   -1.4354   -6.6494 H         1 <0>         0.0655
     41 H13        -2.2128    0.3180   -6.7681 H         1 <0>         0.0674
     42 H14        -0.8240   -1.8254   -8.4395 H         1 <0>         0.0673
     43 H15        -2.1258   -0.7507   -9.0039 H         1 <0>         0.0814
     44 H16        -0.5419   -0.0720   -8.5582 H         1 <0>         0.0688
     45 H17        -1.5045   -0.2686   -0.8807 H         1 <0>         0.0660
     46 H18        -2.0430    0.1100   -2.5345 H         1 <0>         0.1516
     47 H19        -0.5934   -2.9499   -1.0852 H         1 <0>         0.1190
     48 H20        -1.8879   -2.4302    0.0211 H         1 <0>         0.0662
     49 H21        -2.1219   -4.6067   -2.1066 H         1 <0>         0.1404
     50 H22        -1.9842   -4.8752   -0.3525 H         1 <0>         0.1399
     51 H23        -4.2508   -4.9377   -1.0744 H         1 <0>         0.4351
     52 H24        -4.0634   -3.5526   -3.0118 H         1 <0>         0.1403
     53 H25        -5.3824   -3.0302   -1.9368 H         1 <0>         0.1407
     54 H26        -3.8880   -1.3443   -0.9114 H         1 <0>         0.0623
     55 H27        -3.9966   -1.1022   -2.6719 H         1 <0>         0.1347
     56 H28        -4.0146   -3.6471   -0.0781 H         1 <0>         0.4261
@<TRIPOS>BOND
     1    1    2 1
     2    1   30 1
     3    1   31 1
     4    1   32 1
     5    2    3 1
     6    2   33 1
     7    2   34 1
     8    3    9 am
     9    3    4 1
    10    4    5 2
    11    4   23 1
    12    5    6 1
    13    5   18 1
    14    6    7 1
    15    6    8 1
    16    6   11 1
    17    8    9 am
    18    8   35 1
    19    9   10 2
    20   11   16 ar
    21   11   12 ar
    22   12   13 ar
    23   12   36 1
    24   13   14 ar
    25   13   37 1
    26   14   15 ar
    27   14   17 1
    28   15   16 ar
    29   15   38 1
    30   16   39 1
    31   18   19 2
    32   18   20 1
    33   20   21 1
    34   21   22 1
    35   21   40 1
    36   21   41 1
    37   22   42 1
    38   22   43 1
    39   22   44 1
    40   23   24 1
    41   23   45 1
    42   23   46 1
    43   24   29 1
    44   24   25 1
    45   25   26 1
    46   25   47 1
    47   25   48 1
    48   26   27 1
    49   26   49 1
    50   26   50 1
    51   27   28 1
    52   27   51 1
    53   27   56 1
    54   28   29 1
    55   28   52 1
    56   28   53 1
    57   29   54 1
    58   29   55 1
@<TRIPOS>MOLECULE
ZINC52802622
   56    58     0     0     0
SMALL
USER_CHARGES

@<TRIPOS>ATOM
      1 C1         -0.0178    1.4648    0.0101 C.3       1 <0>        -0.0653
      2 N1          0.0021   -0.0041    0.0020 N.4       1 <0>        -0.3728
      3 C2          0.7126   -0.4907    1.1921 C.3       1 <0>        -0.0107
      4 C3          2.1805   -0.0656    1.1191 C.3       1 <0>        -0.1448
      5 C4          2.9205   -0.5724    2.3586 C.3       1 <0>        -0.0716
      6 C5          4.3664   -0.1537    2.2867 C.ar      1 <0>        -0.1018
      7 C6          5.2943   -0.9754    1.6745 C.ar      1 <0>        -0.1151
      8 C7          6.6205   -0.5913    1.6085 C.ar      1 <0>        -0.1153
      9 C8          7.0189    0.6147    2.1544 C.ar      1 <0>        -0.1127
     10 C9          6.0908    1.4368    2.7657 C.ar      1 <0>        -0.1156
     11 C10         4.7638    1.0546    2.8279 C.ar      1 <0>        -0.1155
     12 C11        -1.3761   -0.5125    0.0124 C.3       1 <0>        -0.0185
     13 C12        -2.0674   -0.1162   -1.2666 C.2       1 <0>         0.5102
     14 O1         -1.4709    0.5266   -2.1044 O.2       1 <0>        -0.4992
     15 N2         -3.3487   -0.4760   -1.4795 N.am      1 <0>        -0.4824
     16 N3         -3.9915   -0.1075   -2.6686 N.am      1 <0>        -0.3808
     17 C13        -4.9097    0.8767   -2.7606 C.2       1 <0>         0.5351
     18 O2         -5.3205    1.5832   -1.8652 O.2       1 <0>        -0.4381
     19 C14        -5.3184    0.9127   -4.2154 C.3       1 <0>         0.1409
     20 C15        -4.9823    2.2675   -4.8287 C.3       1 <0>        -0.1162
     21 C16        -5.3758    2.2724   -6.3081 C.3       1 <0>        -0.1181
     22 C17        -6.8746    1.9930   -6.4367 C.3       1 <0>        -0.1286
     23 C18        -7.1923    0.6210   -5.8386 C.3       1 <0>        -0.1185
     24 C19        -6.8060    0.6097   -4.3573 C.3       1 <0>        -0.1173
     25 N4         -4.5154   -0.1476   -4.8377 N.am      1 <0>        -0.6995
     26 C20        -3.7665   -0.6844   -3.8554 C.2       1 <0>         0.7081
     27 O3         -2.9775   -1.5929   -4.0266 O.2       1 <0>        -0.5245
     28 H1          1.0047    1.8421    0.0024 H         1 <0>         0.1308
     29 H2         -0.5450    1.8259   -0.8730 H         1 <0>         0.1374
     30 H3         -0.5280    1.8163    0.9069 H         1 <0>         0.1237
     31 H4          0.2557   -0.0671    2.0865 H         1 <0>         0.1360
     32 H5          0.6508   -1.5782    1.2328 H         1 <0>         0.1360
     33 H6          2.6374   -0.4891    0.2247 H         1 <0>         0.0905
     34 H7          2.2422    1.0219    1.0784 H         1 <0>         0.0914
     35 H8          2.4636   -0.1489    3.2530 H         1 <0>         0.0836
     36 H9          2.8588   -1.6599    2.3993 H         1 <0>         0.0837
     37 H10         4.9831   -1.9176    1.2481 H         1 <0>         0.1218
     38 H11         7.3456   -1.2336    1.1309 H         1 <0>         0.1263
     39 H12         8.0552    0.9144    2.1034 H         1 <0>         0.1266
     40 H13         6.4021    2.3788    3.1925 H         1 <0>         0.1262
     41 H14         4.0380    1.6986    3.3023 H         1 <0>         0.1214
     42 H15        -1.3618   -1.5992    0.0961 H         1 <0>         0.1709
     43 H16        -1.9129   -0.0898    0.8617 H         1 <0>         0.1702
     44 H17        -3.8259   -0.9901   -0.8095 H         1 <0>         0.4376
     45 H18        -5.5314    3.0496   -4.3044 H         1 <0>         0.0955
     46 H19        -3.9119    2.4520   -4.7371 H         1 <0>         0.0769
     47 H20        -5.1491    3.2465   -6.7413 H         1 <0>         0.0811
     48 H21        -4.8156    1.5005   -6.8357 H         1 <0>         0.0665
     49 H22        -7.4343    2.7606   -5.9023 H         1 <0>         0.0719
     50 H23        -7.1571    2.0044   -7.4894 H         1 <0>         0.0752
     51 H24        -8.2589    0.4194   -5.9376 H         1 <0>         0.0820
     52 H25        -6.6266   -0.1460   -6.3676 H         1 <0>         0.0668
     53 H26        -7.0185   -0.3720   -3.9341 H         1 <0>         0.0787
     54 H27        -7.3829    1.3665   -3.8259 H         1 <0>         0.0965
     55 H28        -4.5206   -0.4076   -5.7722 H         1 <0>         0.4495
     56 H29         0.4743   -0.3295   -0.8281 H         1 <0>         0.4338
@<TRIPOS>BOND
     1    1    2 1
     2    1   28 1
     3    1   29 1
     4    1   30 1
     5    2    3 1
     6    2   12 1
     7    2   56 1
     8    3    4 1
     9    3   31 1
    10    3   32 1
    11    4    5 1
    12    4   33 1
    13    4   34 1
    14    5    6 1
    15    5   35 1
    16    5   36 1
    17    6   11 ar
    18    6    7 ar
    19    7    8 ar
    20    7   37 1
    21    8    9 ar
    22    8   38 1
    23    9   10 ar
    24    9   39 1
    25   10   11 ar
    26   10   40 1
    27   11   41 1
    28   12   13 1
    29   12   42 1
    30   12   43 1
    31   13   14 2
    32   13   15 am
    33   15   16 1
    34   15   44 1
    35   16   26 am
    36   16   17 am
    37   17   18 2
    38   17   19 1
    39   19   24 1
    40   19   20 1
    41   19   25 1
    42   20   21 1
    43   20   45 1
    44   20   46 1
    45   21   22 1
    46   21   47 1
    47   21   48 1
    48   22   23 1
    49   22   49 1
    50   22   50 1
    51   23   24 1
    52   23   51 1
    53   23   52 1
    54   24   53 1
    55   24   54 1
    56   25   26 am
    57   25   55 1
    58   26   27 2
@<TRIPOS>MOLECULE
ZINC52524835
   58    60     0     0     0
SMALL
USER_CHARGES

@<TRIPOS>ATOM
      1 C1         -0.0187    1.5258    0.0104 C.3       1 <0>        -0.1522
      2 C2          0.0021   -0.0041    0.0020 C.3       1 <0>        -0.1094
      3 C3          0.7236   -0.4988   -1.2549 C.3       1 <0>        -0.1313
      4 C4          0.8078   -2.0274   -1.2149 C.3       1 <0>        -0.1103
      5 C5          1.5179   -2.4602    0.0696 C.3       1 <0>        -0.0044
      6 N1          0.7655   -1.9795    1.2346 N.4       1 <0>        -0.3779
      7 C6          0.7420   -0.5119    1.2414 C.3       1 <0>        -0.0141
      8 C7          1.4078   -2.4632    2.4640 C.3       1 <0>        -0.0220
      9 C8          0.5571   -2.0688    3.6730 C.3       1 <0>         0.1168
     10 N2          1.1977   -2.5512    4.8991 N.am      1 <0>        -0.7486
     11 C9          0.6235   -2.3181    6.0960 C.2       1 <0>         0.7088
     12 O1         -0.4261   -1.7075    6.1581 O.2       1 <0>        -0.5785
     13 N3          1.2128   -2.7619    7.2239 N.am      1 <0>        -0.7320
     14 C10         0.5887   -2.5085    8.5249 C.3       1 <0>         0.1804
     15 C11         1.4416   -3.1037    9.6155 C.ar      1 <0>        -0.0857
     16 C12         1.2314   -4.4088   10.0221 C.ar      1 <0>        -0.1216
     17 C13         2.0117   -4.9585   11.0224 C.ar      1 <0>        -0.0880
     18 C14         3.0041   -4.2052   11.6189 C.ar      1 <0>        -0.1430
     19 C15         3.2175   -2.8946   11.2130 C.ar      1 <0>         0.1839
     20 C16         2.4357   -2.3472   10.2040 C.ar      1 <0>        -0.1351
     21 N4          4.2221   -2.1287   11.8154 N.am      1 <0>        -0.5756
     22 C17         5.1346   -2.5769   12.8860 C.3       1 <0>         0.0561
     23 C18         6.2266   -1.4812   12.8652 C.3       1 <0>         0.0389
     24 O2          5.5210   -0.3650   12.2884 O.3       1 <0>        -0.3166
     25 C19         4.5335   -0.8530   11.5185 C.2       1 <0>         0.6455
     26 O3          3.9785   -0.2104   10.6492 O.2       1 <0>        -0.4963
     27 C20         1.5954   -2.5275   -2.4275 C.3       1 <0>        -0.1514
     28 H1          1.0039    1.9031    0.0027 H         1 <0>         0.0673
     29 H2         -0.5459    1.8868   -0.8726 H         1 <0>         0.0782
     30 H3         -0.5289    1.8773    0.9072 H         1 <0>         0.0698
     31 H4         -1.0203   -0.3820    0.0082 H         1 <0>         0.0951
     32 H5          0.1688   -0.1873   -2.1400 H         1 <0>         0.0953
     33 H6          1.7290   -0.0791   -1.2871 H         1 <0>         0.0831
     34 H7         -0.1976   -2.4479   -1.2345 H         1 <0>         0.0948
     35 H8          1.5797   -3.5480    0.1011 H         1 <0>         0.1316
     36 H9          2.5232   -2.0394    0.0879 H         1 <0>         0.1300
     37 H10         1.7639   -0.1326    1.2348 H         1 <0>         0.1310
     38 H11         0.2311   -0.1613    2.1381 H         1 <0>         0.1344
     39 H12         1.4999   -3.5485    2.4230 H         1 <0>         0.1385
     40 H13         2.3984   -2.0177    2.5559 H         1 <0>         0.1367
     41 H14         0.4650   -0.9835    3.7140 H         1 <0>         0.0885
     42 H15        -0.4334   -2.5143    3.5811 H         1 <0>         0.0885
     43 H16         2.0350   -3.0383    4.8495 H         1 <0>         0.4031
     44 H17         2.0502   -3.2490    7.1743 H         1 <0>         0.4004
     45 H18         0.4974   -1.4336    8.6809 H         1 <0>         0.0820
     46 H19        -0.4010   -2.9645    8.5480 H         1 <0>         0.0831
     47 H20         0.4560   -4.9997    9.5575 H         1 <0>         0.1282
     48 H21         1.8450   -5.9778   11.3380 H         1 <0>         0.1345
     49 H22         3.6130   -4.6350   12.4005 H         1 <0>         0.1305
     50 H23         2.6025   -1.3297    9.8828 H         1 <0>         0.1564
     51 H24         4.6233   -2.5970   13.8484 H         1 <0>         0.1024
     52 H25         5.5594   -3.5527   12.6505 H         1 <0>         0.1094
     53 H26         6.5638   -1.2485   13.8753 H         1 <0>         0.1307
     54 H27         7.0649   -1.7791   12.2355 H         1 <0>         0.1001
     55 H28         2.6011   -2.1079   -2.4058 H         1 <0>         0.0674
     56 H29         1.6550   -3.6155   -2.3985 H         1 <0>         0.0687
     57 H30         1.0912   -2.2156   -3.3422 H         1 <0>         0.0783
     58 H31        -0.1797   -2.3298    1.1912 H         1 <0>         0.4253
@<TRIPOS>BOND
     1    1    2 1
     2    1   28 1
     3    1   29 1
     4    1   30 1
     5    2    7 1
     6    2    3 1
     7    2   31 1
     8    3    4 1
     9    3   32 1
    10    3   33 1
    11    4    5 1
    12    4   27 1
    13    4   34 1
    14    5    6 1
    15    5   35 1
    16    5   36 1
    17    6    7 1
    18    6    8 1
    19    6   58 1
    20    7   37 1
    21    7   38 1
    22    8    9 1
    23    8   39 1
    24    8   40 1
    25    9   10 1
    26    9   41 1
    27    9   42 1
    28   10   11 am
    29   10   43 1
    30   11   12 2
    31   11   13 am
    32   13   14 1
    33   13   44 1
    34   14   15 1
    35   14   45 1
    36   14   46 1
    37   15   20 ar
    38   15   16 ar
    39   16   17 ar
    40   16   47 1
    41   17   18 ar
    42   17   48 1
    43   18   19 ar
    44   18   49 1
    45   19   20 ar
    46   19   21 1
    47   20   50 1
    48   21   25 am
    49   21   22 1
    50   22   23 1
    51   22   51 1
    52   22   52 1
    53   23   24 1
    54   23   53 1
    55   23   54 1
    56   24   25 1
    57   25   26 2
    58   27   55 1
    59   27   56 1
    60   27   57 1
@<TRIPOS>MOLECULE
ZINC67287565
   46    48     0     0     0
SMALL
USER_CHARGES

@<TRIPOS>ATOM
      1 C1         -0.0215    1.4349    0.0952 C.3       1 <0>         0.0536
      2 N1         -0.0026   -0.0298    0.0735 N.pl3     1 <0>        -0.5871
      3 C2          0.0142   -0.7808    1.3313 C.3       1 <0>         0.0699
      4 C3         -0.0007   -0.7070   -1.1404 C.ar      1 <0>         0.4418
      5 C4          0.0115   -2.0983   -1.1538 C.ar      1 <0>        -0.1824
      6 C5          0.0133   -2.7591   -2.3686 C.ar      1 <0>         0.0474
      7 C6          0.0027   -2.0038   -3.5341 C.ar      1 <0>        -0.1601
      8 C7         -0.0091   -0.6264   -3.4470 C.ar      1 <0>         0.1528
      9 N2         -0.0160   -0.0225   -2.2736 N.ar      1 <0>        -0.5043
     10 C8          0.0269   -4.2650   -2.4265 C.3       1 <0>         0.1629
     11 N3         -1.3499   -4.7656   -2.4404 N.am      1 <0>        -0.7420
     12 C9         -1.5842   -6.0919   -2.4905 C.2       1 <0>         0.7082
     13 O1         -0.6529   -6.8729   -2.5241 O.2       1 <0>        -0.5550
     14 N4         -2.8508   -6.5524   -2.5032 N.am      1 <0>        -0.6781
     15 C10        -3.0958   -7.9236   -2.6470 C.ar      1 <0>         0.1695
     16 C11        -4.2025   -8.3599   -3.3640 C.ar      1 <0>        -0.1213
     17 C12        -4.4445   -9.7114   -3.5059 C.ar      1 <0>        -0.0881
     18 C13        -3.5819  -10.6354   -2.9317 C.ar      1 <0>         0.1491
     19 C14        -2.4746  -10.1998   -2.2143 C.ar      1 <0>        -0.0105
     20 C15        -2.2292   -8.8471   -2.0775 C.ar      1 <0>        -0.0984
     21 Cl1        -1.3962  -11.3549   -1.4957 Cl        1 <0>        -0.0289
     22 N5         -3.8286  -12.0091   -3.0754 N.pl3     1 <0>        -0.3358
     23 C16        -4.0922  -12.6532   -4.2344 C.2       1 <0>         0.0560
     24 C17        -4.2699  -13.9636   -3.9463 C.2       1 <0>        -0.2571
     25 C18        -4.1100  -14.1267   -2.5662 C.2       1 <0>         0.0540
     26 N6         -3.8395  -12.9571   -2.0441 N.2       1 <0>        -0.2745
     27 H1          1.0014    1.8115    0.0947 H         1 <0>         0.0876
     28 H2         -0.5451    1.8046   -0.7864 H         1 <0>         0.0744
     29 H3         -0.5347    1.7784    0.9933 H         1 <0>         0.1101
     30 H4         -1.0091   -0.9804    1.6490 H         1 <0>         0.0849
     31 H5          0.5395   -1.7245    1.1840 H         1 <0>         0.0911
     32 H6          0.5249   -0.1964    2.0966 H         1 <0>         0.1023
     33 H7          0.0199   -2.6545   -0.2281 H         1 <0>         0.1817
     34 H8          0.0042   -2.4894   -4.4988 H         1 <0>         0.1832
     35 H9         -0.0170   -0.0353   -4.3508 H         1 <0>         0.2102
     36 H10         0.5405   -4.5892   -3.3316 H         1 <0>         0.1047
     37 H11         0.5474   -4.6575   -1.5530 H         1 <0>         0.1013
     38 H12        -2.0928   -4.1425   -2.4136 H         1 <0>         0.4014
     39 H13        -3.5926   -5.9340   -2.4129 H         1 <0>         0.4125
     40 H14        -4.8741   -7.6415   -3.8102 H         1 <0>         0.1437
     41 H15        -5.3051  -10.0501   -4.0635 H         1 <0>         0.1469
     42 H16        -1.3663   -8.5079   -1.5238 H         1 <0>         0.1596
     43 H17        -4.1507  -12.2028   -5.2143 H         1 <0>         0.1765
     44 H18        -4.4958  -14.7454   -4.6564 H         1 <0>         0.1551
     45 H19        -4.1908  -15.0580   -2.0252 H         1 <0>         0.1901
     46 H20        -0.0283    0.9469   -2.2405 H         1 <0>         0.4411
@<TRIPOS>BOND
     1    1    2 1
     2    1   27 1
     3    1   28 1
     4    1   29 1
     5    2    3 1
     6    2    4 1
     7    3   30 1
     8    3   31 1
     9    3   32 1
    10    4    9 ar
    11    4    5 ar
    12    5    6 ar
    13    5   33 1
    14    6    7 ar
    15    6   10 1
    16    7    8 ar
    17    7   34 1
    18    8    9 ar
    19    8   35 1
    20    9   46 1
    21   10   11 1
    22   10   36 1
    23   10   37 1
    24   11   12 am
    25   11   38 1
    26   12   13 2
    27   12   14 am
    28   14   15 1
    29   14   39 1
    30   15   20 ar
    31   15   16 ar
    32   16   17 ar
    33   16   40 1
    34   17   18 ar
    35   17   41 1
    36   18   19 ar
    37   18   22 1
    38   19   20 ar
    39   19   21 1
    40   20   42 1
    41   22   26 1
    42   22   23 1
    43   23   24 2
    44   23   43 1
    45   24   25 1
    46   24   44 1
    47   25   26 2
    48   25   45 1
@<TRIPOS>MOLECULE
ZINC10252241
   50    52     0     0     0
SMALL
USER_CHARGES
ethyl (6-methyl-2-tetrahydrofuran-2-ylcarbonylamino-4,5,6,7-tetrahydrobenzothiophen-3-yl)carbonylaminoformate
@<TRIPOS>ATOM
      1 C1          3.1329    7.9958   -3.6577 C.3       1 <0>        -0.1540
      2 C2          2.9729    7.4302   -2.2451 C.3       1 <0>         0.0792
      3 O1          2.5407    6.0463   -2.3240 O.3       1 <0>        -0.3647
      4 C3          2.3520    5.3977   -1.1597 C.2       1 <0>         0.6400
      5 O2          2.5431    5.9721   -0.1066 O.2       1 <0>        -0.5061
      6 N1          1.9510    4.1110   -1.1624 N.am      1 <0>        -0.6572
      7 C4          1.7621    3.4616    0.0034 C.2       1 <0>         0.5903
      8 O3          1.9535    4.0370    1.0583 O.2       1 <0>        -0.4483
      9 C5          1.3262    2.0629    0.0005 C.2       1 <0>        -0.2333
     10 C6          2.2880    0.9736   -0.0146 C.2       1 <0>        -0.0635
     11 C7          1.7528   -0.2663   -0.0165 C.2       1 <0>        -0.2039
     12 S1          0.0021   -0.0041    0.0020 S.3       1 <0>         0.2477
     13 C8         -0.0214    1.7284    0.0115 C.2       1 <0>         0.0811
     14 N2         -1.1190    2.5749    0.0216 N.am      1 <0>        -0.6214
     15 C9         -2.3655    2.0622    0.0256 C.2       1 <0>         0.5083
     16 O4         -2.5267    0.8602    0.0203 O.2       1 <0>        -0.4704
     17 C10        -3.5588    2.9825    0.0365 C.3       1 <0>         0.0680
     18 H1         -3.4949    3.6618    0.8865 H         1 <0>         0.1058
     19 C11        -3.6109    3.7886   -1.2758 C.3       1 <0>        -0.1516
     20 C12        -4.9868    3.4291   -1.8875 C.3       1 <0>        -0.1531
     21 C13        -5.7695    2.9208   -0.6500 C.3       1 <0>         0.0432
     22 O5         -4.7696    2.2119    0.1166 O.3       1 <0>        -0.3435
     23 C14         2.4916   -1.5690   -0.0318 C.3       1 <0>        -0.0318
     24 C15         3.9503   -1.2927   -0.4257 C.3       1 <0>        -0.0860
     25 H2          4.0037   -1.0364   -1.4838 H         1 <0>         0.0770
     26 C16         4.4737   -0.1231    0.4128 C.3       1 <0>        -0.1143
     27 C17         3.7981    1.1766   -0.0281 C.3       1 <0>        -0.0637
     28 C18         4.7985   -2.5372   -0.1560 C.3       1 <0>        -0.1483
     29 H3          3.4573    9.0347   -3.5985 H         1 <0>         0.0862
     30 H4          3.8773    7.4131   -4.2003 H         1 <0>         0.0688
     31 H5          2.1781    7.9426   -4.1807 H         1 <0>         0.0682
     32 H6          2.2284    8.0129   -1.7026 H         1 <0>         0.0748
     33 H7          3.9277    7.4835   -1.7221 H         1 <0>         0.0754
     34 H8          1.7984    3.6523   -2.0034 H         1 <0>         0.4218
     35 H9         -0.9901    3.5363    0.0258 H         1 <0>         0.4194
     36 H10        -3.5525    4.8573   -1.0696 H         1 <0>         0.0937
     37 H11        -2.8037    3.4849   -1.9423 H         1 <0>         0.0829
     38 H12        -5.4647    4.3106   -2.3149 H         1 <0>         0.0901
     39 H13        -4.8866    2.6419   -2.6347 H         1 <0>         0.0830
     40 H14        -6.1673    3.7583   -0.0769 H         1 <0>         0.0694
     41 H15        -6.5725    2.2489   -0.9532 H         1 <0>         0.1033
     42 H16         2.4568   -2.0226    0.9587 H         1 <0>         0.0854
     43 H17         2.0368   -2.2406   -0.7600 H         1 <0>         0.0829
     44 H18         5.5517   -0.0347    0.2780 H         1 <0>         0.0721
     45 H19         4.2542   -0.3065    1.4646 H         1 <0>         0.0687
     46 H20         4.1233    1.4336   -1.0362 H         1 <0>         0.0781
     47 H21         4.0649    1.9805    0.6579 H         1 <0>         0.0758
     48 H22         4.7398   -2.7947    0.9015 H         1 <0>         0.0576
     49 H23         4.4244   -3.3684   -0.7537 H         1 <0>         0.0582
     50 H24         5.8356   -2.3350   -0.4237 H         1 <0>         0.0587
@<TRIPOS>BOND
     1    1    2 1
     2    1   29 1
     3    1   30 1
     4    1   31 1
     5    2    3 1
     6    2   32 1
     7    2   33 1
     8    3    4 1
     9    4    5 2
    10    4    6 am
    11    6    7 am
    12    6   34 1
    13    7    8 2
    14    7    9 1
    15    9   13 2
    16    9   10 1
    17   10   27 1
    18   10   11 2
    19   11   12 1
    20   11   23 1
    21   12   13 1
    22   13   14 1
    23   14   15 am
    24   14   35 1
    25   15   16 2
    26   15   17 1
    27   17   18 1
    28   17   22 1
    29   17   19 1
    30   19   20 1
    31   19   36 1
    32   19   37 1
    33   20   21 1
    34   20   38 1
    35   20   39 1
    36   21   22 1
    37   21   40 1
    38   21   41 1
    39   23   24 1
    40   23   42 1
    41   23   43 1
    42   24   25 1
    43   24   26 1
    44   24   28 1
    45   26   27 1
    46   26   44 1
    47   26   45 1
    48   27   46 1
    49   27   47 1
    50   28   48 1
    51   28   49 1
    52   28   50 1
@<TRIPOS>MOLECULE
ZINC20569067
   49    52     0     0     0
SMALL
USER_CHARGES
isopropyl (4R)-1'-allyl-2-amino-2'-methyl-5'-oxo-spiro[indeno[2,3-d]oxazole-4,4'-pyrrole]-3'-carboxylate
@<TRIPOS>ATOM
      1 C1         -2.3203   -0.3693    2.7389 C.3       1 <0>        -0.1464
      2 C2         -3.2226    0.7859    2.3891 C.2       1 <0>         0.2575
      3 C3         -4.0744    1.3657    3.2592 C.2       1 <0>        -0.2672
      4 C4         -4.7671    2.4591    2.4853 C.3       1 <0>         0.0850
      5 C5         -4.5386    3.8055    3.1092 C.ar      1 <0>        -0.0677
      6 C6         -3.4066    4.5324    3.4014 C.ar      1 <0>        -0.0772
      7 C7         -3.5159    5.7788    3.9937 C.ar      1 <0>        -0.1123
      8 C8         -4.7626    6.2983    4.2955 C.ar      1 <0>        -0.1012
      9 C9         -5.9036    5.5798    4.0083 C.ar      1 <0>        -0.1003
     10 C10        -5.8034    4.3209    3.4086 C.ar      1 <0>         0.0278
     11 C11        -6.8347    3.3487    2.9941 C.2       1 <0>        -0.0499
     12 C12        -6.2544    2.2505    2.4500 C.2       1 <0>         0.0545
     13 N1         -7.2331    1.4047    2.0914 N.2       1 <0>        -0.5190
     14 C13        -8.3898    1.9434    2.3962 C.2       1 <0>         0.4843
     15 O1         -8.1752    3.1438    2.9559 O.3       1 <0>        -0.2054
     16 N2         -9.6250    1.3689    2.1782 N.pl3     1 <0>        -0.8244
     17 C14        -4.1641    2.3780    1.1058 C.2       1 <0>         0.5492
     18 O2         -4.4278    3.0751    0.1493 O.2       1 <0>        -0.4548
     19 N3         -3.2701    1.3688    1.1565 N.am      1 <0>        -0.5416
     20 C15        -2.4506    0.9442    0.0188 C.3       1 <0>         0.1282
     21 C16        -1.1558    1.7153    0.0169 C.2       1 <0>        -0.1876
     22 C17        -0.0126    1.0758    0.0080 C.2       1 <0>        -0.1627
     23 C18        -4.2794    1.0171    4.6153 C.2       1 <0>         0.5544
     24 O3         -3.6447    0.1055    5.1118 O.2       1 <0>        -0.5191
     25 O4         -5.1788    1.6958    5.3579 O.3       1 <0>        -0.3380
     26 C19        -5.3342    1.2902    6.7192 C.3       1 <0>         0.0801
     27 C20        -4.3611    2.0765    7.5999 C.3       1 <0>        -0.1692
     28 C21        -6.7692    1.5657    7.1728 C.3       1 <0>        -0.1479
     29 H1         -2.4749   -0.6497    3.7913 H         1 <0>         0.1301
     30 H2         -1.2714   -0.0739    2.5884 H         1 <0>         0.0927
     31 H3         -2.5560   -1.2275    2.0924 H         1 <0>         0.0914
     32 H4         -2.4320    4.1294    3.1687 H         1 <0>         0.1261
     33 H5         -2.6260    6.3472    4.2207 H         1 <0>         0.1338
     34 H6         -4.8420    7.2709    4.7583 H         1 <0>         0.1330
     35 H7         -6.8742    5.9891    4.2469 H         1 <0>         0.1289
     36 H8        -10.5401    1.9045    2.4711 H         1 <0>         0.4424
     37 H9         -9.6948    0.3752    1.7115 H         1 <0>         0.4596
     38 H10        -2.2366   -0.1316    0.1023 H         1 <0>         0.1015
     39 H11        -2.9944    1.1383   -0.9175 H         1 <0>         0.1068
     40 H12        -1.1707    2.8152    0.0230 H         1 <0>         0.1183
     41 H13         0.9325    1.6387    0.0066 H         1 <0>         0.1097
     42 H14         0.0023   -0.0241    0.0019 H         1 <0>         0.1051
     43 H15        -5.1093    0.2136    6.7390 H         1 <0>         0.0839
     44 H16        -4.4808    1.7642    8.6478 H         1 <0>         0.0736
     45 H17        -4.5736    3.1521    7.5112 H         1 <0>         0.0663
     46 H18        -3.3294    1.8784    7.2738 H         1 <0>         0.0620
     47 H19        -6.8888    1.2535    8.2207 H         1 <0>         0.0786
     48 H20        -7.4688    1.0004    6.5396 H         1 <0>         0.0602
     49 H21        -6.9816    2.6413    7.0841 H         1 <0>         0.0669
@<TRIPOS>BOND
     1    1    2 1
     2    1   29 1
     3    1   30 1
     4    1   31 1
     5    2   19 1
     6    2    3 2
     7    3    4 1
     8    3   23 1
     9    4   12 1
    10    4    5 1
    11    4   17 1
    12    5   10 ar
    13    5    6 ar
    14    6    7 ar
    15    6   32 1
    16    7    8 ar
    17    7   33 1
    18    8    9 ar
    19    8   34 1
    20    9   10 ar
    21    9   35 1
    22   10   11 1
    23   11   15 1
    24   11   12 2
    25   12   13 1
    26   13   14 2
    27   14   15 1
    28   14   16 1
    29   16   36 1
    30   16   37 1
    31   17   18 2
    32   17   19 am
    33   19   20 1
    34   20   21 1
    35   20   38 1
    36   20   39 1
    37   21   22 2
    38   21   40 1
    39   22   41 1
    40   22   42 1
    41   23   24 2
    42   23   25 1
    43   25   26 1
    44   26   27 1
    45   26   28 1
    46   26   43 1
    47   27   44 1
    48   27   45 1
    49   27   46 1
    50   28   47 1
    51   28   48 1
    52   28   49 1
@<TRIPOS>MOLECULE
ZINC38612350
   37    38     0     0     0
SMALL
USER_CHARGES

@<TRIPOS>ATOM
      1 C1         -0.0187    1.5258    0.0104 C.3       1 <0>        -0.1529
      2 C2          0.0021   -0.0041    0.0020 C.3       1 <0>         0.0492
      3 O1         -1.3386   -0.4987    0.0122 O.3       1 <0>        -0.2978
      4 C3         -1.4984   -1.8493    0.0064 C.ar      1 <0>         0.1099
      5 C4         -0.3876   -2.6785   -0.0028 C.ar      1 <0>        -0.1554
      6 C5         -0.5427   -4.0546   -0.0082 C.ar      1 <0>        -0.0660
      7 C6         -1.8044   -4.6131   -0.0049 C.ar      1 <0>        -0.0834
      8 C7         -2.9328   -3.7888    0.0044 C.ar      1 <0>        -0.0431
      9 C8         -2.7751   -2.3976    0.0157 C.ar      1 <0>         0.1336
     10 O2         -3.8661   -1.5871    0.0300 O.3       1 <0>        -0.4567
     11 C9         -4.2824   -4.3811    0.0075 C.2       1 <0>         0.1076
     12 N1         -5.3283   -3.6126    0.0162 N.2       1 <0>        -0.1936
     13 N2         -6.6112   -4.1756    0.0192 N.am      1 <0>        -0.5814
     14 C10        -7.6973   -3.3776    0.0282 C.2       1 <0>         0.5727
     15 O3         -7.5641   -2.1718    0.0337 O.2       1 <0>        -0.4646
     16 C11        -9.0773   -3.9832    0.0313 C.3       1 <0>        -0.0604
     17 H1         -9.1213   -4.8423   -0.6381 H         1 <0>         0.1731
     18 C12        -9.4874   -4.3778    1.4391 C.2       1 <0>        -0.1608
     19 C13       -10.5674   -3.6314    1.6803 C.2       1 <0>        -0.0177
     20 N3        -10.8578   -2.8496    0.6169 N.2       1 <0>        -0.1512
     21 N4        -10.0877   -2.9791   -0.3428 N.2       1 <0>        -0.1160
     22 C14       -11.3559   -3.6571    2.9642 C.3       1 <0>        -0.0908
     23 Br1         0.9818   -5.1734   -0.0209 Br        1 <0>        -0.0339
     24 H2          1.0039    1.9031    0.0027 H         1 <0>         0.0812
     25 H3         -0.5459    1.8868   -0.8726 H         1 <0>         0.0681
     26 H4         -0.5289    1.8773    0.9072 H         1 <0>         0.0687
     27 H5          0.5123   -0.3556   -0.8948 H         1 <0>         0.0651
     28 H6          0.5293   -0.3651    0.8851 H         1 <0>         0.0652
     29 H7          0.6034   -2.2493   -0.0062 H         1 <0>         0.1452
     30 H8         -1.9199   -5.6868   -0.0099 H         1 <0>         0.1458
     31 H9         -4.1901   -1.3481   -0.8492 H         1 <0>         0.3938
     32 H10        -4.4010   -5.4545    0.0026 H         1 <0>         0.1303
     33 H11        -6.7178   -5.1397    0.0147 H         1 <0>         0.3879
     34 H12        -9.0151   -5.0958    2.0932 H         1 <0>         0.1796
     35 H13       -10.9474   -2.9207    3.6563 H         1 <0>         0.0842
     36 H14       -12.3989   -3.4195    2.7549 H         1 <0>         0.0840
     37 H15       -11.2918   -4.6496    3.4102 H         1 <0>         0.0805
@<TRIPOS>BOND
     1    1    2 1
     2    1   24 1
     3    1   25 1
     4    1   26 1
     5    2    3 1
     6    2   27 1
     7    2   28 1
     8    3    4 1
     9    4    9 ar
    10    4    5 ar
    11    5    6 ar
    12    5   29 1
    13    6    7 ar
    14    6   23 1
    15    7    8 ar
    16    7   30 1
    17    8    9 ar
    18    8   11 1
    19    9   10 1
    20   10   31 1
    21   11   12 2
    22   11   32 1
    23   12   13 1
    24   13   14 am
    25   13   33 1
    26   14   15 2
    27   14   16 1
    28   16   17 1
    29   16   21 1
    30   16   18 1
    31   18   19 2
    32   18   34 1
    33   19   20 1
    34   19   22 1
    35   20   21 2
    36   22   35 1
    37   22   36 1
    38   22   37 1
@<TRIPOS>MOLECULE
ZINC49908689
   40    43     0     0     0
SMALL
USER_CHARGES

@<TRIPOS>ATOM
      1 C1         -0.0187    1.5258    0.0104 C.3       1 <0>        -0.1471
      2 C2          0.0021   -0.0041    0.0020 C.3       1 <0>        -0.1280
      3 H1          0.5293   -0.3651    0.8851 H         1 <0>         0.1337
      4 C3         -1.4117   -0.5257    0.0127 C.2       1 <0>         0.4246
      5 O1         -1.9590   -0.8159   -1.0301 O.2       1 <0>        -0.4283
      6 C4         -2.1269   -0.6827    1.2858 C.ar      1 <0>        -0.1571
      7 C5         -1.4988   -0.3427    2.4903 C.ar      1 <0>        -0.0573
      8 C6         -2.1695   -0.4898    3.6842 C.ar      1 <0>        -0.1167
      9 C7         -3.4698   -0.9748    3.6971 C.ar      1 <0>         0.1171
     10 C8         -4.1036   -1.3161    2.4990 C.ar      1 <0>         0.0822
     11 C9         -3.4411   -1.1674    1.2978 C.ar      1 <0>        -0.0581
     12 N1         -5.4179   -1.8052    2.5345 N.am      1 <0>        -0.6606
     13 C10        -6.1468   -1.6409    3.6598 C.2       1 <0>         0.4906
     14 O2         -7.2750   -2.0815    3.7244 O.2       1 <0>        -0.5018
     15 C11        -5.5520   -0.9080    4.8353 C.3       1 <0>         0.0494
     16 O3         -4.1387   -1.1217    4.8699 O.3       1 <0>        -0.2960
     17 S1          0.8511   -0.5891   -1.4904 S.3       1 <0>         0.0611
     18 C12         2.5089   -0.0285   -1.2851 C.2       1 <0>         0.2623
     19 N2          2.9717    0.6549   -0.2615 N.2       1 <0>        -0.5284
     20 H2          3.4869   -0.7079   -2.9934 H         1 <0>         0.4498
     21 C13         4.2772    0.9095   -0.4423 C.2       1 <0>         0.3203
     22 N3          4.6569    0.3872   -1.5886 N.2       1 <0>        -0.2816
     23 N4          3.5280   -0.2311   -2.1496 N.pl3     1 <0>        -0.4556
     24 C14         5.1459    1.6552    0.4931 C.2       1 <0>        -0.0964
     25 C15         6.4758    1.9594    0.3789 C.2       1 <0>        -0.1091
     26 C16         7.0811    2.6735    1.3898 C.2       1 <0>        -0.1634
     27 C17         6.3438    3.0527    2.4649 C.2       1 <0>        -0.1658
     28 S2          4.7318    2.4001    2.0619 S.3       1 <0>         0.1157
     29 H3          1.0039    1.9031    0.0027 H         1 <0>         0.0914
     30 H4         -0.5459    1.8868   -0.8726 H         1 <0>         0.0732
     31 H5         -0.5289    1.8773    0.9072 H         1 <0>         0.0791
     32 H6         -0.4870    0.0350    2.4831 H         1 <0>         0.1481
     33 H7         -1.6827   -0.2277    4.6119 H         1 <0>         0.1520
     34 H8         -3.9320   -1.4273    0.3716 H         1 <0>         0.1480
     35 H9         -5.7974   -2.2540    1.7629 H         1 <0>         0.4200
     36 H10        -5.7555    0.1584    4.7386 H         1 <0>         0.1063
     37 H11        -5.9978   -1.2797    5.7579 H         1 <0>         0.1519
     38 H12         7.0398    1.6453   -0.4869 H         1 <0>         0.1411
     39 H13         8.1289    2.9279    1.3280 H         1 <0>         0.1411
     40 H14         6.6522    3.6095    3.3374 H         1 <0>         0.1923
@<TRIPOS>BOND
     1    1    2 1
     2    1   29 1
     3    1   30 1
     4    1   31 1
     5    2    3 1
     6    2    4 1
     7    2   17 1
     8    4    5 2
     9    4    6 1
    10    6   11 ar
    11    6    7 ar
    12    7    8 ar
    13    7   32 1
    14    8    9 ar
    15    8   33 1
    16    9   16 1
    17    9   10 ar
    18   10   11 ar
    19   10   12 1
    20   11   34 1
    21   12   13 am
    22   12   35 1
    23   13   14 2
    24   13   15 1
    25   15   16 1
    26   15   36 1
    27   15   37 1
    28   17   18 1
    29   18   19 2
    30   18   23 1
    31   19   21 1
    32   20   23 1
    33   21   24 1
    34   21   22 2
    35   22   23 1
    36   24   28 1
    37   24   25 2
    38   25   26 1
    39   25   38 1
    40   26   27 2
    41   26   39 1
    42   27   28 1
    43   27   40 1
@<TRIPOS>MOLECULE
ZINC67102405
   44    46     0     0     0
SMALL
USER_CHARGES

@<TRIPOS>ATOM
      1 C1         -0.0297    1.5152    0.0181 C.3       1 <0>        -0.1763
      2 C2          0.0008   -0.0144    0.0056 C.3       1 <0>         0.0978
      3 N1          0.6873   -0.4793   -1.2022 N.am      1 <0>        -0.6138
      4 C3          2.1477   -0.5946   -1.2161 C.3       1 <0>         0.1796
      5 C4          2.5469   -1.9752   -0.7624 C.ar      1 <0>        -0.1036
      6 C5          2.7653   -2.2238    0.5799 C.ar      1 <0>        -0.0946
      7 C6          3.1312   -3.4886    1.0011 C.ar      1 <0>        -0.1048
      8 C7          3.2805   -4.5107    0.0777 C.ar      1 <0>         0.0368
      9 C8          3.0605   -4.2602   -1.2745 C.ar      1 <0>         0.0283
     10 C9          2.6885   -2.9915   -1.6886 C.ar      1 <0>        -0.0719
     11 O1          3.2695   -5.4150   -1.9717 O.3       1 <0>        -0.3077
     12 C10         4.0147   -6.2701   -1.0847 C.3       1 <0>         0.2127
     13 O2          3.6271   -5.8224    0.2277 O.3       1 <0>        -0.3094
     14 C11        -0.0246   -0.8010   -2.3004 C.2       1 <0>         0.7141
     15 O3          0.5346   -1.2765   -3.2697 O.2       1 <0>        -0.5796
     16 N2         -1.3564   -0.5955   -2.3243 N.am      1 <0>        -0.5362
     17 N3         -2.1123   -1.0279   -3.4217 N.am      1 <0>        -0.5042
     18 C12        -3.4551   -0.9140   -3.4019 C.2       1 <0>         0.6124
     19 O4         -4.0110   -0.4356   -2.4307 O.2       1 <0>        -0.5258
     20 C13        -4.2461   -1.3664   -4.5501 C.2       1 <0>        -0.2701
     21 C14        -5.6203   -1.3342   -4.7320 C.2       1 <0>        -0.0170
     22 C15        -6.0761   -1.8351   -5.9278 C.2       1 <0>        -0.1865
     23 C16        -5.1804   -2.3142   -6.8260 C.2       1 <0>        -0.2095
     24 S1         -3.6913   -2.0943   -6.0800 S.3       1 <0>         0.2108
     25 C17        -6.5546   -0.7852   -3.6848 C.3       1 <0>        -0.1091
     26 H1          0.9905    1.8990    0.0096 H         1 <0>         0.0649
     27 H2         -0.5607    1.8753   -0.8631 H         1 <0>         0.0586
     28 H3         -0.5405    1.8612    0.9167 H         1 <0>         0.0734
     29 H4          0.5318   -0.3745    0.8868 H         1 <0>         0.0893
     30 H5         -1.0194   -0.3982    0.0142 H         1 <0>         0.0775
     31 H6          2.5160   -0.4240   -2.2277 H         1 <0>         0.0990
     32 H7          2.5772    0.1474   -0.5431 H         1 <0>         0.0969
     33 H8          2.6502   -1.4281    1.3010 H         1 <0>         0.1377
     34 H9          3.3012   -3.6800    2.0503 H         1 <0>         0.1365
     35 H10         2.5129   -2.7955   -2.7361 H         1 <0>         0.1435
     36 H11         3.7338   -7.3129   -1.2322 H         1 <0>         0.1325
     37 H12         5.0861   -6.1362   -1.2341 H         1 <0>         0.0858
     38 H13        -1.7915   -0.1482   -1.5817 H         1 <0>         0.4300
     39 H14        -1.6693   -1.4092   -4.1958 H         1 <0>         0.4316
     40 H15        -7.1332   -1.8473   -6.1489 H         1 <0>         0.1420
     41 H16        -5.3787   -2.7371   -7.7998 H         1 <0>         0.1924
     42 H17        -6.7023    0.2816   -3.8529 H         1 <0>         0.0783
     43 H18        -7.5137   -1.2992   -3.7482 H         1 <0>         0.0685
     44 H19        -6.1236   -0.9409   -2.6958 H         1 <0>         0.0893
@<TRIPOS>BOND
     1    1    2 1
     2    1   26 1
     3    1   27 1
     4    1   28 1
     5    2    3 1
     6    2   29 1
     7    2   30 1
     8    3    4 1
     9    3   14 am
    10    4    5 1
    11    4   31 1
    12    4   32 1
    13    5   10 ar
    14    5    6 ar
    15    6    7 ar
    16    6   33 1
    17    7    8 ar
    18    7   34 1
    19    8   13 1
    20    8    9 ar
    21    9   10 ar
    22    9   11 1
    23   10   35 1
    24   11   12 1
    25   12   13 1
    26   12   36 1
    27   12   37 1
    28   14   15 2
    29   14   16 am
    30   16   17 1
    31   16   38 1
    32   17   18 am
    33   17   39 1
    34   18   19 2
    35   18   20 1
    36   20   24 1
    37   20   21 2
    38   21   22 1
    39   21   25 1
    40   22   23 2
    41   22   40 1
    42   23   24 1
    43   23   41 1
    44   25   42 1
    45   25   43 1
    46   25   44 1
@<TRIPOS>MOLECULE
ZINC08209944
   49    52     0     0     0
SMALL
USER_CHARGES
N-[[3-(7,9,10-triazabicyclo[5.3.0]deca-8,10-dien-8-yl)phenyl]carbamoylmethyl]thiophene-2-carboxamide
@<TRIPOS>ATOM
      1 C1         -1.4428   -4.1228   -0.3246 C.ar      1 <0>        -0.0934
      2 C2         -0.9799   -2.8225   -0.3465 C.ar      1 <0>        -0.1290
      3 C3         -1.8031   -1.7815    0.0842 C.ar      1 <0>         0.0062
      4 C4         -3.0963   -2.0584    0.5259 C.ar      1 <0>        -0.0771
      5 C5         -3.5540   -3.3666    0.5393 C.ar      1 <0>         0.1492
      6 C6         -2.7246   -4.3974    0.1132 C.ar      1 <0>        -0.1284
      7 N1         -4.8510   -3.6497    0.9821 N.am      1 <0>        -0.6691
      8 C7         -5.8508   -2.7791    0.7399 C.2       1 <0>         0.5076
      9 O1         -5.6490   -1.7994    0.0539 O.2       1 <0>        -0.5024
     10 C8         -7.2196   -3.0228    1.3213 C.3       1 <0>         0.1043
     11 N2         -8.1221   -1.9425    0.9154 N.am      1 <0>        -0.7160
     12 C9         -9.4074   -1.9502    1.3207 C.2       1 <0>         0.6121
     13 O2         -9.8184   -2.8545    2.0239 O.2       1 <0>        -0.5249
     14 C10       -10.3104   -0.8692    0.9146 C.2       1 <0>        -0.2466
     15 C11       -11.6523   -0.6931    1.2136 C.2       1 <0>        -0.0662
     16 C12       -12.2658    0.4227    0.7008 C.2       1 <0>        -0.1802
     17 C13       -11.5464    1.2805   -0.0692 C.2       1 <0>        -0.1793
     18 S1         -9.9706    0.5584   -0.1000 S.3       1 <0>         0.1524
     19 C14        -1.3075   -0.3876    0.0666 C.2       1 <0>         0.2106
     20 N3         -2.0396    0.7060    0.0860 N.2       1 <0>        -0.2698
     21 N4         -1.2753    1.7414    0.0678 N.2       1 <0>        -0.2888
     22 C15        -0.0257    1.3710    0.0406 C.2       1 <0>         0.1878
     23 N5         -0.0033    0.0118    0.0275 N.pl3     1 <0>        -0.4663
     24 C16         1.1848   -0.8396   -0.0279 C.3       1 <0>         0.0968
     25 C17         2.3656   -0.1050    0.6134 C.3       1 <0>        -0.1418
     26 C18         3.0949    0.7206   -0.4452 C.3       1 <0>        -0.1257
     27 C19         2.1645    1.7734   -1.0393 C.3       1 <0>        -0.1248
     28 C20         1.1890    2.2630    0.0353 C.3       1 <0>        -0.0375
     29 H1         -0.8029   -4.9276   -0.6549 H         1 <0>         0.1362
     30 H2          0.0208   -2.6113   -0.6935 H         1 <0>         0.1286
     31 H3         -3.7391   -1.2562    0.8570 H         1 <0>         0.1480
     32 H4         -3.0830   -5.4161    0.1239 H         1 <0>         0.1337
     33 H5         -5.0303   -4.4726    1.4634 H         1 <0>         0.4176
     34 H6         -7.6052   -3.9748    0.9563 H         1 <0>         0.1085
     35 H7         -7.1526   -3.0510    2.4089 H         1 <0>         0.1098
     36 H8         -7.7945   -1.2218    0.3550 H         1 <0>         0.4138
     37 H9        -12.1910   -1.4014    1.8255 H         1 <0>         0.1488
     38 H10       -13.3093    0.6141    0.9033 H         1 <0>         0.1424
     39 H11       -11.8763    2.1915   -0.5464 H         1 <0>         0.1924
     40 H12         0.9944   -1.7655    0.5148 H         1 <0>         0.1020
     41 H13         1.4197   -1.0690   -1.0673 H         1 <0>         0.0924
     42 H14         1.9984    0.5555    1.3989 H         1 <0>         0.0821
     43 H15         3.0542   -0.8319    1.0442 H         1 <0>         0.0910
     44 H16         3.9519    1.2151    0.0121 H         1 <0>         0.0756
     45 H17         3.4435    0.0599   -1.2391 H         1 <0>         0.0709
     46 H18         2.7541    2.6143   -1.4044 H         1 <0>         0.0833
     47 H19         1.6042    1.3374   -1.8664 H         1 <0>         0.0652
     48 H20         0.8881    3.2873   -0.1848 H         1 <0>         0.1031
     49 H21         1.6730    2.2257    1.0113 H         1 <0>         0.0947
@<TRIPOS>BOND
     1    1    6 ar
     2    1    2 ar
     3    1   29 1
     4    2    3 ar
     5    2   30 1
     6    3    4 ar
     7    3   19 1
     8    4    5 ar
     9    4   31 1
    10    5    6 ar
    11    5    7 1
    12    6   32 1
    13    7    8 am
    14    7   33 1
    15    8    9 2
    16    8   10 1
    17   10   11 1
    18   10   34 1
    19   10   35 1
    20   11   12 am
    21   11   36 1
    22   12   13 2
    23   12   14 1
    24   14   18 1
    25   14   15 2
    26   15   16 1
    27   15   37 1
    28   16   17 2
    29   16   38 1
    30   17   18 1
    31   17   39 1
    32   19   23 1
    33   19   20 2
    34   20   21 1
    35   21   22 2
    36   22   28 1
    37   22   23 1
    38   23   24 1
    39   24   25 1
    40   24   40 1
    41   24   41 1
    42   25   26 1
    43   25   42 1
    44   25   43 1
    45   26   27 1
    46   26   44 1
    47   26   45 1
    48   27   28 1
    49   27   46 1
    50   27   47 1
    51   28   48 1
    52   28   49 1
@<TRIPOS>MOLECULE
ZINC15830521
   55    58     0     0     0
SMALL
USER_CHARGES
N-[(5R,6S,7R)-5-(4-dimethylaminophenyl)-7-phenyl-4,5,6,7-tetrahydro-[1,2,4]triazolo[1,5-a]pyrimidin-6-yl]propanamide
@<TRIPOS>ATOM
      1 C1          6.7822   -0.3848    4.1553 C.3       1 <0>        -0.1345
      2 C2          6.2787   -0.4426    2.7116 C.3       1 <0>        -0.1437
      3 C3          5.0951    0.4770    2.5552 C.2       1 <0>         0.5137
      4 O1          4.6937    1.1157    3.5048 O.2       1 <0>        -0.5075
      5 N1          4.4825    0.5896    1.3600 N.am      1 <0>        -0.7293
      6 C4          3.3319    1.4835    1.2079 C.3       1 <0>         0.1364
      7 H1          2.7439    1.4757    2.1257 H         1 <0>         0.1277
      8 C5          3.8270    2.9098    0.9255 C.3       1 <0>         0.1924
      9 H2          2.9749    3.5706    0.7661 H         1 <0>         0.0912
     10 N2          4.6692    2.8863   -0.2862 N.pl3     1 <0>        -0.6973
     11 C6          4.1932    2.1311   -1.3499 C.2       1 <0>         0.5258
     12 N3          4.5874    2.1030   -2.5944 N.2       1 <0>        -0.5732
     13 C7          3.8426    1.2281   -3.2789 C.2       1 <0>         0.2199
     14 N4          2.9633    0.6880   -2.4728 N.2       1 <0>        -0.3153
     15 N5          3.1688    1.2546   -1.2144 N.pl3     1 <0>        -0.4098
     16 C8          2.4619    1.0010    0.0405 C.3       1 <0>         0.2026
     17 H3          2.2722   -0.0674    0.1435 H         1 <0>         0.1173
     18 C9          1.1535    1.7487    0.0431 C.ar      1 <0>        -0.1064
     19 C10         0.0375    1.1869    0.6345 C.ar      1 <0>        -0.0978
     20 C11        -1.1640    1.8704    0.6323 C.ar      1 <0>        -0.1152
     21 C12        -1.2471    3.1203    0.0475 C.ar      1 <0>        -0.1078
     22 C13        -0.1310    3.6823   -0.5435 C.ar      1 <0>        -0.1159
     23 C14         1.0694    2.9967   -0.5455 C.ar      1 <0>        -0.0977
     24 C15         4.6380    3.4036    2.0957 C.ar      1 <0>        -0.1452
     25 C16         5.9497    2.9931    2.2483 C.ar      1 <0>        -0.0424
     26 C17         6.6975    3.4481    3.3164 C.ar      1 <0>        -0.1910
     27 C18         6.1272    4.3102    4.2444 C.ar      1 <0>         0.2299
     28 C19         4.8075    4.7161    4.0913 C.ar      1 <0>        -0.1930
     29 C20         4.0671    4.2617    3.0177 C.ar      1 <0>        -0.0445
     30 N6          6.8790    4.7682    5.3288 N.pl3     1 <0>        -0.6378
     31 C21         6.2430    5.5772    6.3716 C.3       1 <0>         0.0926
     32 C22         8.3035    4.4396    5.4234 C.3       1 <0>         0.0898
     33 H4          5.9863   -0.6989    4.8305 H         1 <0>         0.0609
     34 H5          7.6383   -1.0499    4.2684 H         1 <0>         0.0597
     35 H6          7.0806    0.6357    4.3954 H         1 <0>         0.0626
     36 H7          5.9802   -1.4631    2.4716 H         1 <0>         0.0905
     37 H8          7.0746   -0.1284    2.0364 H         1 <0>         0.0895
     38 H9          4.8036    0.0787    0.6004 H         1 <0>         0.3999
     39 H10         5.5080    3.3708   -0.3366 H         1 <0>         0.4260
     40 H11         3.9498    1.0025   -4.3297 H         1 <0>         0.2173
     41 H12         0.1032    0.2119    1.0944 H         1 <0>         0.1264
     42 H13        -2.0370    1.4295    1.0904 H         1 <0>         0.1280
     43 H14        -2.1847    3.6561    0.0494 H         1 <0>         0.1261
     44 H15        -0.1967    4.6573   -1.0034 H         1 <0>         0.1251
     45 H16         1.9413    3.4358   -1.0072 H         1 <0>         0.1156
     46 H17         6.3911    2.3191    1.5290 H         1 <0>         0.1120
     47 H18         7.7232    3.1306    3.4326 H         1 <0>         0.1193
     48 H19         4.3609    5.3860    4.8112 H         1 <0>         0.1214
     49 H20         3.0412    4.5771    2.8979 H         1 <0>         0.1179
     50 H21         5.8535    4.9233    7.1518 H         1 <0>         0.0488
     51 H22         6.9774    6.2583    6.8015 H         1 <0>         0.0659
     52 H23         5.4250    6.1519    5.9372 H         1 <0>         0.0689
     53 H24         8.6180    3.9221    4.5171 H         1 <0>         0.0764
     54 H25         8.8812    5.3569    5.5371 H         1 <0>         0.0562
     55 H26         8.4712    3.7953    6.2865 H         1 <0>         0.0518
@<TRIPOS>BOND
     1    1    2 1
     2    1   33 1
     3    1   34 1
     4    1   35 1
     5    2    3 1
     6    2   36 1
     7    2   37 1
     8    3    4 2
     9    3    5 am
    10    5    6 1
    11    5   38 1
    12    6    7 1
    13    6   16 1
    14    6    8 1
    15    8    9 1
    16    8   10 1
    17    8   24 1
    18   10   11 1
    19   10   39 1
    20   11   15 1
    21   11   12 2
    22   12   13 1
    23   13   14 2
    24   13   40 1
    25   14   15 1
    26   15   16 1
    27   16   17 1
    28   16   18 1
    29   18   23 ar
    30   18   19 ar
    31   19   20 ar
    32   19   41 1
    33   20   21 ar
    34   20   42 1
    35   21   22 ar
    36   21   43 1
    37   22   23 ar
    38   22   44 1
    39   23   45 1
    40   24   29 ar
    41   24   25 ar
    42   25   26 ar
    43   25   46 1
    44   26   27 ar
    45   26   47 1
    46   27   28 ar
    47   27   30 1
    48   28   29 ar
    49   28   48 1
    50   29   49 1
    51   30   31 1
    52   30   32 1
    53   31   50 1
    54   31   51 1
    55   31   52 1
    56   32   53 1
    57   32   54 1
    58   32   55 1
@<TRIPOS>MOLECULE
ZINC43773292
   44    46     0     0     0
SMALL
USER_CHARGES

@<TRIPOS>ATOM
      1 C1         -0.0194    1.4257   -0.0479 C.3       1 <0>         0.0252
      2 O1          0.0004   -0.0032   -0.0443 O.3       1 <0>        -0.3111
      3 C2         -1.2019   -0.6368   -0.0332 C.ar      1 <0>         0.1655
      4 C3         -1.2537   -2.0202   -0.0234 C.ar      1 <0>        -0.1605
      5 C4         -2.4909   -2.6706   -0.0120 C.ar      1 <0>        -0.0039
      6 C5         -3.6697   -1.9195   -0.0105 C.ar      1 <0>        -0.1692
      7 C6         -3.6064   -0.5366   -0.0203 C.ar      1 <0>         0.1654
      8 C7         -2.3753    0.1041   -0.0259 C.ar      1 <0>        -0.2854
      9 O2         -4.7518    0.1949   -0.0188 O.3       1 <0>        -0.3119
     10 C8         -4.6132    1.6171   -0.0293 C.3       1 <0>         0.0252
     11 C9         -2.5522   -4.1415   -0.0021 C.2       1 <0>        -0.0014
     12 C10        -3.7468   -4.7664    0.0089 C.2       1 <0>        -0.2113
     13 C11        -3.8077   -6.2291    0.0188 C.2       1 <0>         0.5527
     14 O3         -2.7798   -6.8810    0.0170 O.2       1 <0>        -0.5144
     15 N1         -5.0019   -6.8537    0.0298 N.am      1 <0>        -0.6614
     16 C12        -5.0634   -8.2483   -0.0775 C.ar      1 <0>         0.1771
     17 C13        -4.0296   -8.9429   -0.6930 C.ar      1 <0>        -0.1108
     18 C14        -4.0926  -10.3204   -0.7975 C.ar      1 <0>         0.1091
     19 C15        -5.1927  -11.0079   -0.2857 C.ar      1 <0>         0.0864
     20 C16        -6.2220  -10.3135    0.3282 C.ar      1 <0>        -0.0904
     21 C17        -6.1557   -8.9362    0.4369 C.ar      1 <0>        -0.0633
     22 Cl1        -7.4419   -8.0651    1.2120 Cl        1 <0>        -0.0498
     23 N2         -5.2422  -12.4060   -0.4020 N.am      1 <0>        -0.6575
     24 C18        -4.1112  -13.0775   -0.7096 C.2       1 <0>         0.4918
     25 O4         -4.1362  -14.2827   -0.8446 O.2       1 <0>        -0.5048
     26 C19        -2.8176  -12.3231   -0.8839 C.3       1 <0>         0.0495
     27 O5         -3.0888  -11.0160   -1.3963 O.3       1 <0>        -0.2939
     28 H1          1.0031    1.8032   -0.0569 H         1 <0>         0.1049
     29 H2         -0.5452    1.7796   -0.9347 H         1 <0>         0.0566
     30 H3         -0.5312    1.7842    0.8452 H         1 <0>         0.0566
     31 H4         -0.3399   -2.5958   -0.0250 H         1 <0>         0.1408
     32 H5         -4.6283   -2.4171   -0.0020 H         1 <0>         0.1389
     33 H6         -2.3304    1.1832   -0.0291 H         1 <0>         0.1376
     34 H7         -4.0616    1.9350    0.8554 H         1 <0>         0.0566
     35 H8         -4.0716    1.9228   -0.9245 H         1 <0>         0.0567
     36 H9         -5.6008    2.0784   -0.0269 H         1 <0>         0.1047
     37 H10        -1.6402   -4.7200   -0.0036 H         1 <0>         0.1451
     38 H11        -4.6588   -4.1879    0.0105 H         1 <0>         0.1380
     39 H12        -5.8187   -6.3371    0.1121 H         1 <0>         0.4183
     40 H13        -3.1789   -8.4084   -1.0893 H         1 <0>         0.1735
     41 H14        -7.0734  -10.8470    0.7243 H         1 <0>         0.1503
     42 H15        -6.0755  -12.8826   -0.2632 H         1 <0>         0.4185
     43 H16        -2.3146  -12.2381    0.0794 H         1 <0>         0.1051
     44 H17        -2.1755  -12.8604   -1.5818 H         1 <0>         0.1510
@<TRIPOS>BOND
     1    1    2 1
     2    1   28 1
     3    1   29 1
     4    1   30 1
     5    2    3 1
     6    3    8 ar
     7    3    4 ar
     8    4    5 ar
     9    4   31 1
    10    5    6 ar
    11    5   11 1
    12    6    7 ar
    13    6   32 1
    14    7    8 ar
    15    7    9 1
    16    8   33 1
    17    9   10 1
    18   10   34 1
    19   10   35 1
    20   10   36 1
    21   11   12 2
    22   11   37 1
    23   12   13 1
    24   12   38 1
    25   13   14 2
    26   13   15 am
    27   15   16 1
    28   15   39 1
    29   16   21 ar
    30   16   17 ar
    31   17   18 ar
    32   17   40 1
    33   18   27 1
    34   18   19 ar
    35   19   20 ar
    36   19   23 1
    37   20   21 ar
    38   20   41 1
    39   21   22 1
    40   23   24 am
    41   23   42 1
    42   24   25 2
    43   24   26 1
    44   26   27 1
    45   26   43 1
    46   26   44 1
@<TRIPOS>MOLECULE
ZINC64391953
   52    55     0     0     0
SMALL
USER_CHARGES

@<TRIPOS>ATOM
      1 C1         -0.0184    1.5028    0.0103 C.3       1 <0>        -0.1203
      2 C2          0.0021   -0.0041    0.0020 C.ar      1 <0>        -0.0770
      3 C3          0.0057   -0.6888   -1.1991 C.ar      1 <0>        -0.1189
      4 C4          0.0245   -2.0707   -1.2067 C.ar      1 <0>        -0.0866
      5 C5          0.0400   -2.7685   -0.0132 C.ar      1 <0>        -0.0989
      6 C6          0.0373   -2.0840    1.1875 C.ar      1 <0>        -0.1033
      7 C7          0.0229   -0.7015    1.1951 C.ar      1 <0>        -0.0847
      8 C8          0.0252    0.0449    2.5043 C.3       1 <0>        -0.1186
      9 C9          0.0595   -4.2753   -0.0215 C.3       1 <0>         0.2444
     10 H1         -0.9561   -4.6709   -0.0055 H         1 <0>         0.1040
     11 N1          0.7975   -4.7808   -1.2031 N.3       1 <0>        -0.6868
     12 C10         1.5692   -5.9518   -0.7402 C.3       1 <0>         0.2324
     13 H2          2.6355   -5.7701   -0.8749 H         1 <0>         0.1125
     14 O1          1.2752   -6.1297    0.6576 O.3       1 <0>        -0.2167
     15 N2          0.8418   -4.7950    1.1320 N.3       1 <0>        -0.4469
     16 C11         1.1499   -7.1955   -1.5265 C.3       1 <0>        -0.1546
     17 H3          1.4028   -7.0852   -2.5810 H         1 <0>         0.1517
     18 C12        -0.3330   -7.4595   -1.3576 C.2       1 <0>         0.0711
     19 N3         -0.4296   -8.6202   -0.7953 N.2       1 <0>        -0.2850
     20 N4          0.8116   -9.1987   -0.5512 N.2       1 <0>        -0.3051
     21 C13         1.7995   -8.4373   -0.9484 C.2       1 <0>         0.1687
     22 C14         3.2383   -8.7232   -0.8537 C.ar      1 <0>        -0.0445
     23 C15         4.1713   -7.7918   -1.3232 C.ar      1 <0>        -0.0806
     24 C16         5.5192   -8.0624   -1.2333 C.ar      1 <0>        -0.1773
     25 C17         5.9554   -9.2576   -0.6776 C.ar      1 <0>         0.1280
     26 C18         5.0322  -10.1908   -0.2080 C.ar      1 <0>         0.0981
     27 C19         3.6792   -9.9251   -0.2885 C.ar      1 <0>        -0.1238
     28 O2          5.4642  -11.3605    0.3347 O.3       1 <0>        -0.3029
     29 C20         4.4634  -12.2705    0.7956 C.3       1 <0>         0.0227
     30 O3          7.2858   -9.5187   -0.5917 O.3       1 <0>        -0.3005
     31 C21         8.1767   -8.5198   -1.0922 C.3       1 <0>         0.0227
     32 H4          1.0042    1.8801    0.0026 H         1 <0>         0.0724
     33 H5         -0.5455    1.8639   -0.8728 H         1 <0>         0.0677
     34 H6         -0.5286    1.8543    0.9071 H         1 <0>         0.0702
     35 H7         -0.0064   -0.1437   -2.1314 H         1 <0>         0.1248
     36 H8          0.0266   -2.6056   -2.1449 H         1 <0>         0.1264
     37 H9          0.0491   -2.6290    2.1199 H         1 <0>         0.1284
     38 H10        -1.0017    0.2110    2.8297 H         1 <0>         0.0723
     39 H11         0.5542   -0.5412    3.2558 H         1 <0>         0.0678
     40 H12         0.5249    1.0049    2.3743 H         1 <0>         0.0701
     41 H13         0.1621   -5.0364   -1.9441 H         1 <0>         0.3584
     42 H14         1.6373   -4.2049    1.3246 H         1 <0>         0.3532
     43 H15        -1.1451   -6.8094   -1.6479 H         1 <0>         0.1971
     44 H16         3.8348   -6.8614   -1.7563 H         1 <0>         0.1321
     45 H17         6.2383   -7.3431   -1.5963 H         1 <0>         0.1448
     46 H18         2.9633  -10.6452    0.0794 H         1 <0>         0.1492
     47 H19         4.9420  -13.1605    1.2041 H         1 <0>         0.1046
     48 H20         3.8657  -11.7911    1.5708 H         1 <0>         0.0584
     49 H21         3.8192  -12.5541   -0.0367 H         1 <0>         0.0578
     50 H22         7.9786   -8.3539   -2.1511 H         1 <0>         0.0583
     51 H23         8.0247   -7.5899   -0.5441 H         1 <0>         0.0584
     52 H24         9.2063   -8.8535   -0.9631 H         1 <0>         0.1044
@<TRIPOS>BOND
     1    1    2 1
     2    1   32 1
     3    1   33 1
     4    1   34 1
     5    2    7 ar
     6    2    3 ar
     7    3    4 ar
     8    3   35 1
     9    4    5 ar
    10    4   36 1
    11    5    6 ar
    12    5    9 1
    13    6    7 ar
    14    6   37 1
    15    7    8 1
    16    8   38 1
    17    8   39 1
    18    8   40 1
    19    9   10 1
    20    9   15 1
    21    9   11 1
    22   11   12 1
    23   11   41 1
    24   12   13 1
    25   12   14 1
    26   12   16 1
    27   14   15 1
    28   15   42 1
    29   16   17 1
    30   16   21 1
    31   16   18 1
    32   18   19 2
    33   18   43 1
    34   19   20 1
    35   20   21 2
    36   21   22 1
    37   22   27 ar
    38   22   23 ar
    39   23   24 ar
    40   23   44 1
    41   24   25 ar
    42   24   45 1
    43   25   26 ar
    44   25   30 1
    45   26   27 ar
    46   26   28 1
    47   27   46 1
    48   28   29 1
    49   29   47 1
    50   29   48 1
    51   29   49 1
    52   30   31 1
    53   31   50 1
    54   31   51 1
    55   31   52 1
@<TRIPOS>MOLECULE
ZINC66818300
   49    52     0     0     0
SMALL
USER_CHARGES

@<TRIPOS>ATOM
      1 C1         -0.0184    1.5028    0.0103 C.3       1 <0>        -0.0744
      2 C2          0.0021   -0.0041    0.0020 C.2       1 <0>         0.1105
      3 C3          0.0078   -0.8062   -1.1328 C.2       1 <0>        -0.2669
      4 C4          0.0277   -2.1297   -0.7144 C.2       1 <0>         0.3044
      5 N1          0.0401   -3.2806   -1.4116 N.2       1 <0>        -0.5440
      6 C5          0.0589   -4.4551   -0.8193 C.2       1 <0>         0.4780
      7 C6          0.0665   -4.5110    0.6491 C.ar      1 <0>        -0.1545
      8 C7          0.0868   -5.7238    1.3383 C.ar      1 <0>        -0.0581
      9 C8          0.0934   -5.7240    2.7058 C.ar      1 <0>        -0.1337
     10 C9          0.0798   -4.5304    3.4132 C.ar      1 <0>        -0.0619
     11 C10         0.0597   -3.3206    2.7508 C.ar      1 <0>        -0.1290
     12 C11         0.0531   -3.2992    1.3629 C.ar      1 <0>         0.2143
     13 N2          0.0337   -2.1111    0.6531 N.pl3     1 <0>        -0.3466
     14 N3          0.0231   -0.7724    1.0641 N.2       1 <0>        -0.3050
     15 N4          0.0709   -5.6165   -1.5653 N.pl3     1 <0>        -0.6904
     16 C12         0.0627   -5.5473   -3.0286 C.3       1 <0>         0.1914
     17 H1         -0.5399   -4.6972   -3.3488 H         1 <0>         0.1098
     18 C13         1.4950   -5.3782   -3.5392 C.3       1 <0>        -0.1607
     19 C14        -0.5235   -6.8178   -3.5883 C.ar      1 <0>        -0.1139
     20 C15        -0.2158   -8.0348   -3.0091 C.ar      1 <0>        -0.0603
     21 C16        -0.7534   -9.2001   -3.5225 C.ar      1 <0>        -0.1318
     22 C17        -1.5993   -9.1485   -4.6149 C.ar      1 <0>        -0.0154
     23 C18        -1.9076   -7.9317   -5.1934 C.ar      1 <0>        -0.6712
     24 C19        -1.3732   -6.7657   -4.6772 C.ar      1 <0>        -0.0077
     25 S1         -2.9851   -7.8661   -6.5859 S.o2      1 <0>         2.6952
     26 O1         -2.6819   -6.6624   -7.2777 O.2       1 <0>        -0.9507
     27 O2         -2.9197   -9.1408   -7.2105 O.2       1 <0>        -0.9553
     28 N5         -4.5271   -7.7024   -6.0046 N.pl3     1 <0>        -1.1192
     29 C20        -4.9106   -6.4903   -5.2766 C.3       1 <0>         0.0813
     30 H2          1.0042    1.8801    0.0026 H         1 <0>         0.0823
     31 H3         -0.5455    1.8639   -0.8728 H         1 <0>         0.0834
     32 H4         -0.5286    1.8543    0.9071 H         1 <0>         0.0761
     33 H5         -0.0019   -0.4618   -2.1563 H         1 <0>         0.1583
     34 H6          0.0968   -6.6571    0.7950 H         1 <0>         0.1346
     35 H7          0.1091   -6.6623    3.2404 H         1 <0>         0.1381
     36 H8          0.0845   -4.5487    4.4930 H         1 <0>         0.1407
     37 H9          0.0488   -2.3958    3.3085 H         1 <0>         0.1465
     38 H10         0.0847   -6.4784   -1.1206 H         1 <0>         0.4097
     39 H11         1.4889   -5.3267   -4.6280 H         1 <0>         0.0736
     40 H12         1.9190   -4.4593   -3.1344 H         1 <0>         0.0718
     41 H13         2.0976   -6.2282   -3.2191 H         1 <0>         0.0587
     42 H14         0.4449   -8.0751   -2.1558 H         1 <0>         0.1286
     43 H15        -0.5125  -10.1509   -3.0705 H         1 <0>         0.1377
     44 H16        -2.0188  -10.0591   -5.0165 H         1 <0>         0.1436
     45 H17        -1.6171   -5.8146   -5.1269 H         1 <0>         0.1451
     46 H18        -5.1763   -8.4090   -6.1461 H         1 <0>         0.4208
     47 H19        -5.9553   -6.5632   -4.9744 H         1 <0>         0.0856
     48 H20        -4.2830   -6.3839   -4.3919 H         1 <0>         0.0591
     49 H21        -4.7789   -5.6218   -5.9221 H         1 <0>         0.0715
@<TRIPOS>BOND
     1    1    2 1
     2    1   30 1
     3    1   31 1
     4    1   32 1
     5    2   14 2
     6    2    3 1
     7    3    4 2
     8    3   33 1
     9    4   13 1
    10    4    5 1
    11    5    6 2
    12    6    7 1
    13    6   15 1
    14    7   12 ar
    15    7    8 ar
    16    8    9 ar
    17    8   34 1
    18    9   10 ar
    19    9   35 1
    20   10   11 ar
    21   10   36 1
    22   11   12 ar
    23   11   37 1
    24   12   13 1
    25   13   14 1
    26   15   16 1
    27   15   38 1
    28   16   17 1
    29   16   18 1
    30   16   19 1
    31   18   39 1
    32   18   40 1
    33   18   41 1
    34   19   24 ar
    35   19   20 ar
    36   20   21 ar
    37   20   42 1
    38   21   22 ar
    39   21   43 1
    40   22   23 ar
    41   22   44 1
    42   23   24 ar
    43   23   25 1
    44   24   45 1
    45   25   26 2
    46   25   27 2
    47   25   28 1
    48   28   29 1
    49   28   46 1
    50   29   47 1
    51   29   48 1
    52   29   49 1
@<TRIPOS>MOLECULE
ZINC14528826
   55    58     0     0     0
SMALL
USER_CHARGES
N-[4-[[(3R,5R)-3,5-dimethyl-1-piperidyl]methyl]thiazol-2-yl]-2-(4-oxo-3H-phthalazin-1-yl)acetamide
@<TRIPOS>ATOM
      1 C1          4.8296    5.2923   -4.4667 C.3       1 <0>        -0.1510
      2 C2          3.6514    5.8015   -3.6340 C.3       1 <0>        -0.1124
      3 H1          2.7226    5.3845   -4.0234 H         1 <0>         0.0923
      4 C3          3.5959    7.3299   -3.7078 C.3       1 <0>        -0.1287
      5 C4          2.4517    7.8345   -2.8242 C.3       1 <0>        -0.1139
      6 H2          2.4333    8.9243   -2.8388 H         1 <0>         0.1198
      7 C5          2.6677    7.3464   -1.3900 C.3       1 <0>         0.0016
      8 C6          3.8326    5.3723   -2.1763 C.3       1 <0>        -0.0056
      9 C7          2.7802    5.3703    0.0039 C.3       1 <0>         0.0825
     10 C8          2.5781    3.8769   -0.0017 C.2       1 <0>         0.0184
     11 C9          3.6392    3.0336   -0.0164 C.2       1 <0>        -0.2465
     12 S1          2.8066    1.4525   -0.0093 S.3       1 <0>         0.2386
     13 C10         1.1780    2.0549    0.0018 C.2       1 <0>         0.3003
     14 N1          1.3649    3.3603    0.0071 N.2       1 <0>        -0.5543
     15 N2         -0.0162    1.3436    0.0094 N.am      1 <0>        -0.6128
     16 C11         0.0021   -0.0041    0.0020 C.2       1 <0>         0.5090
     17 O1          1.0605   -0.5961   -0.0113 O.2       1 <0>        -0.4447
     18 C12        -1.2926   -0.7753    0.0102 C.3       1 <0>        -0.0638
     19 C13        -0.9972   -2.2530   -0.0005 C.2       1 <0>         0.1141
     20 C14        -2.0962   -3.2186    0.0108 C.ar      1 <0>        -0.0578
     21 C15        -3.4325   -2.8141    0.0203 C.ar      1 <0>        -0.1033
     22 C16        -4.4242   -3.7549    0.0233 C.ar      1 <0>        -0.0840
     23 C17        -4.1218   -5.1105    0.0121 C.ar      1 <0>        -0.1077
     24 C18        -2.8126   -5.5390   -0.0023 C.ar      1 <0>        -0.0508
     25 C19        -1.7844   -4.5973   -0.0061 C.ar      1 <0>        -0.1241
     26 C20        -0.3698   -4.9896   -0.0217 C.2       1 <0>         0.5266
     27 O2         -0.0519   -6.1655   -0.0310 O.2       1 <0>        -0.5126
     28 N3          0.5717   -4.0229   -0.0250 N.am      1 <0>        -0.5338
     29 H3          1.5081   -4.2759   -0.0353 H         1 <0>         0.4387
     30 N4          0.2340   -2.6694   -0.0145 N.2       1 <0>        -0.1754
     31 C21         1.1216    7.2940   -3.3529 C.3       1 <0>        -0.1704
     32 H4          5.7579    5.7086   -4.0753 H         1 <0>         0.0679
     33 H5          4.8686    4.2043   -4.4138 H         1 <0>         0.0672
     34 H6          4.7018    5.6013   -5.5041 H         1 <0>         0.0769
     35 H7          3.4235    7.6388   -4.7388 H         1 <0>         0.0940
     36 H8          4.5395    7.7461   -3.3548 H         1 <0>         0.0838
     37 H9          1.8471    7.6920   -0.7613 H         1 <0>         0.1295
     38 H10         3.6089    7.7431   -1.0094 H         1 <0>         0.1326
     39 H11         4.7683    5.7782   -1.7918 H         1 <0>         0.1323
     40 H12         3.8581    4.2841   -2.1186 H         1 <0>         0.1253
     41 H13         2.0006    5.8402    0.6034 H         1 <0>         0.1408
     42 H14         3.7561    5.6032    0.4298 H         1 <0>         0.1449
     43 H15         4.6960    3.2559   -0.0253 H         1 <0>         0.2051
     44 H16        -0.8627    1.8171    0.0160 H         1 <0>         0.4303
     45 H17        -1.8592   -0.5245    0.9070 H         1 <0>         0.1376
     46 H18        -1.8762   -0.5150   -0.8728 H         1 <0>         0.1371
     47 H19        -3.6813   -1.7632    0.0291 H         1 <0>         0.1396
     48 H20        -5.4571   -3.4397    0.0349 H         1 <0>         0.1384
     49 H21        -4.9216   -5.8363    0.0151 H         1 <0>         0.1402
     50 H22        -2.5848   -6.5947   -0.0109 H         1 <0>         0.1461
     51 H23         0.3077    7.6507   -2.7216 H         1 <0>         0.0735
     52 H24         0.9682    7.6421   -4.3745 H         1 <0>         0.0844
     53 H25         1.1411    6.2043   -3.3394 H         1 <0>         0.0498
     54 N5          2.6870    5.8682   -1.3841 N.4       1 <0>        -0.3929
     55 H26         1.8166    5.5222   -1.8046 H         1 <0>         0.4275
@<TRIPOS>BOND
     1    1    2 1
     2    1   32 1
     3    1   33 1
     4    1   34 1
     5    2    3 1
     6    2    8 1
     7    2    4 1
     8    4    5 1
     9    4   35 1
    10    4   36 1
    11    5    6 1
    12    5    7 1
    13    5   31 1
    14    7   37 1
    15    7   38 1
    16    7   54 1
    17    8   39 1
    18    8   40 1
    19    8   54 1
    20    9   10 1
    21    9   41 1
    22    9   42 1
    23    9   54 1
    24   10   14 1
    25   10   11 2
    26   11   12 1
    27   11   43 1
    28   12   13 1
    29   13   14 2
    30   13   15 1
    31   15   16 am
    32   15   44 1
    33   16   17 2
    34   16   18 1
    35   18   19 1
    36   18   45 1
    37   18   46 1
    38   19   30 2
    39   19   20 1
    40   20   25 ar
    41   20   21 ar
    42   21   22 ar
    43   21   47 1
    44   22   23 ar
    45   22   48 1
    46   23   24 ar
    47   23   49 1
    48   24   25 ar
    49   24   50 1
    50   25   26 1
    51   26   27 2
    52   26   28 am
    53   28   29 1
    54   28   30 1
    55   31   51 1
    56   31   52 1
    57   31   53 1
    58   54   55 1
@<TRIPOS>MOLECULE
ZINC13594501
   61    63     0     0     0
SMALL
USER_CHARGES

@<TRIPOS>ATOM
      1 C1         -3.9420   -6.7532   10.8965 C.3       1 <0>        -0.0780
      2 C2         -3.1370   -5.9675    9.8936 C.2       1 <0>         0.0854
      3 C3         -2.6895   -4.6518   10.0512 C.2       1 <0>        -0.2626
      4 C4         -2.0050   -4.3084    8.9356 C.2       1 <0>         0.0821
      5 N1         -2.0188   -5.3692    8.1016 N.pl3     1 <0>        -0.3784
      6 N2         -2.7311   -6.4004    8.7275 N.2       1 <0>        -0.2936
      7 C5         -1.3945   -5.4331    6.7778 C.3       1 <0>         0.1252
      8 C6          0.0419   -5.9416    6.9154 C.3       1 <0>         0.1002
      9 N3          0.6662   -6.0054    5.5916 N.am      1 <0>        -0.7064
     10 C7          1.9398   -6.4282    5.4668 C.2       1 <0>         0.5094
     11 O1          2.5691   -6.7558    6.4505 O.2       1 <0>        -0.5423
     12 C8          2.5820   -6.4939    4.1051 C.3       1 <0>        -0.1651
     13 C9          4.0616   -6.8529    4.2558 C.3       1 <0>         0.0349
     14 H1          4.5182   -6.9255    3.2687 H         1 <0>         0.1765
     15 C10         4.1843   -8.1745    4.9596 C.2       1 <0>         0.5251
     16 O2          3.4232   -9.0685    4.6554 O.2       1 <0>        -0.4948
     17 N4          5.0992   -8.4054    5.9080 N.am      1 <0>        -0.7114
     18 C11         6.0396   -7.3831    6.3601 C.3       1 <0>         0.0857
     19 C12         6.1087   -6.2495    5.3350 C.3       1 <0>        -0.0269
     20 N5          4.7401   -5.8061    5.0300 N.4       1 <0>        -0.3879
     21 C13         4.7913   -4.5670    4.2426 C.3       1 <0>        -0.0175
     22 C14         5.3542   -3.4366    5.1066 C.3       1 <0>        -0.1124
     23 C15         4.3890   -3.1453    6.2574 C.3       1 <0>        -0.1294
     24 C16         4.9519   -2.0149    7.1214 C.3       1 <0>        -0.1188
     25 C17         5.1221   -0.7568    6.2676 C.3       1 <0>        -0.1262
     26 C18         6.0873   -1.0481    5.1167 C.3       1 <0>        -0.1223
     27 C19         5.5244   -2.1785    4.2528 C.3       1 <0>        -0.1102
     28 C20        -1.3458   -2.9792    8.6715 C.3       1 <0>        -0.0928
     29 H2         -3.2674   -7.2850   11.5674 H         1 <0>         0.0798
     30 H3         -4.5669   -6.0722   11.4743 H         1 <0>         0.0816
     31 H4         -4.5741   -7.4706   10.3731 H         1 <0>         0.0750
     32 H5         -2.8607   -4.0211   10.9110 H         1 <0>         0.1510
     33 H6         -1.9612   -6.1127    6.1413 H         1 <0>         0.1047
     34 H7         -1.3868   -4.4387    6.3314 H         1 <0>         0.0998
     35 H8          0.6085   -5.2619    7.5519 H         1 <0>         0.0810
     36 H9          0.0342   -6.9359    7.3618 H         1 <0>         0.0873
     37 H10         0.1629   -5.7434    4.8049 H         1 <0>         0.4117
     38 H11         2.0830   -7.2543    3.5044 H         1 <0>         0.1590
     39 H12         2.4914   -5.5253    3.6136 H         1 <0>         0.1308
     40 H13         5.1395   -9.2865    6.3117 H         1 <0>         0.4266
     41 H14         5.7078   -6.9845    7.3188 H         1 <0>         0.0980
     42 H15         7.0284   -7.8267    6.4765 H         1 <0>         0.1282
     43 H16         6.6792   -5.4176    5.7481 H         1 <0>         0.1546
     44 H17         6.5895   -6.6086    4.4251 H         1 <0>         0.1428
     45 H18         5.4332   -4.7146    3.3742 H         1 <0>         0.1395
     46 H19         3.7864   -4.3052    3.9114 H         1 <0>         0.1315
     47 H20         6.3216   -3.7352    5.5105 H         1 <0>         0.0968
     48 H21         3.4216   -2.8467    5.8535 H         1 <0>         0.0769
     49 H22         4.2678   -4.0416    6.8657 H         1 <0>         0.0548
     50 H23         4.2643   -1.8074    7.9412 H         1 <0>         0.0730
     51 H24         5.9193   -2.3136    7.5252 H         1 <0>         0.0682
     52 H25         4.1547   -0.4582    5.8637 H         1 <0>         0.0661
     53 H26         5.5231    0.0485    6.8830 H         1 <0>         0.0722
     54 H27         6.2085   -0.1518    4.5084 H         1 <0>         0.0754
     55 H28         7.0546   -1.3467    5.5206 H         1 <0>         0.0676
     56 H29         6.2120   -2.3860    3.4329 H         1 <0>         0.0760
     57 H30         4.5570   -1.8799    3.8489 H         1 <0>         0.0746
     58 H31        -0.3181   -3.0049    9.0339 H         1 <0>         0.0788
     59 H32        -1.3483   -2.7788    7.6001 H         1 <0>         0.0679
     60 H33        -1.8941   -2.1924    9.1896 H         1 <0>         0.0905
     61 H34         4.2373   -5.6418    5.8893 H         1 <0>         0.4311
@<TRIPOS>BOND
     1    1    2 1
     2    1   29 1
     3    1   30 1
     4    1   31 1
     5    2    6 2
     6    2    3 1
     7    3    4 2
     8    3   32 1
     9    4    5 1
    10    4   28 1
    11    5    6 1
    12    5    7 1
    13    7    8 1
    14    7   33 1
    15    7   34 1
    16    8    9 1
    17    8   35 1
    18    8   36 1
    19    9   10 am
    20    9   37 1
    21   10   11 2
    22   10   12 1
    23   12   13 1
    24   12   38 1
    25   12   39 1
    26   13   14 1
    27   13   20 1
    28   13   15 1
    29   15   16 2
    30   15   17 am
    31   17   18 1
    32   17   40 1
    33   18   19 1
    34   18   41 1
    35   18   42 1
    36   19   20 1
    37   19   43 1
    38   19   44 1
    39   20   21 1
    40   20   61 1
    41   21   22 1
    42   21   45 1
    43   21   46 1
    44   22   27 1
    45   22   23 1
    46   22   47 1
    47   23   24 1
    48   23   48 1
    49   23   49 1
    50   24   25 1
    51   24   50 1
    52   24   51 1
    53   25   26 1
    54   25   52 1
    55   25   53 1
    56   26   27 1
    57   26   54 1
    58   26   55 1
    59   27   56 1
    60   27   57 1
    61   28   58 1
    62   28   59 1
    63   28   60 1
@<TRIPOS>MOLECULE
ZINC46728383
   56    59     0     0     0
SMALL
USER_CHARGES

@<TRIPOS>ATOM
      1 C1         -0.2339    1.1640    1.5896 C.ar      1 <0>        -0.1094
      2 C2          0.9253    1.9036    1.4461 C.ar      1 <0>        -0.1139
      3 C3          2.1338    1.2655    1.2407 C.ar      1 <0>        -0.1132
      4 C4          2.1868   -0.1191    1.1783 C.ar      1 <0>         0.0453
      5 C5          1.0219   -0.8626    1.3250 C.ar      1 <0>         0.0490
      6 C6         -0.1879   -0.2159    1.5295 C.ar      1 <0>        -0.1104
      7 O1          1.0526   -2.2224    1.2749 O.3       1 <0>        -0.3003
      8 C7          2.2195   -2.8190    0.6984 C.3       1 <0>         0.0302
      9 C8          3.4551   -2.1272    1.2898 C.3       1 <0>         0.0386
     10 H1          3.4664   -2.2569    2.3720 H         1 <0>         0.0933
     11 O2          3.3837   -0.7332    0.9713 O.3       1 <0>        -0.3058
     12 C9          4.7239   -2.7314    0.6846 C.3       1 <0>         0.1485
     13 N1          5.9002   -2.1522    1.3381 N.am      1 <0>        -0.7342
     14 C10         7.1366   -2.5378    0.9649 C.2       1 <0>         0.7107
     15 O3          7.2756   -3.3663    0.0859 O.2       1 <0>        -0.5684
     16 N2          8.2188   -2.0051    1.5661 N.am      1 <0>        -0.7619
     17 C11         9.5627   -2.4242    1.1605 C.3       1 <0>         0.1162
     18 C12        10.6044   -1.5807    1.8983 C.3       1 <0>         0.1239
     19 H2         11.5990   -1.8221    1.5234 H         1 <0>         0.1770
     20 C13        10.5379   -1.8784    3.3741 C.2       1 <0>        -0.1075
     21 C14        11.3702   -2.6898    4.0512 C.2       1 <0>        -0.1268
     22 C15        10.9464   -2.6779    5.4000 C.2       1 <0>        -0.2101
     23 C16         9.8806   -1.8600    5.4664 C.2       1 <0>         0.0089
     24 O4          9.6413   -1.3741    4.2375 O.3       1 <0>        -0.1849
     25 N3         10.3289   -0.1554    1.6733 N.4       1 <0>        -0.3846
     26 C17        10.4023    0.1347    0.2364 C.3       1 <0>        -0.0158
     27 C18        10.0368    1.5998   -0.0113 C.3       1 <0>        -0.1434
     28 C19        11.0190    2.5000    0.7437 C.3       1 <0>        -0.1390
     29 C20        10.9882    2.1377    2.2313 C.3       1 <0>        -0.1440
     30 C21        11.3185    0.6526    2.3959 C.3       1 <0>        -0.0068
     31 H3         -1.1763    1.6654    1.7535 H         1 <0>         0.1364
     32 H4          0.8864    2.9818    1.4943 H         1 <0>         0.1348
     33 H5          3.0379    1.8456    1.1282 H         1 <0>         0.1319
     34 H6         -1.0950   -0.7912    1.6418 H         1 <0>         0.1381
     35 H7          2.2444   -3.8824    0.9366 H         1 <0>         0.1282
     36 H8          2.2051   -2.6842   -0.3831 H         1 <0>         0.0847
     37 H9          4.7195   -3.8110    0.8347 H         1 <0>         0.0987
     38 H10         4.7568   -2.5130   -0.3828 H         1 <0>         0.0879
     39 H11         5.7893   -1.4913    2.0393 H         1 <0>         0.4020
     40 H12         8.1079   -1.3441    2.2673 H         1 <0>         0.3922
     41 H13         9.7054   -3.4761    1.4080 H         1 <0>         0.1163
     42 H14         9.6777   -2.2850    0.0855 H         1 <0>         0.1084
     43 H15        12.2020   -3.2444    3.6428 H         1 <0>         0.1632
     44 H16        11.3926   -3.2215    6.2196 H         1 <0>         0.1644
     45 H17         9.3156   -1.6299    6.3576 H         1 <0>         0.2185
     46 H18        11.4153   -0.0518   -0.1202 H         1 <0>         0.1358
     47 H19         9.7051   -0.5089   -0.2999 H         1 <0>         0.1341
     48 H20        10.0937    1.8137   -1.0786 H         1 <0>         0.1157
     49 H21         9.0238    1.7874    0.3446 H         1 <0>         0.0868
     50 H22        12.0254    2.3499    0.3527 H         1 <0>         0.0840
     51 H23        10.7292    3.5430    0.6165 H         1 <0>         0.0959
     52 H24        11.7252    2.7360    2.7670 H         1 <0>         0.1143
     53 H25         9.9950    2.3364    2.6338 H         1 <0>         0.0866
     54 H26        11.2977    0.3914    3.4539 H         1 <0>         0.1287
     55 H27        12.3120    0.4551    1.9933 H         1 <0>         0.1328
     56 H28         9.4043    0.0649    2.0121 H         1 <0>         0.4186
@<TRIPOS>BOND
     1    1    6 ar
     2    1    2 ar
     3    1   31 1
     4    2    3 ar
     5    2   32 1
     6    3    4 ar
     7    3   33 1
     8    4   11 1
     9    4    5 ar
    10    5    6 ar
    11    5    7 1
    12    6   34 1
    13    7    8 1
    14    8    9 1
    15    8   35 1
    16    8   36 1
    17    9   10 1
    18    9   11 1
    19    9   12 1
    20   12   13 1
    21   12   37 1
    22   12   38 1
    23   13   14 am
    24   13   39 1
    25   14   15 2
    26   14   16 am
    27   16   17 1
    28   16   40 1
    29   17   18 1
    30   17   41 1
    31   17   42 1
    32   18   19 1
    33   18   20 1
    34   18   25 1
    35   20   24 1
    36   20   21 2
    37   21   22 1
    38   21   43 1
    39   22   23 2
    40   22   44 1
    41   23   24 1
    42   23   45 1
    43   25   30 1
    44   25   26 1
    45   25   56 1
    46   26   27 1
    47   26   46 1
    48   26   47 1
    49   27   28 1
    50   27   48 1
    51   27   49 1
    52   28   29 1
    53   28   50 1
    54   28   51 1
    55   29   30 1
    56   29   52 1
    57   29   53 1
    58   30   54 1
    59   30   55 1
@<TRIPOS>MOLECULE
ZINC61510048
   65    67     0     0     0
SMALL
USER_CHARGES

@<TRIPOS>ATOM
      1 C1         -0.0187    1.5258    0.0104 C.3       1 <0>        -0.1567
      2 C2          0.0021   -0.0041    0.0020 C.3       1 <0>        -0.1507
      3 C3          0.7421   -0.5109    1.2415 C.3       1 <0>        -0.0115
      4 N1          0.7620   -1.9797    1.2335 N.4       1 <0>        -0.3851
      5 C4          1.5443   -2.4507    0.0842 C.3       1 <0>        -0.0061
      6 C5          1.5009   -3.9791    0.0247 C.3       1 <0>        -0.1550
      7 C6          2.0923   -4.5518    1.3160 C.3       1 <0>         0.1372
      8 C7          1.3153   -3.9953    2.5125 C.3       1 <0>        -0.1616
      9 C8          1.3656   -2.4663    2.4799 C.3       1 <0>        -0.0020
     10 N2          1.9845   -6.0127    1.2984 N.am      1 <0>        -0.7274
     11 C9          2.8385   -6.7603    2.0253 C.2       1 <0>         0.5081
     12 O1          3.6962   -6.2235    2.6939 O.2       1 <0>        -0.5138
     13 C10         2.7275   -8.2631    2.0072 C.3       1 <0>         0.1015
     14 N3          3.7599   -8.8389    2.8703 N.am      1 <0>        -0.5699
     15 C11         5.0069   -9.1560    2.4591 C.2       1 <0>         0.5405
     16 O2          5.5103   -8.8599    1.3976 O.2       1 <0>        -0.4458
     17 C12         5.6178   -9.9386    3.5965 C.3       1 <0>         0.1388
     18 C13         6.9859   -9.3857    3.9641 C.3       1 <0>        -0.1077
     19 C14         8.0082   -9.7587    2.8904 C.3       1 <0>        -0.0943
     20 C15         8.1168  -11.2804    2.8256 C.3       1 <0>        -0.1056
     21 C16         6.7827  -11.9099    2.4417 C.3       1 <0>        -0.0554
     22 C17         5.6366  -11.4274    3.3141 C.3       1 <0>        -0.1038
     23 C18         6.9129  -13.4376    2.6252 C.3       1 <0>        -0.1469
     24 C19         6.4849  -11.6492    0.9625 C.3       1 <0>        -0.1593
     25 C20         9.3722   -9.1683    3.2631 C.3       1 <0>        -0.1475
     26 N4          4.6821   -9.6810    4.7149 N.am      1 <0>        -0.7216
     27 C21         3.5996   -9.0951    4.1739 C.2       1 <0>         0.7108
     28 O3          2.5900   -8.8286    4.7964 O.2       1 <0>        -0.5423
     29 H1          1.0039    1.9031    0.0027 H         1 <0>         0.0671
     30 H2         -0.5459    1.8868   -0.8726 H         1 <0>         0.0775
     31 H3         -0.5289    1.8773    0.9072 H         1 <0>         0.0674
     32 H4         -1.0205   -0.3814    0.0098 H         1 <0>         0.0860
     33 H5          0.5123   -0.3556   -0.8948 H         1 <0>         0.0859
     34 H6          1.7647   -0.1336    1.2338 H         1 <0>         0.1303
     35 H7          0.2319   -0.1594    2.1383 H         1 <0>         0.1320
     36 H8          1.1241   -2.0397   -0.8337 H         1 <0>         0.1384
     37 H9          2.5779   -2.1208    0.1892 H         1 <0>         0.1326
     38 H10         0.4677   -4.3100   -0.0805 H         1 <0>         0.0959
     39 H11         2.0838   -4.3268   -0.8282 H         1 <0>         0.1206
     40 H12         3.1404   -4.2635    1.3960 H         1 <0>         0.1054
     41 H13         0.2782   -4.3266    2.4589 H         1 <0>         0.0924
     42 H14         1.7655   -4.3546    3.4378 H         1 <0>         0.1174
     43 H15         2.4030   -2.1361    2.5337 H         1 <0>         0.1316
     44 H16         0.8134   -2.0668    3.3305 H         1 <0>         0.1350
     45 H17         1.2984   -6.4420    0.7636 H         1 <0>         0.4090
     46 H18         1.7434   -8.5591    2.3706 H         1 <0>         0.1318
     47 H19         2.8625   -8.6251    0.9880 H         1 <0>         0.1288
     48 H20         6.9293   -8.2987    4.0479 H         1 <0>         0.0745
     49 H21         7.3008   -9.7995    4.9237 H         1 <0>         0.0876
     50 H22         7.6987   -9.3593    1.9275 H         1 <0>         0.0893
     51 H23         8.8745  -11.5563    2.0873 H         1 <0>         0.0719
     52 H24         8.4298  -11.6606    3.8018 H         1 <0>         0.0670
     53 H25         5.6686  -11.9668    4.2727 H         1 <0>         0.0889
     54 H26         4.6856  -11.7043    2.8329 H         1 <0>         0.0703
     55 H27         7.1509  -13.6596    3.6654 H         1 <0>         0.0570
     56 H28         5.9714  -13.9172    2.3575 H         1 <0>         0.0559
     57 H29         7.7083  -13.8143    1.9821 H         1 <0>         0.0619
     58 H30         7.2751  -12.0842    0.3506 H         1 <0>         0.0602
     59 H31         5.5296  -12.1030    0.6987 H         1 <0>         0.0506
     60 H32         6.4379  -10.5747    0.7852 H         1 <0>         0.0749
     61 H33         9.6909   -9.5691    4.2254 H         1 <0>         0.0569
     62 H34        10.1035   -9.4326    2.4993 H         1 <0>         0.0609
     63 H35         9.2925   -8.0833    3.3299 H         1 <0>         0.0549
     64 H36         4.8342   -9.8972    5.6451 H         1 <0>         0.4423
     65 H37        -0.1823   -2.3275    1.1601 H         1 <0>         0.4227
@<TRIPOS>BOND
     1    1    2 1
     2    1   29 1
     3    1   30 1
     4    1   31 1
     5    2    3 1
     6    2   32 1
     7    2   33 1
     8    3    4 1
     9    3   34 1
    10    3   35 1
    11    4    9 1
    12    4    5 1
    13    4   65 1
    14    5    6 1
    15    5   36 1
    16    5   37 1
    17    6    7 1
    18    6   38 1
    19    6   39 1
    20    7    8 1
    21    7   10 1
    22    7   40 1
    23    8    9 1
    24    8   41 1
    25    8   42 1
    26    9   43 1
    27    9   44 1
    28   10   11 am
    29   10   45 1
    30   11   12 2
    31   11   13 1
    32   13   14 1
    33   13   46 1
    34   13   47 1
    35   14   27 am
    36   14   15 am
    37   15   16 2
    38   15   17 1
    39   17   22 1
    40   17   18 1
    41   17   26 1
    42   18   19 1
    43   18   48 1
    44   18   49 1
    45   19   20 1
    46   19   25 1
    47   19   50 1
    48   20   21 1
    49   20   51 1
    50   20   52 1
    51   21   22 1
    52   21   23 1
    53   21   24 1
    54   22   53 1
    55   22   54 1
    56   23   55 1
    57   23   56 1
    58   23   57 1
    59   24   58 1
    60   24   59 1
    61   24   60 1
    62   25   61 1
    63   25   62 1
    64   25   63 1
    65   26   27 am
    66   26   64 1
    67   27   28 2
@<TRIPOS>MOLECULE
ZINC65414330
   64    66     0     0     0
SMALL
USER_CHARGES

@<TRIPOS>ATOM
      1 C1         -3.4816    4.6449    1.4807 C.3       1 <0>        -0.0781
      2 C2         -2.4816    3.5184    1.5236 C.2       1 <0>         0.0918
      3 C3         -2.4939    2.3794    0.7118 C.2       1 <0>        -0.2528
      4 C4         -1.4344    1.6113    1.0559 C.2       1 <0>         0.0960
      5 N1         -0.7750    2.2419    2.0503 N.pl3     1 <0>        -0.3685
      6 N2         -1.4487    3.4395    2.3228 N.2       1 <0>        -0.2903
      7 C5          0.4349    1.7614    2.7223 C.3       1 <0>         0.0975
      8 C6         -1.0584    0.2885    0.4396 C.3       1 <0>        -0.1061
      9 C7         -3.5085    2.0632   -0.3567 C.3       1 <0>         0.2423
     10 C8         -4.4384    0.9525    0.1356 C.3       1 <0>        -0.1597
     11 N3         -2.8176    1.6196   -1.5701 N.am      1 <0>        -0.7345
     12 C9         -3.3740    1.8340   -2.7788 C.2       1 <0>         0.7060
     13 O1         -4.4492    2.3955   -2.8623 O.2       1 <0>        -0.5759
     14 N4         -2.7384    1.4259   -3.8951 N.am      1 <0>        -0.6882
     15 C10        -3.3606    1.5590   -5.1444 C.ar      1 <0>         0.1231
     16 C11        -3.1662    0.5935   -6.1230 C.ar      1 <0>        -0.0978
     17 C12        -3.7793    0.7242   -7.3532 C.ar      1 <0>        -0.1670
     18 C13        -4.5903    1.8215   -7.6118 C.ar      1 <0>         0.1863
     19 C14        -4.7846    2.7872   -6.6327 C.ar      1 <0>        -0.1761
     20 C15        -4.1756    2.6534   -5.4008 C.ar      1 <0>        -0.0707
     21 N5         -5.2113    1.9544   -8.8586 N.pl3     1 <0>        -0.6301
     22 C16        -5.1064    0.8786   -9.8474 C.3       1 <0>         0.0868
     23 C17        -5.9662    3.1693   -9.1751 C.3       1 <0>         0.1441
     24 C18        -7.4453    2.8190   -9.3620 C.3       1 <0>        -0.1627
     25 C19        -8.2143    4.0774   -9.7701 C.3       1 <0>        -0.0039
     26 N6         -7.6709    4.6004  -11.0294 N.4       1 <0>        -0.3860
     27 C20        -6.2730    5.0054  -10.8386 C.3       1 <0>        -0.0030
     28 C21        -5.4293    3.7827  -10.4716 C.3       1 <0>        -0.1627
     29 C22        -8.4617    5.7621  -11.4572 C.3       1 <0>        -0.0473
     30 H1         -3.1039    5.4419    0.8402 H         1 <0>         0.0780
     31 H2         -4.4272    4.2765    1.0829 H         1 <0>         0.0792
     32 H3         -3.6371    5.0313    2.4880 H         1 <0>         0.0770
     33 H4          1.3144    2.1306    2.1949 H         1 <0>         0.0772
     34 H5          0.4483    2.1246    3.7499 H         1 <0>         0.0928
     35 H6          0.4421    0.6714    2.7221 H         1 <0>         0.0885
     36 H7         -0.3884    0.4578   -0.4033 H         1 <0>         0.0810
     37 H8         -0.5568   -0.3297    1.1841 H         1 <0>         0.0792
     38 H9         -1.9582   -0.2193    0.0922 H         1 <0>         0.0904
     39 H10        -4.0938    2.9558   -0.5776 H         1 <0>         0.1000
     40 H11        -4.9524    1.2825    1.0384 H         1 <0>         0.0695
     41 H12        -5.1722    0.7237   -0.6372 H         1 <0>         0.0625
     42 H13        -3.8531    0.0599    0.3565 H         1 <0>         0.0561
     43 H14        -1.9598    1.1717   -1.5035 H         1 <0>         0.3945
     44 H15        -1.8505    1.0401   -3.8341 H         1 <0>         0.4056
     45 H16        -2.5352   -0.2596   -5.9220 H         1 <0>         0.1278
     46 H17        -3.6278   -0.0267   -8.1146 H         1 <0>         0.1277
     47 H18        -5.4152    3.6406   -6.8336 H         1 <0>         0.1200
     48 H19        -4.3302    3.4020   -4.6379 H         1 <0>         0.1435
     49 H20        -5.9330    0.1806   -9.7140 H         1 <0>         0.0513
     50 H21        -5.1470    1.3022  -10.8509 H         1 <0>         0.0634
     51 H22        -4.1613    0.3524   -9.7131 H         1 <0>         0.0766
     52 H23        -5.8604    3.8867   -8.3613 H         1 <0>         0.1073
     53 H24        -7.5447    2.0630  -10.1410 H         1 <0>         0.0899
     54 H25        -7.8491    2.4333   -8.4259 H         1 <0>         0.1163
     55 H26        -9.2677    3.8316   -9.9038 H         1 <0>         0.1336
     56 H27        -8.1144    4.8325   -8.9904 H         1 <0>         0.1308
     57 H28        -5.8933    5.4446  -11.7610 H         1 <0>         0.1337
     58 H29        -6.2145    5.7407  -10.0361 H         1 <0>         0.1309
     59 H30        -4.3921    4.0857  -10.3285 H         1 <0>         0.1165
     60 H31        -5.4869    3.0467  -11.2735 H         1 <0>         0.0916
     61 H32        -8.4141    6.5360  -10.6911 H         1 <0>         0.1225
     62 H33        -8.0590    6.1513  -12.3923 H         1 <0>         0.1241
     63 H34        -9.4987    5.4610  -11.6055 H         1 <0>         0.1243
     64 H35        -7.7187    3.8841  -11.7384 H         1 <0>         0.4243
@<TRIPOS>BOND
     1    1    2 1
     2    1   30 1
     3    1   31 1
     4    1   32 1
     5    2    6 2
     6    2    3 1
     7    3    4 2
     8    3    9 1
     9    4    5 1
    10    4    8 1
    11    5    6 1
    12    5    7 1
    13    7   33 1
    14    7   34 1
    15    7   35 1
    16    8   36 1
    17    8   37 1
    18    8   38 1
    19    9   10 1
    20    9   11 1
    21    9   39 1
    22   10   40 1
    23   10   41 1
    24   10   42 1
    25   11   12 am
    26   11   43 1
    27   12   13 2
    28   12   14 am
    29   14   15 1
    30   14   44 1
    31   15   20 ar
    32   15   16 ar
    33   16   17 ar
    34   16   45 1
    35   17   18 ar
    36   17   46 1
    37   18   19 ar
    38   18   21 1
    39   19   20 ar
    40   19   47 1
    41   20   48 1
    42   21   22 1
    43   21   23 1
    44   22   49 1
    45   22   50 1
    46   22   51 1
    47   23   28 1
    48   23   24 1
    49   23   52 1
    50   24   25 1
    51   24   53 1
    52   24   54 1
    53   25   26 1
    54   25   55 1
    55   25   56 1
    56   26   27 1
    57   26   29 1
    58   26   64 1
    59   27   28 1
    60   27   57 1
    61   27   58 1
    62   28   59 1
    63   28   60 1
    64   29   61 1
    65   29   62 1
    66   29   63 1
@<TRIPOS>MOLECULE
ZINC09168820
   46    48     0     0     0
SMALL
USER_CHARGES
N-(4,4-dimethyl-5-oxo-2-oxa-6-azabicyclo[5.4.0]undeca-8,10,12-trien-10-yl)-3-fluoro-4-methoxy-benzenesulfonamide
@<TRIPOS>ATOM
      1 C1         -0.0187    1.5258    0.0104 C.3       1 <0>        -0.1690
      2 C2          0.0021   -0.0041    0.0020 C.3       1 <0>        -0.1203
      3 C3          0.6109   -0.4952   -1.3096 C.3       1 <0>         0.0771
      4 O1         -0.3233   -0.3673   -2.3745 O.3       1 <0>        -0.3192
      5 C4         -1.0356    0.7884   -2.4403 C.ar      1 <0>         0.1027
      6 C5         -0.7220    1.7522   -3.3827 C.ar      1 <0>        -0.1245
      7 C6         -1.4497    2.9340   -3.4322 C.ar      1 <0>         0.1502
      8 C7         -2.4914    3.1487   -2.5388 C.ar      1 <0>        -0.1377
      9 C8         -2.8077    2.1858   -1.5991 C.ar      1 <0>        -0.0980
     10 C9         -2.0841    1.0056   -1.5477 C.ar      1 <0>         0.1130
     11 N1         -2.3963    0.0175   -0.6006 N.am      1 <0>        -0.6697
     12 C10        -1.4053   -0.5238    0.1427 C.2       1 <0>         0.5358
     13 O2         -1.6480   -1.4233    0.9195 O.2       1 <0>        -0.5136
     14 N2         -1.1334    3.9095   -4.3834 N.pl3     1 <0>        -1.0530
     15 S1         -1.0437    5.5020   -3.9380 S.o2      1 <0>         2.6959
     16 O3         -0.6825    6.2300   -5.1036 O.2       1 <0>        -0.9416
     17 O4         -2.2242    5.7841   -3.1990 O.2       1 <0>        -0.9405
     18 C11         0.3033    5.6531   -2.8122 C.ar      1 <0>        -0.6929
     19 C12         0.0881    5.5034   -1.4547 C.ar      1 <0>         0.0171
     20 C13         1.1429    5.6165   -0.5693 C.ar      1 <0>        -0.2035
     21 C14         2.4173    5.8913   -1.0417 C.ar      1 <0>         0.1574
     22 C15         2.6311    6.0467   -2.4054 C.ar      1 <0>         0.0528
     23 C16         1.5724    5.9268   -3.2876 C.ar      1 <0>        -0.0136
     24 F1          3.8714    6.3141   -2.8695 F         1 <0>        -0.1232
     25 O5          3.4556    6.0081   -0.1718 O.3       1 <0>        -0.3002
     26 C17         3.1618    5.8359    1.2160 C.3       1 <0>         0.0200
     27 C18         0.8480   -0.5065    1.1737 C.3       1 <0>        -0.1292
     28 H1          0.9818    1.9015    0.2247 H         1 <0>         0.0718
     29 H2         -0.3426    1.8901   -0.9645 H         1 <0>         0.0792
     30 H3         -0.7100    1.8755    0.7771 H         1 <0>         0.0681
     31 H4          1.4976    0.0958   -1.5388 H         1 <0>         0.0755
     32 H5          0.8964   -1.5419   -1.2047 H         1 <0>         0.1122
     33 H6          0.0876    1.5858   -4.0780 H         1 <0>         0.1459
     34 H7         -3.0551    4.0690   -2.5787 H         1 <0>         0.1705
     35 H8         -3.6186    2.3532   -0.9056 H         1 <0>         0.1453
     36 H9         -3.3136   -0.2741   -0.4810 H         1 <0>         0.4154
     37 H10        -0.9665    3.6533   -5.3039 H         1 <0>         0.4318
     38 H11        -0.9053    5.2941   -1.0861 H         1 <0>         0.1517
     39 H12         0.9741    5.4956    0.4905 H         1 <0>         0.1506
     40 H13         1.7371    6.0474   -4.3481 H         1 <0>         0.1616
     41 H14         2.7531    4.8388    1.3799 H         1 <0>         0.0638
     42 H15         4.0756    5.9543    1.7982 H         1 <0>         0.1108
     43 H16         2.4325    6.5834    1.5284 H         1 <0>         0.0647
     44 H17         0.4174   -0.1532    2.1106 H         1 <0>         0.0681
     45 H18         0.8639   -1.5964    1.1693 H         1 <0>         0.0717
     46 H19         1.8655   -0.1279    1.0759 H         1 <0>         0.0691
@<TRIPOS>BOND
     1    1    2 1
     2    1   28 1
     3    1   29 1
     4    1   30 1
     5    2   12 1
     6    2    3 1
     7    2   27 1
     8    3    4 1
     9    3   31 1
    10    3   32 1
    11    4    5 1
    12    5   10 ar
    13    5    6 ar
    14    6    7 ar
    15    6   33 1
    16    7    8 ar
    17    7   14 1
    18    8    9 ar
    19    8   34 1
    20    9   10 ar
    21    9   35 1
    22   10   11 1
    23   11   12 am
    24   11   36 1
    25   12   13 2
    26   14   15 1
    27   14   37 1
    28   15   16 2
    29   15   17 2
    30   15   18 1
    31   18   23 ar
    32   18   19 ar
    33   19   20 ar
    34   19   38 1
    35   20   21 ar
    36   20   39 1
    37   21   22 ar
    38   21   25 1
    39   22   23 ar
    40   22   24 1
    41   23   40 1
    42   25   26 1
    43   26   41 1
    44   26   42 1
    45   26   43 1
    46   27   44 1
    47   27   45 1
    48   27   46 1
@<TRIPOS>MOLECULE
ZINC19108060
   46    50     0     0     0
SMALL
USER_CHARGES
N'-(2,1,3-benzothiadiazol-4-ylsulfonyl)adamantane-1-carbohydrazide
@<TRIPOS>ATOM
      1 C1         -0.7146    8.6376    2.3254 C.ar      1 <0>        -0.1283
      2 C2          0.1515    8.6492    1.2842 C.ar      1 <0>         0.0051
      3 C3          0.8100    7.4536    0.8952 C.ar      1 <0>         0.0447
      4 C4          0.5334    6.2318    1.6450 C.ar      1 <0>         0.1225
      5 C5         -0.3901    6.2935    2.7210 C.ar      1 <0>        -0.6468
      6 C6         -0.9835    7.4690    3.0380 C.ar      1 <0>         0.0529
      7 S1         -0.7593    4.8420    3.6492 S.o2      1 <0>         2.7010
      8 O1         -1.7180    5.2188    4.6280 O.2       1 <0>        -0.9383
      9 O2          0.4868    4.2509    3.9913 O.2       1 <0>        -0.9204
     10 N1         -1.5189    3.7857    2.6247 N.pl3     1 <0>        -0.9029
     11 N2         -0.8631    3.3339    1.4720 N.am      1 <0>        -0.5025
     12 C7         -0.7240    2.0118    1.2503 C.2       1 <0>         0.5275
     13 O3         -1.1666    1.2132    2.0486 O.2       1 <0>        -0.5166
     14 C8         -0.0187    1.5258    0.0104 C.3       1 <0>        -0.0595
     15 C9          1.4167    2.0553   -0.0004 C.3       1 <0>        -0.1034
     16 C10         2.1328    1.5619   -1.2592 C.3       1 <0>        -0.0860
     17 C11         2.1536    0.0321   -1.2676 C.3       1 <0>        -0.1107
     18 C12         0.7182   -0.4975   -1.2568 C.3       1 <0>        -0.0863
     19 C13         0.0021   -0.0041    0.0020 C.3       1 <0>        -0.0882
     20 C14        -0.0218    0.0093   -2.4963 C.3       1 <0>        -0.1102
     21 C15        -0.0425    1.5392   -2.4879 C.3       1 <0>        -0.0839
     22 C16         1.3929    2.0688   -2.4988 C.3       1 <0>        -0.1121
     23 C17        -0.7587    2.0326   -1.2291 C.3       1 <0>        -0.1042
     24 N3          1.2219    5.1921    1.1783 N.2       1 <0>        -0.5720
     25 S2          2.0762    5.7340   -0.0182 S.3       1 <0>         0.7835
     26 N4          1.6860    7.2502   -0.0867 N.2       1 <0>        -0.5302
     27 H1         -1.2090    9.5546    2.6103 H         1 <0>         0.1562
     28 H2          0.3408    9.5683    0.7496 H         1 <0>         0.1541
     29 H3         -1.6814    7.5022    3.8615 H         1 <0>         0.1643
     30 H4         -2.4178    3.4798    2.8227 H         1 <0>         0.4292
     31 H5         -0.5092    3.9726    0.8335 H         1 <0>         0.4151
     32 H6          1.4019    3.1452    0.0056 H         1 <0>         0.0616
     33 H7          1.9439    1.6943    0.8826 H         1 <0>         0.0775
     34 H8          3.1554    1.9392   -1.2670 H         1 <0>         0.0793
     35 H9          2.6808   -0.3290   -0.3846 H         1 <0>         0.0659
     36 H10         2.6638   -0.3194   -2.1644 H         1 <0>         0.0668
     37 H11         0.7330   -1.5874   -1.2628 H         1 <0>         0.0773
     38 H12         0.5293   -0.3651    0.8851 H         1 <0>         0.0740
     39 H13        -1.0205   -0.3814    0.0098 H         1 <0>         0.0722
     40 H14         0.4884   -0.3422   -3.3931 H         1 <0>         0.0667
     41 H15        -1.0444   -0.3679   -2.4886 H         1 <0>         0.0643
     42 H16        -0.5697    1.9003   -3.3710 H         1 <0>         0.0767
     43 H17         1.3781    3.1587   -2.4928 H         1 <0>         0.0610
     44 H18         1.9030    1.7172   -3.3956 H         1 <0>         0.0699
     45 H19        -1.7813    1.6553   -1.2214 H         1 <0>         0.0732
     46 H20        -0.7734    3.1225   -1.2231 H         1 <0>         0.0598
@<TRIPOS>BOND
     1    1    6 ar
     2    1    2 ar
     3    1   27 1
     4    2    3 ar
     5    2   28 1
     6    3   26 2
     7    3    4 ar
     8    4    5 ar
     9    4   24 2
    10    5    6 ar
    11    5    7 1
    12    6   29 1
    13    7    8 2
    14    7    9 2
    15    7   10 1
    16   10   11 1
    17   10   30 1
    18   11   12 am
    19   11   31 1
    20   12   13 2
    21   12   14 1
    22   14   19 1
    23   14   23 1
    24   14   15 1
    25   15   16 1
    26   15   32 1
    27   15   33 1
    28   16   22 1
    29   16   17 1
    30   16   34 1
    31   17   18 1
    32   17   35 1
    33   17   36 1
    34   18   19 1
    35   18   20 1
    36   18   37 1
    37   19   38 1
    38   19   39 1
    39   20   21 1
    40   20   40 1
    41   20   41 1
    42   21   22 1
    43   21   23 1
    44   21   42 1
    45   22   43 1
    46   22   44 1
    47   23   45 1
    48   23   46 1
    49   24   25 1
    50   25   26 1
@<TRIPOS>MOLECULE
ZINC39733949
   48    50     0     0     0
SMALL
USER_CHARGES

@<TRIPOS>ATOM
      1 C1         -0.0187    1.5258    0.0104 C.3       1 <0>        -0.1461
      2 C2          0.0021   -0.0041    0.0020 C.3       1 <0>        -0.1242
      3 H1          0.5123   -0.3556   -0.8948 H         1 <0>         0.1332
      4 C3         -1.4117   -0.5257    0.0127 C.2       1 <0>         0.5429
      5 O1         -1.9388   -0.8270    1.0621 O.2       1 <0>        -0.4454
      6 N1         -2.0902   -0.6573   -1.1443 N.am      1 <0>        -0.6844
      7 C4         -3.3547   -1.1238   -1.1348 C.2       1 <0>         0.6951
      8 O2         -3.8830   -1.4258   -0.0827 O.2       1 <0>        -0.5244
      9 N2         -4.0332   -1.2553   -2.2918 N.am      1 <0>        -0.7321
     10 C5         -5.4076   -1.7624   -2.2814 C.3       1 <0>         0.1511
     11 C6         -6.1476   -1.2556   -3.5210 C.3       1 <0>        -0.1614
     12 C7         -5.3868   -3.2922   -2.2898 C.3       1 <0>        -0.1669
     13 S1          0.8794   -0.6050    1.4716 S.3       1 <0>         0.1409
     14 C8          2.5331   -0.0421    1.2407 C.2       1 <0>         0.3996
     15 N3          2.8151    0.6529    0.1523 N.2       1 <0>        -0.6290
     16 C9          4.0371    1.1148   -0.1105 C.2       1 <0>         0.5609
     17 O3          4.2618    1.7556   -1.1239 O.2       1 <0>        -0.4610
     18 C10         5.1274    0.8242    0.8764 C.2       1 <0>        -0.3128
     19 C11         6.4299    1.1369    0.7798 C.2       1 <0>         0.0694
     20 C12         7.0735    1.7210   -0.4753 C.3       1 <0>        -0.0965
     21 C13         8.2399    0.7950   -0.8458 C.3       1 <0>        -0.1208
     22 C14         9.1630    0.6014    0.3551 C.3       1 <0>        -0.1235
     23 C15         8.4269   -0.0997    1.5006 C.3       1 <0>        -0.1008
     24 C16         7.3007    0.8149    1.9895 C.3       1 <0>        -0.0728
     25 H2          7.6830    1.7124    2.4757 H         1 <0>         0.1645
     26 S2          6.1435   -0.1288    3.0519 S.3       1 <0>         0.0226
     27 C17         4.6847    0.0491    2.0558 C.2       1 <0>         0.2875
     28 N4          3.4390   -0.3330    2.1749 N.2       1 <0>        -0.5147
     29 H3          1.0039    1.9031    0.0027 H         1 <0>         0.0960
     30 H4         -0.5459    1.8868   -0.8726 H         1 <0>         0.0752
     31 H5         -0.5289    1.8773    0.9072 H         1 <0>         0.0738
     32 H6         -1.6686   -0.4162   -1.9840 H         1 <0>         0.4128
     33 H7         -3.6115   -1.0143   -3.1315 H         1 <0>         0.3987
     34 H8         -5.9178   -1.4109   -1.3846 H         1 <0>         0.0920
     35 H9         -5.6374   -1.6071   -4.4177 H         1 <0>         0.0623
     36 H10        -7.1702   -1.6329   -3.5132 H         1 <0>         0.0772
     37 H11        -6.1624   -0.1657   -3.5150 H         1 <0>         0.0631
     38 H12        -4.8766   -3.6438   -3.1866 H         1 <0>         0.0574
     39 H13        -4.8596   -3.6533   -1.4068 H         1 <0>         0.0620
     40 H14        -6.4094   -3.6695   -2.2821 H         1 <0>         0.0693
     41 H15         6.3474    1.7493   -1.2878 H         1 <0>         0.1138
     42 H16         7.4451    2.7251   -0.2709 H         1 <0>         0.1034
     43 H17         7.8473   -0.1724   -1.1590 H         1 <0>         0.0693
     44 H18         8.8041    1.2362   -1.6675 H         1 <0>         0.0858
     45 H19        10.0189   -0.0034    0.0555 H         1 <0>         0.0837
     46 H20         9.5149    1.5746    0.6974 H         1 <0>         0.0748
     47 H21         8.0062   -1.0399    1.1441 H         1 <0>         0.0844
     48 H22         9.1218   -0.2933    2.3178 H         1 <0>         0.0943
@<TRIPOS>BOND
     1    1    2 1
     2    1   29 1
     3    1   30 1
     4    1   31 1
     5    2    3 1
     6    2    4 1
     7    2   13 1
     8    4    5 2
     9    4    6 am
    10    6    7 am
    11    6   32 1
    12    7    8 2
    13    7    9 am
    14    9   10 1
    15    9   33 1
    16   10   11 1
    17   10   12 1
    18   10   34 1
    19   11   35 1
    20   11   36 1
    21   11   37 1
    22   12   38 1
    23   12   39 1
    24   12   40 1
    25   13   14 1
    26   14   28 1
    27   14   15 2
    28   15   16 1
    29   16   17 2
    30   16   18 1
    31   18   27 1
    32   18   19 2
    33   19   24 1
    34   19   20 1
    35   20   21 1
    36   20   41 1
    37   20   42 1
    38   21   22 1
    39   21   43 1
    40   21   44 1
    41   22   23 1
    42   22   45 1
    43   22   46 1
    44   23   24 1
    45   23   47 1
    46   23   48 1
    47   24   25 1
    48   24   26 1
    49   26   27 1
    50   27   28 2
@<TRIPOS>MOLECULE
ZINC16400954
   41    43     0     0     0
SMALL
USER_CHARGES

@<TRIPOS>ATOM
      1 C1         -1.2651    1.1827    0.1812 C.3       1 <0>        -0.1170
      2 C2         -0.5842   -0.1582    0.0843 C.ar      1 <0>        -0.0954
      3 C3         -0.5693   -0.8408   -1.1164 C.ar      1 <0>        -0.0939
      4 C4          0.0557   -2.0719   -1.2060 C.ar      1 <0>        -0.0423
      5 C5          0.6678   -2.6226   -0.0934 C.ar      1 <0>        -0.0972
      6 C6          0.6558   -1.9443    1.1093 C.ar      1 <0>        -0.1028
      7 C7          0.0337   -0.7059    1.2006 C.ar      1 <0>         0.1458
      8 N1          0.0246   -0.0138    2.4172 N.am      1 <0>        -0.6655
      9 C8         -0.0569   -0.6932    3.5784 C.2       1 <0>         0.5029
     10 O1         -0.0402   -1.9060    3.5739 O.2       1 <0>        -0.5036
     11 C9         -0.1688    0.0540    4.8823 C.3       1 <0>         0.1019
     12 N2         -0.2423   -0.9032    5.9889 N.am      1 <0>        -0.5627
     13 C10        -1.3913   -1.4169    6.4705 C.2       1 <0>         0.5392
     14 O2         -2.5165   -1.1830    6.0844 O.2       1 <0>        -0.4392
     15 C11        -0.9842   -2.3487    7.5947 C.3       1 <0>         0.2150
     16 N3          0.4848   -2.2418    7.6181 N.am      1 <0>        -0.7078
     17 C12         0.8235   -1.3798    6.6424 C.2       1 <0>         0.7144
     18 O3          1.9693   -1.0664    6.3856 O.2       1 <0>        -0.5287
     19 C13        -1.4146   -3.7842    7.2865 C.3       1 <0>        -0.1462
     20 C14        -1.5704   -1.8875    8.9041 C.2       1 <0>        -0.0358
     21 C15        -1.0209   -2.0672   10.1187 C.2       1 <0>        -0.1715
     22 C16        -1.9010   -1.4810   11.0572 C.2       1 <0>        -0.2148
     23 C17        -2.9357   -0.9783   10.3600 C.2       1 <0>        -0.0203
     24 O4         -2.7272   -1.2223    9.0559 O.3       1 <0>        -0.1603
     25 Cl1         0.0716   -2.9278   -2.7163 Cl        1 <0>        -0.0674
     26 H1         -0.5501    1.9711   -0.0539 H         1 <0>         0.0770
     27 H2         -2.0939    1.2213   -0.5257 H         1 <0>         0.0764
     28 H3         -1.6439    1.3257    1.1932 H         1 <0>         0.0676
     29 H4         -1.0463   -0.4133   -1.9860 H         1 <0>         0.1387
     30 H5          1.1550   -3.5837   -0.1660 H         1 <0>         0.1376
     31 H6          1.1333   -2.3745    1.9772 H         1 <0>         0.1482
     32 H7          0.0770    0.9547    2.4246 H         1 <0>         0.4154
     33 H8          0.7053    0.6923    5.0114 H         1 <0>         0.1362
     34 H9         -1.0691    0.6683    4.8729 H         1 <0>         0.1333
     35 H10         1.0901   -2.7049    8.2182 H         1 <0>         0.4446
     36 H11        -0.9393   -4.1158    6.3633 H         1 <0>         0.0840
     37 H12        -1.1133   -4.4376    8.1053 H         1 <0>         0.0876
     38 H13        -2.4979   -3.8220    7.1713 H         1 <0>         0.0899
     39 H14        -0.0870   -2.5643   10.3354 H         1 <0>         0.1519
     40 H15        -1.7682   -1.4444   12.1284 H         1 <0>         0.1552
     41 H16        -3.7875   -0.4623   10.7778 H         1 <0>         0.2097
@<TRIPOS>BOND
     1    1    2 1
     2    1   26 1
     3    1   27 1
     4    1   28 1
     5    2    7 ar
     6    2    3 ar
     7    3    4 ar
     8    3   29 1
     9    4    5 ar
    10    4   25 1
    11    5    6 ar
    12    5   30 1
    13    6    7 ar
    14    6   31 1
    15    7    8 1
    16    8    9 am
    17    8   32 1
    18    9   10 2
    19    9   11 1
    20   11   12 1
    21   11   33 1
    22   11   34 1
    23   12   17 am
    24   12   13 am
    25   13   14 2
    26   13   15 1
    27   15   16 1
    28   15   19 1
    29   15   20 1
    30   16   17 am
    31   16   35 1
    32   17   18 2
    33   19   36 1
    34   19   37 1
    35   19   38 1
    36   20   24 1
    37   20   21 2
    38   21   22 1
    39   21   39 1
    40   22   23 2
    41   22   40 1
    42   23   24 1
    43   23   41 1
@<TRIPOS>MOLECULE
ZINC65829275
   50    53     0     0     0
SMALL
USER_CHARGES

@<TRIPOS>ATOM
      1 C1         -0.3897    1.7124    0.4600 C.3       1 <0>        -0.1597
      2 C2         -0.2405    0.1898    0.4808 C.3       1 <0>         0.2040
      3 C3          0.5844   -0.2503   -0.7011 C.ar      1 <0>        -0.0673
      4 C4          0.0009   -0.3534   -1.9507 C.ar      1 <0>        -0.1402
      5 C5          0.7543   -0.7565   -3.0377 C.ar      1 <0>        -0.0840
      6 C6          2.0930   -1.0575   -2.8785 C.ar      1 <0>        -0.1547
      7 C7          2.6819   -0.9550   -1.6252 C.ar      1 <0>         0.1718
      8 C8          1.9234   -0.5448   -0.5363 C.ar      1 <0>        -0.1451
      9 N1          4.0376   -1.2596   -1.4604 N.am      1 <0>        -0.5611
     10 C9          4.7798   -1.0821   -0.2068 C.3       1 <0>         0.0925
     11 C10         6.0612   -1.9306   -0.3629 C.3       1 <0>        -0.1320
     12 C11         6.2273   -1.9712   -1.8997 C.3       1 <0>        -0.1539
     13 C12         4.8260   -1.7578   -2.4284 C.2       1 <0>         0.5161
     14 O1          4.4670   -1.9987   -3.5616 O.2       1 <0>        -0.5077
     15 N2         -1.5653   -0.4316    0.4103 N.am      1 <0>        -0.7330
     16 C13        -2.2840   -0.6160    1.5354 C.2       1 <0>         0.7067
     17 O2         -1.8328   -0.2665    2.6091 O.2       1 <0>        -0.5688
     18 N3         -3.5027   -1.1877    1.4705 N.am      1 <0>        -0.6862
     19 C14        -4.2975   -1.2753    2.6209 C.ar      1 <0>         0.1503
     20 C15        -4.2629   -0.2542    3.5685 C.ar      1 <0>        -0.0618
     21 C16        -5.0381   -0.3256    4.7053 C.ar      1 <0>        -0.1112
     22 C17        -5.8646   -1.4222    4.9164 C.ar      1 <0>         0.1306
     23 C18        -5.9035   -2.4548    3.9632 C.ar      1 <0>        -0.1383
     24 C19        -5.1179   -2.3718    2.8097 C.ar      1 <0>        -0.0868
     25 C20        -6.7798   -3.6067    4.1978 C.2       1 <0>        -0.0011
     26 C21        -7.5216   -3.6270    5.3339 C.2       1 <0>        -0.2415
     27 C22        -7.4333   -2.5552    6.2485 C.2       1 <0>         0.5059
     28 O3         -8.1039   -2.5855    7.2646 O.2       1 <0>        -0.4623
     29 O4         -6.6289   -1.5045    6.0273 O.3       1 <0>        -0.2690
     30 H1          0.5960    2.1747    0.5125 H         1 <0>         0.0703
     31 H2         -0.8849    2.0164   -0.4622 H         1 <0>         0.0607
     32 H3         -0.9863    2.0307    1.3149 H         1 <0>         0.0677
     33 H4          0.2547   -0.1142    1.4030 H         1 <0>         0.0999
     34 H5         -1.0457   -0.1190   -2.0777 H         1 <0>         0.1215
     35 H6          0.2957   -0.8363   -4.0122 H         1 <0>         0.1298
     36 H7          2.6810   -1.3726   -3.7278 H         1 <0>         0.1561
     37 H8          2.3795   -0.4601    0.4390 H         1 <0>         0.1288
     38 H9          5.0374   -0.0323   -0.0664 H         1 <0>         0.0844
     39 H10         4.1892   -1.4423    0.6355 H         1 <0>         0.0885
     40 H11         6.9132   -1.4409    0.1087 H         1 <0>         0.0989
     41 H12         5.9169   -2.9329    0.0405 H         1 <0>         0.0872
     42 H13         6.8906   -1.1730   -2.2330 H         1 <0>         0.1118
     43 H14         6.6079   -2.9421   -2.2168 H         1 <0>         0.1092
     44 H15        -1.9253   -0.7104   -0.4462 H         1 <0>         0.3989
     45 H16        -3.8296   -1.5385    0.6273 H         1 <0>         0.4099
     46 H17        -3.6223    0.6009    3.4106 H         1 <0>         0.1520
     47 H18        -5.0031    0.4715    5.4332 H         1 <0>         0.1491
     48 H19        -5.1485   -3.1611    2.0732 H         1 <0>         0.1428
     49 H20        -6.8336   -4.4168    3.4856 H         1 <0>         0.1547
     50 H21        -8.1778   -4.4602    5.5376 H         1 <0>         0.1655
@<TRIPOS>BOND
     1    1    2 1
     2    1   30 1
     3    1   31 1
     4    1   32 1
     5    2    3 1
     6    2   15 1
     7    2   33 1
     8    3    8 ar
     9    3    4 ar
    10    4    5 ar
    11    4   34 1
    12    5    6 ar
    13    5   35 1
    14    6    7 ar
    15    6   36 1
    16    7    8 ar
    17    7    9 1
    18    8   37 1
    19    9   13 am
    20    9   10 1
    21   10   11 1
    22   10   38 1
    23   10   39 1
    24   11   12 1
    25   11   40 1
    26   11   41 1
    27   12   13 1
    28   12   42 1
    29   12   43 1
    30   13   14 2
    31   15   16 am
    32   15   44 1
    33   16   17 2
    34   16   18 am
    35   18   19 1
    36   18   45 1
    37   19   24 ar
    38   19   20 ar
    39   20   21 ar
    40   20   46 1
    41   21   22 ar
    42   21   47 1
    43   22   29 1
    44   22   23 ar
    45   23   24 ar
    46   23   25 1
    47   24   48 1
    48   25   26 2
    49   25   49 1
    50   26   27 1
    51   26   50 1
    52   27   28 2
    53   27   29 1
@<TRIPOS>MOLECULE
ZINC08726924
   44    47     0     0     0
SMALL
USER_CHARGES
7,8-dimethyl-3-[[1-(tetrahydrofuran-2-ylmethyl)tetrazol-5-yl]sulfanylmethyl]-9-thia-2,4-diazabicyclo[4.3.0]nona-1,3,5,7-tetraen-5-amine
@<TRIPOS>ATOM
      1 C1         -8.1984   -6.8900   -3.3836 C.3       1 <0>        -0.1149
      2 C2         -8.3451   -5.5488   -2.7121 C.2       1 <0>        -0.0914
      3 C3         -9.4271   -5.2777   -1.9675 C.2       1 <0>        -0.1394
      4 S1         -9.1390   -3.6103   -1.4057 S.3       1 <0>         0.1156
      5 C4         -7.5730   -3.3226   -2.1862 C.ar      1 <0>         0.1431
      6 C5         -7.3165   -4.5347   -2.8642 C.ar      1 <0>        -0.2272
      7 C6         -6.0953   -4.5797   -3.5911 C.ar      1 <0>         0.4911
      8 N1         -5.3050   -3.5183   -3.5912 N.ar      1 <0>        -0.5643
      9 C7         -5.6072   -2.4163   -2.9287 C.ar      1 <0>         0.3850
     10 N2         -6.7254   -2.3142   -2.2365 N.ar      1 <0>        -0.4929
     11 C8         -4.6565   -1.2478   -2.9694 C.3       1 <0>        -0.0495
     12 S2         -3.4757   -1.3828   -1.6042 S.3       1 <0>         0.0914
     13 C9         -2.5152    0.0673   -1.8860 C.2       1 <0>         0.2238
     14 N3         -2.6904    0.9460   -2.8491 N.2       1 <0>        -0.3370
     15 N4         -1.8131    1.8804   -2.7705 N.2       1 <0>        -0.0281
     16 N5         -1.0299    1.6765   -1.7671 N.2       1 <0>        -0.0813
     17 N6         -1.4600    0.4889   -1.1498 N.pl3     1 <0>        -0.3574
     18 C10        -0.8855   -0.1574    0.0328 C.3       1 <0>         0.1090
     19 C11        -1.5722    0.3780    1.2908 C.3       1 <0>         0.0624
     20 H1         -1.5121    1.4661    1.3101 H         1 <0>         0.0941
     21 C12        -0.8923   -0.2064    2.5476 C.3       1 <0>        -0.1461
     22 C13        -2.1053   -0.4742    3.4823 C.3       1 <0>        -0.1551
     23 C14        -3.1921   -0.8677    2.4505 C.3       1 <0>         0.0484
     24 O1         -2.9442   -0.0333    1.3079 O.3       1 <0>        -0.3653
     25 N7         -5.7401   -5.7172   -4.2936 N.pl3     1 <0>        -0.8394
     26 C15       -10.6058   -6.1699   -1.6753 C.3       1 <0>        -0.0725
     27 H2         -7.5724   -7.5373   -2.7694 H         1 <0>         0.0749
     28 H3         -9.1815   -7.3447   -3.5055 H         1 <0>         0.0785
     29 H4         -7.7353   -6.7580   -4.3614 H         1 <0>         0.0742
     30 H5         -5.2183   -0.3187   -2.8734 H         1 <0>         0.1332
     31 H6         -4.1180   -1.2504   -3.9171 H         1 <0>         0.1314
     32 H7         -1.0362   -1.2350   -0.0328 H         1 <0>         0.1096
     33 H8          0.1819    0.0578    0.0820 H         1 <0>         0.1228
     34 H9         -0.3727   -1.1350    2.3113 H         1 <0>         0.0840
     35 H10        -0.2106    0.5185    2.9924 H         1 <0>         0.0917
     36 H11        -2.3876    0.4276    4.0257 H         1 <0>         0.0818
     37 H12        -1.8997   -1.2954    4.1689 H         1 <0>         0.0883
     38 H13        -4.1855   -0.6715    2.8539 H         1 <0>         0.0905
     39 H14        -3.0955   -1.9190    2.1793 H         1 <0>         0.0635
     40 H15        -6.0363   -6.5886   -3.9873 H         1 <0>         0.4149
     41 H16        -5.1948   -5.6434   -5.0924 H         1 <0>         0.4107
     42 H17       -10.4086   -6.7486   -0.7729 H         1 <0>         0.0840
     43 H18       -11.4963   -5.5589   -1.5277 H         1 <0>         0.0786
     44 H19       -10.7652   -6.8477   -2.5139 H         1 <0>         0.0854
@<TRIPOS>BOND
     1    1    2 1
     2    1   27 1
     3    1   28 1
     4    1   29 1
     5    2    6 1
     6    2    3 2
     7    3    4 1
     8    3   26 1
     9    4    5 1
    10    5   10 ar
    11    5    6 ar
    12    6    7 ar
    13    7    8 ar
    14    7   25 1
    15    8    9 ar
    16    9   10 ar
    17    9   11 1
    18   11   12 1
    19   11   30 1
    20   11   31 1
    21   12   13 1
    22   13   17 1
    23   13   14 2
    24   14   15 1
    25   15   16 2
    26   16   17 1
    27   17   18 1
    28   18   19 1
    29   18   32 1
    30   18   33 1
    31   19   20 1
    32   19   24 1
    33   19   21 1
    34   21   22 1
    35   21   34 1
    36   21   35 1
    37   22   23 1
    38   22   36 1
    39   22   37 1
    40   23   24 1
    41   23   38 1
    42   23   39 1
    43   25   40 1
    44   25   41 1
    45   26   42 1
    46   26   43 1
    47   26   44 1
@<TRIPOS>MOLECULE
ZINC26665724
   45    47     0     0     0
SMALL
USER_CHARGES
(6S)-2-[2-(3-chloro-6-oxo-4,5-dihydropyridazin-1-yl)ethyl]-4-methyl-6-propyl-3H-imidazo[4,5-e]pyridine-5,7-dione
@<TRIPOS>ATOM
      1 C1          5.6578    5.4698   -2.2579 C.3       1 <0>        -0.1547
      2 C2          5.0746    4.6871   -1.0796 C.3       1 <0>        -0.1251
      3 C3          3.5571    4.5774   -1.2414 C.3       1 <0>        -0.0510
      4 C4          2.9582    3.9158    0.0013 C.2       1 <0>        -0.3036
      5 C5          1.4581    4.1310   -0.0315 C.2       1 <0>         0.3238
      6 O1          0.9834    5.2482   -0.0694 O.3       1 <0>        -0.3939
      7 C6          0.6301    2.9817   -0.0164 C.2       1 <0>        -0.2135
      8 C7          1.1822    1.7109    0.0264 C.2       1 <0>         0.3564
      9 N1          0.1296    0.8399    0.0306 N.2       1 <0>        -0.5026
     10 C8         -1.0176    1.5741   -0.0146 C.2       1 <0>         0.3036
     11 N2         -0.7241    2.8393   -0.0365 N.pl3     1 <0>        -0.5253
     12 C9         -2.4130    1.0054   -0.0327 C.3       1 <0>        -0.0649
     13 C10        -3.2246    1.6086    1.1155 C.3       1 <0>         0.1386
     14 N3         -4.5811    1.0558    1.0979 N.am      1 <0>        -0.4501
     15 C11        -4.8562   -0.0671    1.7911 C.2       1 <0>         0.4944
     16 O2         -3.9828   -0.6251    2.4215 O.2       1 <0>        -0.5002
     17 C12        -6.2574   -0.6252    1.7769 C.3       1 <0>        -0.1442
     18 C13        -7.2550    0.5311    1.6770 C.3       1 <0>        -0.1181
     19 C14        -6.8191    1.4822    0.5950 C.2       1 <0>         0.1643
     20 N4         -5.5845    1.6991    0.3668 N.2       1 <0>        -0.2463
     21 Cl1        -8.0195    2.3035   -0.3527 Cl        1 <0>         0.0082
     22 N5          2.5397    1.4877    0.0564 N.am      1 <0>        -0.5100
     23 C15         3.4439    2.4828    0.0471 C.2       1 <0>         0.5425
     24 O3          4.6309    2.2360    0.0755 O.2       1 <0>        -0.5138
     25 C16         3.0210    0.1047    0.1008 C.3       1 <0>         0.0576
     26 H1          6.7488    5.5487   -2.1416 H         1 <0>         0.0529
     27 H2          5.2178    6.4777   -2.2823 H         1 <0>         0.0491
     28 H3          5.4261    4.9457   -3.1968 H         1 <0>         0.0461
     29 H4          5.5146    3.6792   -1.0552 H         1 <0>         0.0814
     30 H5          5.3063    5.2112   -0.1406 H         1 <0>         0.0681
     31 H6          3.1279    5.5827   -1.3645 H         1 <0>         0.0661
     32 H7          3.3259    3.9690   -2.1282 H         1 <0>         0.0376
     33 H8         -2.8958    1.2491   -0.9906 H         1 <0>         0.1065
     34 H9         -2.3653   -0.0871    0.0864 H         1 <0>         0.1144
     35 H10        -2.7418    1.3649    2.0734 H         1 <0>         0.1071
     36 H11        -3.2723    2.7011    0.9964 H         1 <0>         0.0900
     37 H12        -6.3771   -1.2935    0.9114 H         1 <0>         0.1150
     38 H13        -6.4366   -1.1899    2.7037 H         1 <0>         0.1280
     39 H14        -8.2524    0.1350    1.4354 H         1 <0>         0.1182
     40 H15        -7.2954    1.0647    2.6381 H         1 <0>         0.1108
     41 H16         4.1208    0.0997    0.1206 H         1 <0>         0.1008
     42 H17         2.6678   -0.4352   -0.7901 H         1 <0>         0.0708
     43 H18         2.6358   -0.3887    1.0053 H         1 <0>         0.0736
     44 H19        -1.3703    3.7290   -0.0665 H         1 <0>         0.4489
     45 H20        -0.1083    5.3814   -0.0927 H         1 <0>         0.4425
@<TRIPOS>BOND
     1    1    2 1
     2    1   26 1
     3    1   27 1
     4    1   28 1
     5    2    3 1
     6    2   29 1
     7    2   30 1
     8    3    4 1
     9    3   31 1
    10    3   32 1
    11    4   23 1
    12    4    5 2
    13    5    6 1
    14    5    7 1
    15    6   45 1
    16    7   11 1
    17    7    8 2
    18    8    9 1
    19    8   22 1
    20    9   10 2
    21   10   11 1
    22   10   12 1
    23   11   44 1
    24   12   13 1
    25   12   33 1
    26   12   34 1
    27   13   14 1
    28   13   35 1
    29   13   36 1
    30   14   20 1
    31   14   15 am
    32   15   16 2
    33   15   17 1
    34   17   18 1
    35   17   37 1
    36   17   38 1
    37   18   19 1
    38   18   39 1
    39   18   40 1
    40   19   20 2
    41   19   21 1
    42   22   23 am
    43   22   25 1
    44   23   24 2
    45   25   41 1
    46   25   42 1
    47   25   43 1
@<TRIPOS>MOLECULE
ZINC29963097
   48    50     0     0     0
SMALL
USER_CHARGES

@<TRIPOS>ATOM
      1 C1          0.2071    2.2361   -0.3776 C.3       1 <0>        -0.1398
      2 C2          0.3890    0.7375   -0.1281 C.3       1 <0>        -0.0240
      3 H1         -0.5819    0.2806    0.0632 H         1 <0>         0.1284
      4 C3          1.2849    0.5322    1.0661 C.ar      1 <0>         0.4514
      5 N1          2.5858    0.7381    0.9573 N.ar      1 <0>        -0.6275
      6 C4          3.3802    0.5582    2.0099 C.ar      1 <0>         0.6347
      7 N2          2.8638    0.1710    3.1712 N.ar      1 <0>        -0.6528
      8 C5          1.5557   -0.0350    3.2767 C.ar      1 <0>         0.6309
      9 N3          0.7669    0.1519    2.2207 N.ar      1 <0>        -0.6230
     10 N4          1.0146   -0.4376    4.4806 N.pl3     1 <0>        -0.5772
     11 C6          1.8828   -0.6381    5.6435 C.3       1 <0>         0.0916
     12 C7         -0.4281   -0.6646    4.5959 C.3       1 <0>         0.0971
     13 N5          4.7385    0.7731    1.8951 N.pl3     1 <0>        -0.8043
     14 S1          1.1420   -0.0315   -1.5883 S.3       1 <0>         0.0616
     15 C8         -0.0753    0.1616   -2.8474 C.2       1 <0>         0.1456
     16 N6         -1.2458    0.7423   -2.7191 N.2       1 <0>        -0.2865
     17 N7         -1.8767    0.7047   -3.8382 N.2       1 <0>        -0.2781
     18 C9         -1.1533    0.1033   -4.7397 C.2       1 <0>         0.1980
     19 N8          0.0225   -0.2590   -4.1427 N.pl3     1 <0>        -0.4317
     20 C10         1.1514   -0.9569   -4.7632 C.3       1 <0>         0.0456
     21 C11         2.1793   -1.6042   -3.8331 C.3       1 <0>        -0.1733
     22 C12         2.5399   -0.3339   -4.6058 C.3       1 <0>        -0.1687
     23 C13        -1.5383   -0.1418   -6.1759 C.3       1 <0>        -0.0041
     24 C14        -2.8094   -0.9920   -6.2252 C.3       1 <0>        -0.1434
     25 C15        -1.7931    1.1970   -6.8712 C.3       1 <0>        -0.1425
     26 H2          1.1781    2.6930   -0.5689 H         1 <0>         0.0722
     27 H3         -0.4408    2.3846   -1.2414 H         1 <0>         0.0863
     28 H4         -0.2454    2.6982    0.4998 H         1 <0>         0.0686
     29 H5          2.9151   -0.4228    5.3675 H         1 <0>         0.0939
     30 H6          1.5744    0.0308    6.4469 H         1 <0>         0.0623
     31 H7          1.8050   -1.6716    5.9811 H         1 <0>         0.0620
     32 H8         -0.6528   -1.7038    4.3556 H         1 <0>         0.0572
     33 H9         -0.7495   -0.4497    5.6150 H         1 <0>         0.0736
     34 H10        -0.9556   -0.0092    3.9028 H         1 <0>         0.0847
     35 H11         5.1149    1.0555    1.0469 H         1 <0>         0.4194
     36 H12         5.3169    0.6418    2.6627 H         1 <0>         0.4173
     37 H13         0.9312   -1.4651   -5.7020 H         1 <0>         0.1520
     38 H14         2.0157   -1.5109   -2.7595 H         1 <0>         0.1167
     39 H15         2.6356   -2.5386   -4.1598 H         1 <0>         0.1210
     40 H16         3.2334   -0.4325   -5.4409 H         1 <0>         0.1173
     41 H17         2.6135    0.5952   -4.0406 H         1 <0>         0.1105
     42 H18        -0.7298   -0.6672   -6.6842 H         1 <0>         0.0854
     43 H19        -2.6279   -1.9459   -5.7298 H         1 <0>         0.0553
     44 H20        -3.6179   -0.4666   -5.7168 H         1 <0>         0.0706
     45 H21        -3.0879   -1.1693   -7.2640 H         1 <0>         0.0698
     46 H22        -0.8875    1.8028   -6.8361 H         1 <0>         0.0557
     47 H23        -2.0716    1.0198   -7.9100 H         1 <0>         0.0697
     48 H24        -2.6016    1.7224   -6.3629 H         1 <0>         0.0703
@<TRIPOS>BOND
     1    1    2 1
     2    1   26 1
     3    1   27 1
     4    1   28 1
     5    2    3 1
     6    2    4 1
     7    2   14 1
     8    4    9 ar
     9    4    5 ar
    10    5    6 ar
    11    6    7 ar
    12    6   13 1
    13    7    8 ar
    14    8    9 ar
    15    8   10 1
    16   10   11 1
    17   10   12 1
    18   11   29 1
    19   11   30 1
    20   11   31 1
    21   12   32 1
    22   12   33 1
    23   12   34 1
    24   13   35 1
    25   13   36 1
    26   14   15 1
    27   15   19 1
    28   15   16 2
    29   16   17 1
    30   17   18 2
    31   18   19 1
    32   18   23 1
    33   19   20 1
    34   20   22 1
    35   20   21 1
    36   20   37 1
    37   21   22 1
    38   21   38 1
    39   21   39 1
    40   22   40 1
    41   22   41 1
    42   23   24 1
    43   23   25 1
    44   23   42 1
    45   24   43 1
    46   24   44 1
    47   24   45 1
    48   25   46 1
    49   25   47 1
    50   25   48 1
@<TRIPOS>MOLECULE
ZINC58941471
   44    46     0     0     0
SMALL
USER_CHARGES

@<TRIPOS>ATOM
      1 C1         -0.0187    1.5258    0.0104 C.3       1 <0>        -0.1485
      2 C2          0.0021   -0.0041    0.0020 C.3       1 <0>        -0.0998
      3 C3         -1.4333   -0.5336    0.0129 C.3       1 <0>        -0.1150
      4 C4         -1.4126   -2.0635    0.0045 C.3       1 <0>        -0.1226
      5 C5         -0.6726   -2.5703    1.2440 C.3       1 <0>        -0.1175
      6 C6          0.7628   -2.0407    1.2331 C.3       1 <0>        -0.1347
      7 C7          0.7421   -0.5109    1.2415 C.3       1 <0>         0.1669
      8 N1          0.0564   -0.0384    2.4469 N.am      1 <0>        -0.7238
      9 C8          0.7380    0.0932    3.6021 C.2       1 <0>         0.6952
     10 O1          1.9215   -0.1801    3.6439 O.2       1 <0>        -0.5226
     11 N2          0.1071    0.5278    4.7110 N.am      1 <0>        -0.6855
     12 C9          0.7887    0.6594    5.8662 C.2       1 <0>         0.5077
     13 O2          1.9693    0.3869    5.9079 O.2       1 <0>        -0.4396
     14 C10         0.0833    1.1454    7.1061 C.3       1 <0>         0.1153
     15 N3          1.0346    1.2015    8.2188 N.pl3     1 <0>        -0.1315
     16 N4          1.2840    0.2360    9.0351 N.2       1 <0>        -0.2856
     17 C11         2.1899    0.6599    9.8965 C.2       1 <0>         0.2613
     18 N5          2.4748    1.9275    9.5605 N.2       1 <0>        -0.2559
     19 N6          1.7559    2.2210    8.5305 N.2       1 <0>        -0.0382
     20 C12         2.7759   -0.1114   11.0144 C.2       1 <0>        -0.1002
     21 C13         3.7093    0.2795   11.9359 C.2       1 <0>        -0.0981
     22 C14         4.1084   -0.6222   12.8983 C.2       1 <0>        -0.1631
     23 C15         3.5661   -1.8668   12.9039 C.2       1 <0>        -0.1593
     24 S1          2.4438   -1.7919   11.5176 S.3       1 <0>         0.1100
     25 H1          1.0039    1.9031    0.0027 H         1 <0>         0.0578
     26 H2         -0.5459    1.8868   -0.8726 H         1 <0>         0.0595
     27 H3         -0.5289    1.8773    0.9072 H         1 <0>         0.0536
     28 H4          0.5123   -0.3556   -0.8948 H         1 <0>         0.0897
     29 H5         -1.9435   -0.1821    0.9097 H         1 <0>         0.0582
     30 H6         -1.9605   -0.1726   -0.8702 H         1 <0>         0.0688
     31 H7         -2.4352   -2.4408    0.0122 H         1 <0>         0.0638
     32 H8         -0.9024   -2.4150   -0.8923 H         1 <0>         0.0651
     33 H9         -1.1828   -2.2188    2.1408 H         1 <0>         0.0590
     34 H10        -0.6578   -3.6602    1.2380 H         1 <0>         0.0633
     35 H11         1.2900   -2.4018    2.1162 H         1 <0>         0.0695
     36 H12         1.2730   -2.3923    0.3363 H         1 <0>         0.0756
     37 H13         1.7647   -0.1336    1.2338 H         1 <0>         0.0922
     38 H14        -0.8882    0.1796    2.4135 H         1 <0>         0.3976
     39 H15        -0.8375    0.7459    4.6776 H         1 <0>         0.4130
     40 H16        -0.3241    2.1402    6.9259 H         1 <0>         0.1583
     41 H17        -0.7271    0.4605    7.3551 H         1 <0>         0.1557
     42 H18         4.1254    1.2758   11.9090 H         1 <0>         0.1462
     43 H19         4.8435   -0.3426   13.6384 H         1 <0>         0.1441
     44 H20         3.7605   -2.6891   13.5765 H         1 <0>         0.1939
@<TRIPOS>BOND
     1    1    2 1
     2    1   25 1
     3    1   26 1
     4    1   27 1
     5    2    7 1
     6    2    3 1
     7    2   28 1
     8    3    4 1
     9    3   29 1
    10    3   30 1
    11    4    5 1
    12    4   31 1
    13    4   32 1
    14    5    6 1
    15    5   33 1
    16    5   34 1
    17    6    7 1
    18    6   35 1
    19    6   36 1
    20    7    8 1
    21    7   37 1
    22    8    9 am
    23    8   38 1
    24    9   10 2
    25    9   11 am
    26   11   12 am
    27   11   39 1
    28   12   13 2
    29   12   14 1
    30   14   15 1
    31   14   40 1
    32   14   41 1
    33   15   19 1
    34   15   16 1
    35   16   17 2
    36   17   18 1
    37   17   20 1
    38   18   19 2
    39   20   24 1
    40   20   21 2
    41   21   22 1
    42   21   42 1
    43   22   23 2
    44   22   43 1
    45   23   24 1
    46   23   44 1
@<TRIPOS>MOLECULE
ZINC67020533
   51    53     0     0     0
SMALL
USER_CHARGES

@<TRIPOS>ATOM
      1 C1          0.4665   -2.8076    2.4737 C.3       1 <0>        -0.1187
      2 C2          0.2765   -2.0731    1.1716 C.ar      1 <0>        -0.0774
      3 C3          0.4036   -2.7472   -0.0274 C.ar      1 <0>        -0.1138
      4 C4          0.2294   -2.0740   -1.2224 C.ar      1 <0>        -0.1026
      5 C5         -0.0729   -0.7244   -1.2216 C.ar      1 <0>        -0.1186
      6 C6         -0.2017   -0.0449   -0.0264 C.ar      1 <0>        -0.1005
      7 C7         -0.0321   -0.7193    1.1759 C.ar      1 <0>         0.1101
      8 N1         -0.1672   -0.0349    2.3889 N.am      1 <0>        -0.5500
      9 C8          1.0120    0.5404    3.0406 C.3       1 <0>         0.0972
     10 C9          1.1462    1.9892    2.6482 C.2       1 <0>         0.4992
     11 O1          0.3758    2.4743    1.8469 O.2       1 <0>        -0.5293
     12 N2          2.1224    2.7458    3.1877 N.am      1 <0>        -0.7338
     13 C10         2.2529    4.1543    2.8062 C.3       1 <0>         0.0879
     14 C11        -1.3821    0.0952    2.9576 C.2       1 <0>         0.5298
     15 O2         -1.4992    0.6884    4.0089 O.2       1 <0>        -0.5159
     16 C12        -2.5952   -0.4966    2.2871 C.3       1 <0>        -0.0791
     17 C13        -3.8182   -0.2134    3.1209 C.2       1 <0>        -0.2047
     18 C14        -4.1576   -1.0560    4.1851 C.2       1 <0>         0.2616
     19 N3         -5.2260   -0.8072    4.9113 N.2       1 <0>        -0.4827
     20 C15        -6.0033    0.2498    4.6483 C.2       1 <0>         0.3578
     21 C16        -7.1650    0.7268    5.2514 C.2       1 <0>        -0.3527
     22 C17        -7.5590    1.8744    4.5652 C.2       1 <0>         0.5487
     23 O3         -8.5375    2.5581    4.8194 O.2       1 <0>        -0.5388
     24 N4         -6.6754    2.1005    3.5742 N.am      1 <0>        -0.5140
     25 H1         -6.7091    2.8347    2.9412 H         1 <0>         0.4351
     26 N5         -5.6998    1.0971    3.6124 N.pl3     1 <0>        -0.3030
     27 C18        -4.5984    0.8659    2.8493 C.2       1 <0>         0.2229
     28 C19        -4.2501    1.7921    1.7127 C.3       1 <0>        -0.1363
     29 C20        -3.2971   -2.2524    4.5001 C.3       1 <0>        -0.1173
     30 H2         -0.5027   -3.1319    2.8526 H         1 <0>         0.0734
     31 H3          1.1025   -3.6777    2.3106 H         1 <0>         0.0727
     32 H4          0.9370   -2.1445    3.1996 H         1 <0>         0.0675
     33 H5          0.6395   -3.8010   -0.0313 H         1 <0>         0.1297
     34 H6          0.3300   -2.6031   -2.1585 H         1 <0>         0.1275
     35 H7         -0.2079   -0.2013   -2.1568 H         1 <0>         0.1279
     36 H8         -0.4374    1.0091   -0.0264 H         1 <0>         0.1350
     37 H9          0.9019    0.4657    4.1225 H         1 <0>         0.1169
     38 H10         1.9024   -0.0048    2.7275 H         1 <0>         0.1133
     39 H11         2.7386    2.3579    3.8286 H         1 <0>         0.4034
     40 H12         2.4276    4.2252    1.7327 H         1 <0>         0.0604
     41 H13         1.3362    4.6861    3.0611 H         1 <0>         0.0598
     42 H14         3.0918    4.5994    3.3411 H         1 <0>         0.0775
     43 H15        -2.7177   -0.0518    1.2996 H         1 <0>         0.1114
     44 H16        -2.4654   -1.5741    2.1867 H         1 <0>         0.1178
     45 H17        -7.6701    0.2862    6.0983 H         1 <0>         0.1739
     46 H18        -4.7334    1.4445    0.7997 H         1 <0>         0.1045
     47 H19        -4.5954    2.7993    1.9459 H         1 <0>         0.0844
     48 H20        -3.1694    1.8023    1.5705 H         1 <0>         0.1051
     49 H21        -2.5230   -1.9658    5.2120 H         1 <0>         0.0977
     50 H22        -3.9142   -3.0402    4.9320 H         1 <0>         0.0939
     51 H23        -2.8316   -2.6164    3.5842 H         1 <0>         0.0849
@<TRIPOS>BOND
     1    1    2 1
     2    1   30 1
     3    1   31 1
     4    1   32 1
     5    2    7 ar
     6    2    3 ar
     7    3    4 ar
     8    3   33 1
     9    4    5 ar
    10    4   34 1
    11    5    6 ar
    12    5   35 1
    13    6    7 ar
    14    6   36 1
    15    7    8 1
    16    8    9 1
    17    8   14 am
    18    9   10 1
    19    9   37 1
    20    9   38 1
    21   10   11 2
    22   10   12 am
    23   12   13 1
    24   12   39 1
    25   13   40 1
    26   13   41 1
    27   13   42 1
    28   14   15 2
    29   14   16 1
    30   16   17 1
    31   16   43 1
    32   16   44 1
    33   17   27 2
    34   17   18 1
    35   18   19 2
    36   18   29 1
    37   19   20 1
    38   20   26 1
    39   20   21 2
    40   21   22 1
    41   21   45 1
    42   22   23 2
    43   22   24 am
    44   24   25 1
    45   24   26 1
    46   26   27 1
    47   27   28 1
    48   28   46 1
    49   28   47 1
    50   28   48 1
    51   29   49 1
    52   29   50 1
    53   29   51 1
@<TRIPOS>MOLECULE
ZINC14701229
   48    50     0     0     0
SMALL
USER_CHARGES
methyl 5-[[(1R)-1-(2,3-dihydro-1,4-benzodioxin-6-yl)ethyl]carbamoyl]-2,4-dimethyl-1H-pyrrole-3-carboxylate
@<TRIPOS>ATOM
      1 C1         -8.0602   -2.2291   -2.8501 C.3       1 <0>        -0.0995
      2 C2         -7.6784   -0.7733   -2.9282 C.2       1 <0>        -0.0171
      3 C3         -8.3443    0.2322   -3.6656 C.2       1 <0>        -0.2137
      4 C4         -7.6548    1.4125   -3.4561 C.2       1 <0>         0.1194
      5 N1         -6.6242    1.1606   -2.6340 N.pl3     1 <0>        -0.5238
      6 H1         -5.9791    1.8158   -2.3250 H         1 <0>         0.4208
      7 C5         -6.6270   -0.1759   -2.2987 C.2       1 <0>        -0.0615
      8 C6         -5.6596   -0.8436   -1.4190 C.2       1 <0>         0.5953
      9 O1         -5.7627   -2.0350   -1.1946 O.2       1 <0>        -0.5164
     10 N2         -4.6573   -0.1368   -0.8601 N.am      1 <0>        -0.7270
     11 C7         -3.6920   -0.8031    0.0176 C.3       1 <0>         0.1910
     12 H2         -3.5130   -1.8164   -0.3420 H         1 <0>         0.1031
     13 C8         -4.2503   -0.8582    1.4410 C.3       1 <0>        -0.1597
     14 C9         -2.3965   -0.0332    0.0157 C.ar      1 <0>        -0.0901
     15 C10        -2.4153    1.3492    0.0259 C.ar      1 <0>        -0.1124
     16 C11        -1.2294    2.0588    0.0190 C.ar      1 <0>        -0.1076
     17 C12        -0.0168    1.3855    0.0097 C.ar      1 <0>         0.0531
     18 C13         0.0021   -0.0041    0.0020 C.ar      1 <0>         0.0572
     19 C14        -1.1918   -0.7102    0.0041 C.ar      1 <0>        -0.0987
     20 O2          1.1807   -0.6848   -0.0066 O.3       1 <0>        -0.3052
     21 C15         2.3470    0.0535   -0.3870 C.3       1 <0>         0.0197
     22 C16         2.3345    1.3916    0.3645 C.3       1 <0>         0.0198
     23 O3          1.1429    2.0980    0.0024 O.3       1 <0>        -0.3065
     24 C17        -8.0013    2.7534   -4.0503 C.3       1 <0>        -0.1005
     25 C18        -9.5425    0.0552   -4.5028 C.2       1 <0>         0.5473
     26 O4         -9.4257   -0.2271   -5.6791 O.2       1 <0>        -0.4956
     27 O5        -10.7688    0.2063   -3.9648 O.3       1 <0>        -0.3515
     28 C19       -11.9047    0.0169   -4.8492 C.3       1 <0>         0.0327
     29 H3         -8.7518   -2.3794   -2.0212 H         1 <0>         0.0772
     30 H4         -8.5392   -2.5295   -3.7820 H         1 <0>         0.0634
     31 H5         -7.1657   -2.8312   -2.6908 H         1 <0>         0.0906
     32 H6         -4.5751    0.8130   -1.0391 H         1 <0>         0.3930
     33 H7         -5.1874   -1.4151    1.4424 H         1 <0>         0.0690
     34 H8         -3.5321   -1.3540    2.0941 H         1 <0>         0.0714
     35 H9         -4.4293    0.1550    1.8006 H         1 <0>         0.0600
     36 H10        -3.3583    1.8754    0.0361 H         1 <0>         0.1281
     37 H11        -1.2469    3.1386    0.0268 H         1 <0>         0.1378
     38 H12        -1.1798   -1.7901   -0.0036 H         1 <0>         0.1394
     39 H13         3.2416   -0.5095   -0.1205 H         1 <0>         0.1253
     40 H14         2.3332    0.2345   -1.4617 H         1 <0>         0.0795
     41 H15         2.3419    1.2097    1.4392 H         1 <0>         0.0799
     42 H16         3.2092    1.9786    0.0844 H         1 <0>         0.1248
     43 H17        -7.4877    2.8717   -5.0044 H         1 <0>         0.0883
     44 H18        -9.0783    2.8137   -4.2075 H         1 <0>         0.0878
     45 H19        -7.6887    3.5445   -3.3688 H         1 <0>         0.0798
     46 H20       -11.8528    0.7363   -5.6664 H         1 <0>         0.0640
     47 H21       -11.8851   -0.9949   -5.2541 H         1 <0>         0.0647
     48 H22       -12.8288    0.1671   -4.2910 H         1 <0>         0.1035
@<TRIPOS>BOND
     1    1    2 1
     2    1   29 1
     3    1   30 1
     4    1   31 1
     5    2    7 2
     6    2    3 1
     7    3    4 2
     8    3   25 1
     9    4    5 1
    10    4   24 1
    11    5    6 1
    12    5    7 1
    13    7    8 1
    14    8    9 2
    15    8   10 am
    16   10   11 1
    17   10   32 1
    18   11   12 1
    19   11   13 1
    20   11   14 1
    21   13   33 1
    22   13   34 1
    23   13   35 1
    24   14   19 ar
    25   14   15 ar
    26   15   16 ar
    27   15   36 1
    28   16   17 ar
    29   16   37 1
    30   17   23 1
    31   17   18 ar
    32   18   19 ar
    33   18   20 1
    34   19   38 1
    35   20   21 1
    36   21   22 1
    37   21   39 1
    38   21   40 1
    39   22   23 1
    40   22   41 1
    41   22   42 1
    42   24   43 1
    43   24   44 1
    44   24   45 1
    45   25   26 2
    46   25   27 1
    47   27   28 1
    48   28   46 1
    49   28   47 1
    50   28   48 1
@<TRIPOS>MOLECULE
ZINC03600029
   44    46     0     0     0
SMALL
USER_CHARGES

@<TRIPOS>ATOM
      1 C1         -0.0187    1.5258    0.0104 C.3       1 <0>        -0.1470
      2 C2          0.0021   -0.0041    0.0020 C.3       1 <0>        -0.1079
      3 C3          0.7421   -0.5109    1.2415 C.3       1 <0>        -0.1506
      4 C4         -1.4333   -0.5336    0.0129 C.3       1 <0>         0.1372
      5 N1         -1.4164   -1.9929   -0.1155 N.am      1 <0>        -0.7345
      6 C5         -2.5748   -2.6816   -0.1296 C.2       1 <0>         0.6950
      7 O1         -3.6335   -2.0921   -0.0358 O.2       1 <0>        -0.5253
      8 N2         -2.5593   -4.0241   -0.2477 N.am      1 <0>        -0.6876
      9 C6         -3.7177   -4.7128   -0.2618 C.2       1 <0>         0.5182
     10 O2         -4.7737   -4.1247   -0.1683 O.2       1 <0>        -0.4397
     11 C7         -3.7003   -6.2139   -0.3939 C.3       1 <0>         0.0515
     12 O3         -5.0410   -6.7085   -0.3837 O.3       1 <0>        -0.2657
     13 C8         -5.2028   -8.0487   -0.4946 C.ar      1 <0>         0.4157
     14 C9         -6.5027   -8.6195   -0.4987 C.ar      1 <0>        -0.1849
     15 C10        -7.8029   -7.9365   -0.3933 C.2       1 <0>        -0.0975
     16 C11        -8.8991   -8.7108   -0.4222 C.2       1 <0>        -0.1731
     17 S1         -8.2887  -10.3726   -0.5916 S.3       1 <0>         0.1675
     18 C12        -6.5522  -10.0208   -0.6197 C.ar      1 <0>         0.1346
     19 N3         -5.4530  -10.7427   -0.7202 N.ar      1 <0>        -0.4948
     20 C13        -4.2716  -10.1562   -0.7097 C.ar      1 <0>         0.3568
     21 N4         -4.1530   -8.8442   -0.6060 N.ar      1 <0>        -0.5883
     22 C14       -10.1664   -7.9071   -0.3021 C.3       1 <0>        -0.0362
     23 C15        -9.7061   -6.5367    0.2416 C.3       1 <0>        -0.1169
     24 C16        -8.2478   -6.4777   -0.2538 C.3       1 <0>        -0.0617
     25 H1          1.0039    1.9031    0.0027 H         1 <0>         0.0627
     26 H2         -0.5459    1.8868   -0.8726 H         1 <0>         0.0597
     27 H3         -0.5289    1.8773    0.9072 H         1 <0>         0.0600
     28 H4          0.5123   -0.3556   -0.8948 H         1 <0>         0.0782
     29 H5          0.2319   -0.1594    2.1383 H         1 <0>         0.0591
     30 H6          0.7568   -1.6008    1.2356 H         1 <0>         0.0531
     31 H7          1.7647   -0.1336    1.2338 H         1 <0>         0.0604
     32 H8         -1.9156   -0.2570    0.9504 H         1 <0>         0.0721
     33 H9         -1.9862   -0.1019   -0.8214 H         1 <0>         0.0717
     34 H10        -0.5715   -2.4635   -0.1904 H         1 <0>         0.3992
     35 H11        -1.7144   -4.4946   -0.3226 H         1 <0>         0.4121
     36 H12        -3.2181   -6.4906   -1.3314 H         1 <0>         0.1105
     37 H13        -3.1474   -6.6457    0.4404 H         1 <0>         0.1106
     38 H14        -3.3812  -10.7616   -0.7929 H         1 <0>         0.2154
     39 H15       -10.6367   -7.7904   -1.2785 H         1 <0>         0.0915
     40 H16       -10.8535   -8.3827    0.3977 H         1 <0>         0.0851
     41 H17       -10.2972   -5.7279   -0.1879 H         1 <0>         0.0880
     42 H18        -9.7496   -6.5143    1.3305 H         1 <0>         0.0788
     43 H19        -7.6228   -5.9609    0.4746 H         1 <0>         0.0827
     44 H20        -8.1976   -5.9743   -1.2193 H         1 <0>         0.0843
@<TRIPOS>BOND
     1    1    2 1
     2    1   25 1
     3    1   26 1
     4    1   27 1
     5    2    3 1
     6    2    4 1
     7    2   28 1
     8    3   29 1
     9    3   30 1
    10    3   31 1
    11    4    5 1
    12    4   32 1
    13    4   33 1
    14    5    6 am
    15    5   34 1
    16    6    7 2
    17    6    8 am
    18    8    9 am
    19    8   35 1
    20    9   10 2
    21    9   11 1
    22   11   12 1
    23   11   36 1
    24   11   37 1
    25   12   13 1
    26   13   21 ar
    27   13   14 ar
    28   14   18 ar
    29   14   15 1
    30   15   24 1
    31   15   16 2
    32   16   17 1
    33   16   22 1
    34   17   18 1
    35   18   19 ar
    36   19   20 ar
    37   20   21 ar
    38   20   38 1
    39   22   23 1
    40   22   39 1
    41   22   40 1
    42   23   24 1
    43   23   41 1
    44   23   42 1
    45   24   43 1
    46   24   44 1
@<TRIPOS>MOLECULE
ZINC09088008
   43    45     0     0     0
SMALL
USER_CHARGES

@<TRIPOS>ATOM
      1 C1         -0.0173    1.4248    0.0099 C.3       1 <0>         0.0265
      2 O1          0.0021   -0.0041    0.0020 O.3       1 <0>        -0.3153
      3 C2         -1.2002   -0.6374    0.0101 C.ar      1 <0>         0.1690
      4 C3         -2.3748    0.1020    0.0195 C.ar      1 <0>        -0.2407
      5 C4         -3.5974   -0.5413    0.0278 C.ar      1 <0>        -0.0451
      6 C5         -3.6542   -1.9221    0.0271 C.ar      1 <0>        -0.1487
      7 C6         -2.4829   -2.6658    0.0177 C.ar      1 <0>         0.1850
      8 C7         -1.2547   -2.0225    0.0032 C.ar      1 <0>        -0.2423
      9 O2         -2.5394   -4.0236    0.0171 O.3       1 <0>        -0.2998
     10 C8         -1.2943   -4.7248    0.0071 C.3       1 <0>         0.0252
     11 C9         -4.9895   -2.6206    0.0372 C.3       1 <0>         0.0382
     12 H1         -4.8352   -3.6997    0.0351 H         1 <0>         0.1214
     13 C10        -5.7659   -2.2188    1.2926 C.3       1 <0>        -0.1347
     14 C11        -6.2420   -0.7967    1.1642 C.2       1 <0>         0.5337
     15 O3         -6.2888   -0.0902    2.1486 O.2       1 <0>        -0.5005
     16 N1         -6.6167   -0.2994   -0.0283 N.am      1 <0>        -0.6480
     17 C12        -6.5546   -1.0806   -1.1701 C.2       1 <0>         0.4295
     18 C13        -5.7726   -2.2235   -1.1846 C.2       1 <0>        -0.2968
     19 C14        -5.7226   -2.9996   -2.3459 C.2       1 <0>         0.5502
     20 O4         -5.0433   -4.0130   -2.3892 O.2       1 <0>        -0.5122
     21 N2         -6.4419   -2.6055   -3.4189 N.am      1 <0>        -0.6166
     22 H2         -6.4216   -3.1294   -4.2350 H         1 <0>         0.4248
     23 C15        -7.1961   -1.4730   -3.3559 C.2       1 <0>         0.3981
     24 N3         -7.2454   -0.7383   -2.2626 N.2       1 <0>        -0.5616
     25 S1         -8.1265   -0.9783   -4.7681 S.3       1 <0>         0.0269
     26 C16        -8.9547    0.5455   -4.2363 C.3       1 <0>         0.0164
     27 C17        -9.7760    1.0685   -5.3402 C.1       1 <0>        -0.2065
     28 C18       -10.4310    1.4857   -6.2207 C.1       1 <0>        -0.1337
     29 H3          1.0053    1.8021    0.0021 H         1 <0>         0.1023
     30 H4         -0.5445    1.7859   -0.8732 H         1 <0>         0.0565
     31 H5         -0.5275    1.7763    0.9067 H         1 <0>         0.0580
     32 H6         -2.3329    1.1812    0.0208 H         1 <0>         0.1293
     33 H7         -4.5102    0.0359    0.0352 H         1 <0>         0.1246
     34 H8         -0.3419   -2.5996   -0.0087 H         1 <0>         0.1390
     35 H9         -0.7324   -4.4546   -0.8869 H         1 <0>         0.0569
     36 H10        -0.7189   -4.4560    0.8930 H         1 <0>         0.0572
     37 H11        -1.4820   -5.7985    0.0077 H         1 <0>         0.1031
     38 H12        -6.6248   -2.8789    1.4142 H         1 <0>         0.1131
     39 H13        -5.1166   -2.3064    2.1637 H         1 <0>         0.1194
     40 H14        -6.9338    0.6153   -0.0889 H         1 <0>         0.4183
     41 H15        -9.5924    0.3320   -3.3785 H         1 <0>         0.1260
     42 H16        -8.2064    1.2872   -3.9570 H         1 <0>         0.1256
     43 H17       -11.0168    1.8588   -7.0081 H         1 <0>         0.2285
@<TRIPOS>BOND
     1    1    2 1
     2    1   29 1
     3    1   30 1
     4    1   31 1
     5    2    3 1
     6    3    8 ar
     7    3    4 ar
     8    4    5 ar
     9    4   32 1
    10    5    6 ar
    11    5   33 1
    12    6    7 ar
    13    6   11 1
    14    7    8 ar
    15    7    9 1
    16    8   34 1
    17    9   10 1
    18   10   35 1
    19   10   36 1
    20   10   37 1
    21   11   12 1
    22   11   18 1
    23   11   13 1
    24   13   14 1
    25   13   38 1
    26   13   39 1
    27   14   15 2
    28   14   16 am
    29   16   17 1
    30   16   40 1
    31   17   24 1
    32   17   18 2
    33   18   19 1
    34   19   20 2
    35   19   21 am
    36   21   22 1
    37   21   23 1
    38   23   24 2
    39   23   25 1
    40   25   26 1
    41   26   27 1
    42   26   41 1
    43   26   42 1
    44   27   28 3
    45   28   43 1
@<TRIPOS>MOLECULE
ZINC66556314
   41    43     0     0     0
SMALL
USER_CHARGES

@<TRIPOS>ATOM
      1 C1         -0.0184    1.5028    0.0103 C.3       1 <0>        -0.1095
      2 C2          0.0021   -0.0041    0.0020 C.2       1 <0>        -0.0163
      3 C3          0.0067   -0.7285   -1.1658 C.2       1 <0>        -0.1866
      4 C4          0.0253   -2.0828   -1.1012 C.2       1 <0>        -0.2089
      5 S1          0.0372   -2.4164    0.5452 S.3       1 <0>         0.2112
      6 C5          0.0233   -0.7477    1.1721 C.2       1 <0>        -0.2714
      7 C6          0.0306   -0.2828    2.5623 C.2       1 <0>         0.6129
      8 O1          0.0170    0.9096    2.8052 O.2       1 <0>        -0.5205
      9 N1          0.0522   -1.1760    3.5714 N.am      1 <0>        -0.5178
     10 N2          0.0591   -0.7317    4.9001 N.am      1 <0>        -0.5064
     11 C7          0.0808   -1.6248    5.9092 C.2       1 <0>         0.6116
     12 O2          0.0943   -2.8161    5.6664 O.2       1 <0>        -0.5250
     13 C8          0.0881   -1.1566    7.3094 C.2       1 <0>        -0.0063
     14 C9          0.1158   -1.9694    8.4675 C.2       1 <0>        -0.1599
     15 C10         0.1121   -1.1107    9.5140 C.2       1 <0>        -0.0138
     16 N3          0.0836    0.1463    8.9999 N.pl3     1 <0>        -0.2186
     17 N4          0.0758    0.0979    7.7161 N.2       1 <0>        -0.2566
     18 C11         0.0702    1.3245    9.7594 C.ar      1 <0>         0.0867
     19 C12         0.0921    1.2572   11.1463 C.ar      1 <0>        -0.0802
     20 C13         0.0793    2.4178   11.8937 C.ar      1 <0>        -0.1289
     21 C14         0.0442    3.6515   11.2594 C.ar      1 <0>         0.1359
     22 C15         0.0224    3.7193    9.8736 C.ar      1 <0>        -0.1889
     23 C16         0.0409    2.5595    9.1251 C.ar      1 <0>        -0.0621
     24 O3          0.0308    4.7939   11.9958 O.3       1 <0>        -0.3115
     25 C17        -0.0055    6.0285   11.2772 C.3       1 <0>         0.0231
     26 H1          1.0042    1.8801    0.0026 H         1 <0>         0.0784
     27 H2         -0.5455    1.8639   -0.8728 H         1 <0>         0.0688
     28 H3         -0.5286    1.8543    0.9071 H         1 <0>         0.0894
     29 H4         -0.0048   -0.2261   -2.1218 H         1 <0>         0.1422
     30 H5          0.0309   -2.7861   -1.9208 H         1 <0>         0.1927
     31 H6          0.0630   -2.1264    3.3777 H         1 <0>         0.4320
     32 H7          0.0484    0.2187    5.0937 H         1 <0>         0.4401
     33 H8          0.1354   -3.0485    8.5080 H         1 <0>         0.1727
     34 H9          0.1287   -1.3754   10.5609 H         1 <0>         0.1904
     35 H10         0.1187    0.2971   11.6401 H         1 <0>         0.1433
     36 H11         0.0963    2.3656   12.9723 H         1 <0>         0.1465
     37 H12        -0.0053    4.6798    9.3804 H         1 <0>         0.1420
     38 H13         0.0283    2.6125    8.0465 H         1 <0>         0.1454
     39 H14         0.8740    6.1027   10.6376 H         1 <0>         0.0595
     40 H15        -0.9054    6.0653   10.6632 H         1 <0>         0.0595
     41 H16        -0.0129    6.8594   11.9827 H         1 <0>         0.1051
@<TRIPOS>BOND
     1    1    2 1
     2    1   26 1
     3    1   27 1
     4    1   28 1
     5    2    6 2
     6    2    3 1
     7    3    4 2
     8    3   29 1
     9    4    5 1
    10    4   30 1
    11    5    6 1
    12    6    7 1
    13    7    8 2
    14    7    9 am
    15    9   10 1
    16    9   31 1
    17   10   11 am
    18   10   32 1
    19   11   12 2
    20   11   13 1
    21   13   17 2
    22   13   14 1
    23   14   15 2
    24   14   33 1
    25   15   16 1
    26   15   34 1
    27   16   17 1
    28   16   18 1
    29   18   23 ar
    30   18   19 ar
    31   19   20 ar
    32   19   35 1
    33   20   21 ar
    34   20   36 1
    35   21   22 ar
    36   21   24 1
    37   22   23 ar
    38   22   37 1
    39   23   38 1
    40   24   25 1
    41   25   39 1
    42   25   40 1
    43   25   41 1
@<TRIPOS>MOLECULE
ZINC67549053
   52    55     0     0     0
SMALL
USER_CHARGES

@<TRIPOS>ATOM
      1 C1          0.8793   -0.6719    1.1862 C.ar      1 <0>        -0.1130
      2 C2          2.1381   -0.1177    1.3288 C.ar      1 <0>        -0.0955
      3 C3          2.5501    0.8947    0.4781 C.ar      1 <0>         0.0303
      4 C4          1.6935    1.3520   -0.5208 C.ar      1 <0>         0.0379
      5 C5          0.4340    0.7923   -0.6576 C.ar      1 <0>        -0.0907
      6 C6          0.0294   -0.2183    0.1952 C.ar      1 <0>        -0.0631
      7 C7         -1.3414   -0.8257    0.0441 C.3       1 <0>        -0.0249
      8 C8         -1.5919   -1.8156    1.1859 C.3       1 <0>        -0.1478
      9 C9         -3.0148   -2.3681    1.0689 C.3       1 <0>         0.0574
     10 O1         -3.9482   -1.2864    1.0962 O.3       1 <0>        -0.3781
     11 C10        -3.7923   -0.3540    0.0246 C.3       1 <0>         0.0554
     12 C11        -2.4006    0.2795    0.0996 C.3       1 <0>        -0.1405
     13 C12        -1.4329   -1.5554   -1.2976 C.3       1 <0>         0.1471
     14 N1         -0.3801   -2.5713   -1.3737 N.am      1 <0>        -0.7416
     15 C13        -0.2425   -3.3169   -2.4880 C.2       1 <0>         0.7048
     16 O2         -0.9920   -3.1463   -3.4301 O.2       1 <0>        -0.5915
     17 N2          0.7261   -4.2515   -2.5581 N.am      1 <0>        -0.7403
     18 C14         0.8757   -5.0619   -3.7693 C.3       1 <0>         0.1307
     19 C15         2.0397   -6.0384   -3.5890 C.3       1 <0>         0.0676
     20 H1          2.9406   -5.4921   -3.3099 H         1 <0>         0.0875
     21 C16         2.2823   -6.8124   -4.9025 C.3       1 <0>        -0.1482
     22 C17         2.6064   -8.2415   -4.3880 C.3       1 <0>        -0.1564
     23 C18         1.6933   -8.3183   -3.1385 C.3       1 <0>         0.0488
     24 O3          1.7178   -6.9959   -2.5734 O.3       1 <0>        -0.3762
     25 O4          2.3249    2.3415   -1.2174 O.3       1 <0>        -0.3080
     26 C19         3.4159    2.7659   -0.3791 C.3       1 <0>         0.2129
     27 O5          3.7179    1.5979    0.4069 O.3       1 <0>        -0.3087
     28 H2          0.5612   -1.4641    1.8478 H         1 <0>         0.1427
     29 H3          2.8001   -0.4741    2.1041 H         1 <0>         0.1372
     30 H4         -0.2321    1.1448   -1.4312 H         1 <0>         0.1345
     31 H5         -0.8764   -2.6353    1.1209 H         1 <0>         0.0780
     32 H6         -1.4768   -1.3053    2.1422 H         1 <0>         0.0842
     33 H7         -3.1172   -2.9130    0.1304 H         1 <0>         0.0554
     34 H8         -3.2134   -3.0407    1.9034 H         1 <0>         0.0976
     35 H9         -3.9048   -0.8725   -0.9276 H         1 <0>         0.0562
     36 H10        -4.5509    0.4244    0.1067 H         1 <0>         0.0992
     37 H11        -2.3018    0.8320    1.0340 H         1 <0>         0.0836
     38 H12        -2.2634    0.9581   -0.7422 H         1 <0>         0.0814
     39 H13        -2.4077   -2.0351   -1.3846 H         1 <0>         0.0749
     40 H14        -1.3064   -0.8395   -2.1098 H         1 <0>         0.0718
     41 H15         0.2178   -2.7074   -0.6222 H         1 <0>         0.3955
     42 H16         1.3240   -4.3876   -1.8065 H         1 <0>         0.3988
     43 H17        -0.0429   -5.6207   -3.9484 H         1 <0>         0.0709
     44 H18         1.0764   -4.4105   -4.6198 H         1 <0>         0.0763
     45 H19         1.3850   -6.8171   -5.5214 H         1 <0>         0.0834
     46 H20         3.1288   -6.3952   -5.4479 H         1 <0>         0.0873
     47 H21         2.3293   -8.9962   -5.1241 H         1 <0>         0.0863
     48 H22         3.6573   -8.3310   -4.1128 H         1 <0>         0.0801
     49 H23         0.6777   -8.5880   -3.4281 H         1 <0>         0.0623
     50 H24         2.0887   -9.0412   -2.4249 H         1 <0>         0.0872
     51 H25         4.2755    3.0525   -0.9850 H         1 <0>         0.1331
     52 H26         3.1070    3.5905    0.2634 H         1 <0>         0.0861
@<TRIPOS>BOND
     1    1    6 ar
     2    1    2 ar
     3    1   28 1
     4    2    3 ar
     5    2   29 1
     6    3   27 1
     7    3    4 ar
     8    4    5 ar
     9    4   25 1
    10    5    6 ar
    11    5   30 1
    12    6    7 1
    13    7   12 1
    14    7    8 1
    15    7   13 1
    16    8    9 1
    17    8   31 1
    18    8   32 1
    19    9   10 1
    20    9   33 1
    21    9   34 1
    22   10   11 1
    23   11   12 1
    24   11   35 1
    25   11   36 1
    26   12   37 1
    27   12   38 1
    28   13   14 1
    29   13   39 1
    30   13   40 1
    31   14   15 am
    32   14   41 1
    33   15   16 2
    34   15   17 am
    35   17   18 1
    36   17   42 1
    37   18   19 1
    38   18   43 1
    39   18   44 1
    40   19   20 1
    41   19   24 1
    42   19   21 1
    43   21   22 1
    44   21   45 1
    45   21   46 1
    46   22   23 1
    47   22   47 1
    48   22   48 1
    49   23   24 1
    50   23   49 1
    51   23   50 1
    52   25   26 1
    53   26   27 1
    54   26   51 1
    55   26   52 1
@<TRIPOS>MOLECULE
ZINC12239176
   55    58     0     0     0
SMALL
USER_CHARGES
N-[[(3R)-1-benzylpyrrolidin-3-yl]methyl]-3-ethyl-2-oxo-1,3-benzoxazole-6-sulfonamide
@<TRIPOS>ATOM
      1 C1          6.2851    2.5742    5.9398 C.3       1 <0>        -0.1769
      2 C2          6.1259    2.9312    4.4606 C.3       1 <0>         0.1216
      3 N1          5.3436    1.8906    3.7886 N.am      1 <0>        -0.5454
      4 C3          3.9564    1.8637    3.6470 C.ar      1 <0>         0.1357
      5 C4          2.9420    2.7185    4.0489 C.ar      1 <0>        -0.1195
      6 C5          1.6280    2.4124    3.7526 C.ar      1 <0>         0.0048
      7 C6          1.3229    1.2560    3.0560 C.ar      1 <0>        -0.6817
      8 C7          2.3280    0.3967    2.6572 C.ar      1 <0>         0.0201
      9 C8          3.6500    0.6980    2.9454 C.ar      1 <0>         0.0139
     10 O1          4.8202    0.0650    2.6858 O.3       1 <0>        -0.2318
     11 C9          5.8330    0.7847    3.1938 C.2       1 <0>         0.6362
     12 O2          7.0097    0.4855    3.1270 O.2       1 <0>        -0.4644
     13 S1         -0.3563    0.8747    2.6823 S.o2      1 <0>         2.7019
     14 O3         -1.1510    1.5568    3.6427 O.2       1 <0>        -0.9384
     15 O4         -0.4222   -0.5331    2.5004 O.2       1 <0>        -0.9453
     16 N2         -0.6984    1.5583    1.2133 N.pl3     1 <0>        -1.1176
     17 C10        -0.0127    1.0858    0.0080 C.3       1 <0>         0.1145
     18 C11        -0.7527    1.5927   -1.2315 C.3       1 <0>        -0.1161
     19 H1         -0.8851    2.6732   -1.1768 H         1 <0>         0.1220
     20 C12        -2.1224    0.8881   -1.3642 C.3       1 <0>        -0.1481
     21 C13        -2.2453    0.6544   -2.8909 C.3       1 <0>        -0.0048
     22 C14         0.0203    1.2128   -2.5081 C.3       1 <0>        -0.0071
     23 C15        -0.6631    0.5305   -4.7374 C.3       1 <0>         0.0545
     24 C16        -1.7326   -0.2074   -5.5007 C.ar      1 <0>        -0.1620
     25 C17        -1.5188   -1.5124   -5.9034 C.ar      1 <0>        -0.0924
     26 C18        -2.5016   -2.1907   -6.5998 C.ar      1 <0>        -0.1137
     27 C19        -3.6944   -1.5608   -6.9019 C.ar      1 <0>        -0.0833
     28 C20        -3.9064   -0.2542   -6.5034 C.ar      1 <0>        -0.1145
     29 C21        -2.9253    0.4226   -5.8032 C.ar      1 <0>        -0.0948
     30 H2          6.8671    3.3484    6.4398 H         1 <0>         0.0869
     31 H3          5.3015    2.5023    6.4041 H         1 <0>         0.0640
     32 H4          6.8000    1.6177    6.0294 H         1 <0>         0.0670
     33 H5          7.1094    3.0031    3.9963 H         1 <0>         0.1048
     34 H6          5.6110    3.8877    4.3710 H         1 <0>         0.0994
     35 H7          3.1783    3.6213    4.5926 H         1 <0>         0.1502
     36 H8          0.8366    3.0775    4.0651 H         1 <0>         0.1594
     37 H9          2.0846   -0.5069    2.1180 H         1 <0>         0.1577
     38 H10        -1.3529    2.2715    1.1509 H         1 <0>         0.4246
     39 H11         0.0021   -0.0041    0.0020 H         1 <0>         0.0912
     40 H12         1.0099    1.4631    0.0003 H         1 <0>         0.0820
     41 H13        -2.1217   -0.0607   -0.8277 H         1 <0>         0.1054
     42 H14        -2.9245    1.5339   -1.0070 H         1 <0>         0.1192
     43 H15        -2.5848    1.5606   -3.3927 H         1 <0>         0.1329
     44 H16        -2.9186   -0.1762   -3.1026 H         1 <0>         0.1373
     45 H17         0.2507    2.1096   -3.0833 H         1 <0>         0.1383
     46 H18         0.9421    0.6946   -2.2436 H         1 <0>         0.1382
     47 H19        -0.7267    1.5955   -4.9605 H         1 <0>         0.1331
     48 H20         0.3173    0.1556   -5.0313 H         1 <0>         0.1374
     49 H21        -0.5852   -2.0031   -5.6709 H         1 <0>         0.1312
     50 H22        -2.3361   -3.2116   -6.9108 H         1 <0>         0.1360
     51 H23        -4.4609   -2.0897   -7.4489 H         1 <0>         0.1357
     52 H24        -4.8383    0.2379   -6.7394 H         1 <0>         0.1357
     53 H25        -3.0908    1.4436   -5.4922 H         1 <0>         0.1291
     54 N3         -0.8617    0.3282   -3.2707 N.4       1 <0>        -0.3952
     55 H26        -0.6590   -0.6504   -3.0353 H         1 <0>         0.4307
@<TRIPOS>BOND
     1    1    2 1
     2    1   30 1
     3    1   31 1
     4    1   32 1
     5    2    3 1
     6    2   33 1
     7    2   34 1
     8    3   11 am
     9    3    4 1
    10    4    9 ar
    11    4    5 ar
    12    5    6 ar
    13    5   35 1
    14    6    7 ar
    15    6   36 1
    16    7    8 ar
    17    7   13 1
    18    8    9 ar
    19    8   37 1
    20    9   10 1
    21   10   11 1
    22   11   12 2
    23   13   14 2
    24   13   15 2
    25   13   16 1
    26   16   17 1
    27   16   38 1
    28   17   18 1
    29   17   39 1
    30   17   40 1
    31   18   19 1
    32   18   22 1
    33   18   20 1
    34   20   21 1
    35   20   41 1
    36   20   42 1
    37   21   43 1
    38   21   44 1
    39   21   54 1
    40   22   45 1
    41   22   46 1
    42   22   54 1
    43   23   24 1
    44   23   47 1
    45   23   48 1
    46   23   54 1
    47   24   29 ar
    48   24   25 ar
    49   25   26 ar
    50   25   49 1
    51   26   27 ar
    52   26   50 1
    53   27   28 ar
    54   27   51 1
    55   28   29 ar
    56   28   52 1
    57   29   53 1
    58   54   55 1
@<TRIPOS>MOLECULE
ZINC19526387
   66    69     0     0     0
SMALL
USER_CHARGES
2-diethylaminoethyl-methyl-[(1S,2S)-2-methylcyclopropanecarbonyl]BLAHdione
@<TRIPOS>ATOM
      1 C1          0.0692   10.3890   -1.5887 C.3       1 <0>        -0.1901
      2 C2         -1.0079   10.3906   -2.6753 C.3       1 <0>        -0.0165
      3 N1         -1.0289    9.0838   -3.3459 N.4       1 <0>        -0.3953
      4 C3          0.2465    8.8204   -4.0256 C.3       1 <0>        -0.0136
      5 C4          0.3632    9.7201   -5.2576 C.3       1 <0>        -0.1883
      6 C5         -1.3511    8.0100   -2.3967 C.3       1 <0>        -0.0338
      7 C6         -2.7863    8.1854   -1.8963 C.3       1 <0>         0.0828
      8 N2         -3.1098    7.1075   -0.9435 N.am      1 <0>        -0.5566
      9 C7         -3.6620    5.9333   -1.4429 C.ar      1 <0>         0.1457
     10 C8         -2.9228    5.0880   -2.2564 C.ar      1 <0>        -0.1340
     11 C9         -3.5073    3.9521   -2.7815 C.ar      1 <0>        -0.0791
     12 C10        -4.8296    3.6511   -2.4968 C.ar      1 <0>        -0.0968
     13 C11        -5.5725    4.4750   -1.6796 C.ar      1 <0>        -0.0523
     14 C12        -4.9935    5.6268   -1.1364 C.ar      1 <0>        -0.1174
     15 C13        -5.7702    6.4902   -0.2403 C.2       1 <0>         0.5675
     16 O1         -6.8488    6.9285   -0.5928 O.2       1 <0>        -0.5080
     17 N3         -5.3653    6.7611    1.0105 N.am      1 <0>        -0.7365
     18 C14        -4.4228    5.9591    1.7671 C.3       1 <0>         0.1900
     19 C15        -4.6235    4.4643    1.4647 C.3       1 <0>         0.0967
     20 N4         -3.3648    3.9127    0.9411 N.am      1 <0>        -0.6195
     21 C16        -2.3232    4.9525    0.9760 C.3       1 <0>         0.1099
     22 C17        -2.9633    6.2679    1.4227 C.3       1 <0>        -0.1254
     23 H1         -2.4362    6.6949    2.2886 H         1 <0>         0.1393
     24 C18        -2.8563    7.3150    0.3546 C.2       1 <0>         0.5391
     25 O2         -2.5148    8.4349    0.6965 O.2       1 <0>        -0.5202
     26 C19        -3.1858    2.6335    0.5033 C.2       1 <0>         0.5343
     27 O3         -4.1105    1.8491    0.5280 O.2       1 <0>        -0.5190
     28 C20        -1.8390    2.1947   -0.0111 C.3       1 <0>        -0.2183
     29 H2         -1.6293    3.1850   -0.4415 H         1 <0>         0.1266
     30 C21        -1.0570    1.1823    0.8295 C.3       1 <0>        -0.1070
     31 C22        -1.7022    0.7473   -0.4878 C.3       1 <0>        -0.0817
     32 H3         -2.4062   -0.0438   -0.7856 H         1 <0>         0.1414
     33 C23        -0.7741    0.4791   -1.6742 C.3       1 <0>        -0.1501
     34 C24        -4.6444    6.2079    3.2671 C.3       1 <0>        -0.1576
     35 H4          0.0849   11.3676   -1.0866 H         1 <0>         0.1065
     36 H5          1.0509   10.1956   -2.0458 H         1 <0>         0.0791
     37 H6         -0.1538    9.6026   -0.8525 H         1 <0>         0.0818
     38 H7         -1.9896   10.5840   -2.2182 H         1 <0>         0.1311
     39 H8         -0.7849   11.1770   -3.4115 H         1 <0>         0.1348
     40 H9          1.0788    9.0307   -3.3378 H         1 <0>         0.1305
     41 H10         0.2854    7.7660   -4.3366 H         1 <0>         0.1296
     42 H11         1.3182    9.5228   -5.7665 H         1 <0>         0.1077
     43 H12         0.3244   10.7745   -4.9466 H         1 <0>         0.0806
     44 H13        -0.4691    9.5098   -5.9454 H         1 <0>         0.0820
     45 H14        -1.2541    7.0359   -2.8984 H         1 <0>         0.1325
     46 H15        -0.6575    8.0540   -1.5441 H         1 <0>         0.1353
     47 H16        -2.8832    9.1595   -1.3946 H         1 <0>         0.1186
     48 H17        -3.4799    8.1415   -2.7490 H         1 <0>         0.1059
     49 H18        -1.8909    5.3171   -2.4790 H         1 <0>         0.1279
     50 H19        -2.9324    3.2961   -3.4180 H         1 <0>         0.1385
     51 H20        -5.2794    2.7644   -2.9194 H         1 <0>         0.1404
     52 H21        -6.6014    4.2363   -1.4546 H         1 <0>         0.1390
     53 H22        -5.8027    7.6651    1.4593 H         1 <0>         0.4340
     54 H23        -4.9050    3.9379    2.3886 H         1 <0>         0.0894
     55 H24        -5.4217    4.3453    0.7172 H         1 <0>         0.0799
     56 H25        -1.5356    4.6588    1.6856 H         1 <0>         0.0883
     57 H26        -1.8878    5.0692   -0.0274 H         1 <0>         0.0732
     58 H27        -0.0176    1.5242    0.9420 H         1 <0>         0.1084
     59 H28        -1.5228    1.0921    1.8219 H         1 <0>         0.0989
     60 H29        -0.7746   -0.5966   -1.9042 H         1 <0>         0.0693
     61 H30         0.2472    0.7994   -1.4205 H         1 <0>         0.0533
     62 H31        -1.1277    1.0417   -2.5508 H         1 <0>         0.0610
     63 H32        -3.9329    5.6028    3.8482 H         1 <0>         0.0856
     64 H33        -5.6725    5.9254    3.5377 H         1 <0>         0.0808
     65 H34        -4.4864    7.2736    3.4893 H         1 <0>         0.0772
     66 H35        -1.8202    9.1085   -4.1095 H         1 <0>         0.4429
@<TRIPOS>BOND
     1    1    2 1
     2    1   35 1
     3    1   36 1
     4    1   37 1
     5    2    3 1
     6    2   38 1
     7    2   39 1
     8    3    4 1
     9    3    6 1
    10    3   66 1
    11    4    5 1
    12    4   40 1
    13    4   41 1
    14    5   42 1
    15    5   43 1
    16    5   44 1
    17    6    7 1
    18    6   45 1
    19    6   46 1
    20    7    8 1
    21    7   47 1
    22    7   48 1
    23    8   24 am
    24    8    9 1
    25    9   14 ar
    26    9   10 ar
    27   10   11 ar
    28   10   49 1
    29   11   12 ar
    30   11   50 1
    31   12   13 ar
    32   12   51 1
    33   13   14 ar
    34   13   52 1
    35   14   15 1
    36   15   16 2
    37   15   17 am
    38   17   18 1
    39   17   53 1
    40   18   22 1
    41   18   19 1
    42   18   34 1
    43   19   20 1
    44   19   54 1
    45   19   55 1
    46   20   21 1
    47   20   26 am
    48   21   22 1
    49   21   56 1
    50   21   57 1
    51   22   23 1
    52   22   24 1
    53   24   25 2
    54   26   27 2
    55   26   28 1
    56   28   29 1
    57   28   31 1
    58   28   30 1
    59   30   31 1
    60   30   58 1
    61   30   59 1
    62   31   32 1
    63   31   33 1
    64   33   60 1
    65   33   61 1
    66   33   62 1
    67   34   63 1
    68   34   64 1
    69   34   65 1
@<TRIPOS>MOLECULE
ZINC39364146
   55    57     0     0     0
SMALL
USER_CHARGES

@<TRIPOS>ATOM
      1 C1          2.4662    1.3468   -7.2098 C.3       1 <0>        -0.0947
      2 C2          3.0256    0.8852   -5.8888 C.2       1 <0>         0.1109
      3 N1          3.0072    1.5699   -4.7950 N.2       1 <0>        -0.4289
      4 C3          3.6516    0.7522   -3.7592 C.3       1 <0>         0.1073
      5 H1          4.5330    1.2632   -3.3718 H         1 <0>         0.1480
      6 N2          4.0420   -0.5008   -4.4181 N.2       1 <0>        -0.4615
      7 C4          3.6692   -0.4166   -5.6508 C.2       1 <0>         0.1017
      8 C5          2.6663    0.4676   -2.6238 C.3       1 <0>         0.1569
      9 N3          1.5066   -0.2543   -3.1530 N.am      1 <0>        -0.6109
     10 C6          1.5092   -1.7188   -3.1887 C.3       1 <0>         0.0677
     11 C7          0.4372    0.4289   -3.6070 C.2       1 <0>         0.5159
     12 O1          0.4350    1.6414   -3.5774 O.2       1 <0>        -0.4759
     13 C8         -0.7558   -0.3137   -4.1514 C.3       1 <0>        -0.1597
     14 C9         -1.8516    0.6863   -4.5257 C.3       1 <0>         0.0331
     15 H2         -2.0336    1.3547   -3.6842 H         1 <0>         0.1745
     16 C10        -1.4068    1.4910   -5.7138 C.2       1 <0>         0.4984
     17 O2         -0.2592    1.8813   -5.7555 O.2       1 <0>        -0.4364
     18 N4         -2.2251    1.7943   -6.7279 N.am      1 <0>        -0.7264
     19 C11        -3.6141    1.3451   -6.7798 C.3       1 <0>         0.0853
     20 C12        -4.0717    0.9058   -5.3876 C.3       1 <0>        -0.0287
     21 N5         -3.0861   -0.0415   -4.8450 N.4       1 <0>        -0.3848
     22 C13        -3.6222   -0.6600   -3.6252 C.3       1 <0>         0.0371
     23 C14        -4.8088   -1.5196   -3.9775 C.ar      1 <0>        -0.1612
     24 C15        -6.0790   -0.9739   -3.9880 C.ar      1 <0>        -0.0678
     25 C16        -7.1672   -1.7623   -4.3111 C.ar      1 <0>        -0.1074
     26 C17        -6.9855   -3.0966   -4.6243 C.ar      1 <0>        -0.0359
     27 C18        -5.7156   -3.6419   -4.6147 C.ar      1 <0>        -0.1715
     28 C19        -4.6265   -2.8522   -4.2957 C.ar      1 <0>        -0.0441
     29 C20        -5.5176   -5.0965   -4.9557 C.3       1 <0>         0.5059
     30 F1         -6.7557   -5.6806   -5.2440 F         1 <0>        -0.1684
     31 F2         -4.6801   -5.2041   -6.0711 F         1 <0>        -0.1726
     32 F3         -4.9332   -5.7549   -3.8684 F         1 <0>        -0.1697
     33 H3          2.6130    0.5683   -7.9585 H         1 <0>         0.0747
     34 H4          1.4010    1.5509   -7.1019 H         1 <0>         0.0911
     35 H5          2.9801    2.2550   -7.5245 H         1 <0>         0.0816
     36 H6          3.8110   -1.1849   -6.3965 H         1 <0>         0.1833
     37 H7          3.1555   -0.1393   -1.8619 H         1 <0>         0.1015
     38 H8          2.3382    1.4090   -2.1830 H         1 <0>         0.1066
     39 H9          1.0956   -2.1058   -2.2574 H         1 <0>         0.0639
     40 H10         0.9026   -2.0629   -4.0264 H         1 <0>         0.0652
     41 H11         2.5315   -2.0775   -3.3090 H         1 <0>         0.0905
     42 H12        -0.4602   -0.8770   -5.0364 H         1 <0>         0.1193
     43 H13        -1.1336   -0.9998   -3.3933 H         1 <0>         0.1213
     44 H14        -1.8823    2.3335   -7.4577 H         1 <0>         0.4265
     45 H15        -4.2461    2.1623   -7.1275 H         1 <0>         0.1281
     46 H16        -3.6976    0.5056   -7.4700 H         1 <0>         0.0978
     47 H17        -4.1425    1.7758   -4.7348 H         1 <0>         0.1445
     48 H18        -5.0449    0.4201   -5.4592 H         1 <0>         0.1534
     49 H19        -2.8519   -1.2763   -3.1616 H         1 <0>         0.1436
     50 H20        -3.9320    0.1192   -2.9287 H         1 <0>         0.1485
     51 H21        -6.2209    0.0684   -3.7433 H         1 <0>         0.1453
     52 H22        -8.1596   -1.3361   -4.3186 H         1 <0>         0.1526
     53 H23        -7.8360   -3.7128   -4.8761 H         1 <0>         0.1540
     54 H24        -3.6338   -3.2775   -4.2919 H         1 <0>         0.1440
     55 H25        -2.8897   -0.7560   -5.5298 H         1 <0>         0.4263
@<TRIPOS>BOND
     1    1    2 1
     2    1   33 1
     3    1   34 1
     4    1   35 1
     5    2    7 1
     6    2    3 2
     7    3    4 1
     8    4    5 1
     9    4    6 1
    10    4    8 1
    11    6    7 2
    12    7   36 1
    13    8    9 1
    14    8   37 1
    15    8   38 1
    16    9   10 1
    17    9   11 am
    18   10   39 1
    19   10   40 1
    20   10   41 1
    21   11   12 2
    22   11   13 1
    23   13   14 1
    24   13   42 1
    25   13   43 1
    26   14   15 1
    27   14   21 1
    28   14   16 1
    29   16   17 2
    30   16   18 am
    31   18   19 1
    32   18   44 1
    33   19   20 1
    34   19   45 1
    35   19   46 1
    36   20   21 1
    37   20   47 1
    38   20   48 1
    39   21   22 1
    40   21   55 1
    41   22   23 1
    42   22   49 1
    43   22   50 1
    44   23   28 ar
    45   23   24 ar
    46   24   25 ar
    47   24   51 1
    48   25   26 ar
    49   25   52 1
    50   26   27 ar
    51   26   53 1
    52   27   28 ar
    53   27   29 1
    54   28   54 1
    55   29   30 1
    56   29   31 1
    57   29   32 1
@<TRIPOS>MOLECULE
ZINC63122438
   49    52     0     0     0
SMALL
USER_CHARGES

@<TRIPOS>ATOM
      1 C1         -0.0173    1.4248    0.0099 C.3       1 <0>         0.0319
      2 O1          0.0021   -0.0041    0.0020 O.3       1 <0>        -0.3514
      3 C2         -1.1855   -0.6297    0.0100 C.2       1 <0>         0.4433
      4 O2         -2.2076    0.0145    0.0232 O.2       1 <0>        -0.4718
      5 C3         -1.2439   -2.1355    0.0025 C.3       1 <0>         0.1661
      6 H1         -0.7531   -2.5137   -0.8943 H         1 <0>         0.1425
      7 C4         -0.5311   -2.6798    1.2421 C.3       1 <0>        -0.0948
      8 C5         -0.4819   -4.1844    1.1731 C.2       1 <0>         0.0596
      9 C6          0.5347   -4.9442    0.7055 C.ar      1 <0>        -0.1577
     10 C7          1.8480   -4.6100    0.1416 C.ar      1 <0>        -0.0141
     11 C8          2.6685   -5.6118   -0.2487 C.ar      1 <0>        -0.1479
     12 C9          2.2968   -6.9579   -0.1288 C.ar      1 <0>         0.0569
     13 C10         1.1072   -7.3435    0.3794 C.ar      1 <0>        -0.2103
     14 C11         0.1662   -6.3732    0.8219 C.ar      1 <0>         0.3298
     15 N1         -1.0316   -6.4923    1.3412 N.pl3     1 <0>        -0.5815
     16 C12        -1.5565   -5.1507    1.6190 C.3       1 <0>         0.0570
     17 N2         -2.6430   -2.5700    0.0135 N.am      1 <0>        -0.7244
     18 C13        -3.3278   -2.6664   -1.1433 C.2       1 <0>         0.5792
     19 O3         -2.7845   -2.3929   -2.1960 O.2       1 <0>        -0.5060
     20 C14        -4.7374   -3.1042   -1.1322 C.ar      1 <0>        -0.1316
     21 C15        -5.4474   -3.2104   -2.3306 C.ar      1 <0>        -0.0431
     22 C16        -6.7675   -3.6219   -2.3175 C.ar      1 <0>         0.0621
     23 C17        -7.3877   -3.9317   -1.1098 C.ar      1 <0>         0.0961
     24 C18        -6.6813   -3.8241    0.0832 C.ar      1 <0>        -0.0427
     25 C19        -5.3636   -3.4189    0.0760 C.ar      1 <0>        -0.0796
     26 Cl1        -7.4597   -4.2080    1.5867 Cl        1 <0>        -0.0324
     27 O4         -8.6828   -4.3451   -1.0800 O.3       1 <0>        -0.2877
     28 C20        -9.4696   -4.0833   -2.2469 C.3       1 <0>         0.0160
     29 C21        -8.6515   -4.4905   -3.4798 C.3       1 <0>         0.0175
     30 O5         -7.4469   -3.7168   -3.4935 O.3       1 <0>        -0.2947
     31 H2          1.0053    1.8021    0.0021 H         1 <0>         0.1111
     32 H3         -0.5445    1.7859   -0.8732 H         1 <0>         0.0666
     33 H4         -0.5275    1.7763    0.9067 H         1 <0>         0.0661
     34 H5          0.4839   -2.2844    1.2804 H         1 <0>         0.1433
     35 H6         -1.0739   -2.3746    2.1367 H         1 <0>         0.1264
     36 H7          2.1544   -3.5794    0.0395 H         1 <0>         0.1651
     37 H8          3.6353   -5.3681   -0.6639 H         1 <0>         0.1598
     38 H9          2.9905   -7.7179   -0.4569 H         1 <0>         0.1618
     39 H10         0.8685   -8.3944    0.4500 H         1 <0>         0.1613
     40 H11        -1.7483   -5.0333    2.6855 H         1 <0>         0.1784
     41 H12        -2.4718   -4.9827    1.0514 H         1 <0>         0.1677
     42 H13        -3.0765   -2.7882    0.8534 H         1 <0>         0.4064
     43 H14        -4.9656   -2.9709   -3.2670 H         1 <0>         0.1581
     44 H15        -4.8170   -3.3413    1.0042 H         1 <0>         0.1409
     45 H16       -10.3901   -4.6657   -2.2079 H         1 <0>         0.1353
     46 H17        -9.7082   -3.0209   -2.2986 H         1 <0>         0.0887
     47 H18        -8.4066   -5.5512   -3.4246 H         1 <0>         0.0854
     48 H19        -9.2263   -4.2919   -4.3844 H         1 <0>         0.1344
     49 H20        -1.4922   -7.3278    1.5163 H         1 <0>         0.4570
@<TRIPOS>BOND
     1    1    2 1
     2    1   31 1
     3    1   32 1
     4    1   33 1
     5    2    3 1
     6    3    4 2
     7    3    5 1
     8    5    6 1
     9    5    7 1
    10    5   17 1
    11    7    8 1
    12    7   34 1
    13    7   35 1
    14    8   16 1
    15    8    9 2
    16    9   14 ar
    17    9   10 ar
    18   10   11 ar
    19   10   36 1
    20   11   12 ar
    21   11   37 1
    22   12   13 ar
    23   12   38 1
    24   13   14 ar
    25   13   39 1
    26   14   15 2
    27   15   16 1
    28   15   49 1
    29   16   40 1
    30   16   41 1
    31   17   18 am
    32   17   42 1
    33   18   19 2
    34   18   20 1
    35   20   25 ar
    36   20   21 ar
    37   21   22 ar
    38   21   43 1
    39   22   30 1
    40   22   23 ar
    41   23   24 ar
    42   23   27 1
    43   24   25 ar
    44   24   26 1
    45   25   44 1
    46   27   28 1
    47   28   29 1
    48   28   45 1
    49   28   46 1
    50   29   30 1
    51   29   47 1
    52   29   48 1
@<TRIPOS>MOLECULE
ZINC64540893
   66    69     0     0     0
SMALL
USER_CHARGES

@<TRIPOS>ATOM
      1 C1         -0.0178    1.4608    0.0101 C.3       1 <0>         0.0925
      2 N1          0.0021   -0.0041    0.0020 N.pl3     1 <0>        -0.6357
      3 C2          1.2806   -0.7192   -0.0140 C.3       1 <0>         0.0892
      4 C3         -1.1979   -0.7188    0.0096 C.ar      1 <0>         0.2257
      5 C4         -1.1808   -2.1078    0.0078 C.ar      1 <0>        -0.2001
      6 C5         -2.3691   -2.8115    0.0159 C.ar      1 <0>        -0.0500
      7 C6         -3.5751   -2.1348    0.0252 C.ar      1 <0>        -0.1774
      8 C7         -3.5957   -0.7521    0.0271 C.ar      1 <0>        -0.0502
      9 C8         -2.4110   -0.0423    0.0249 C.ar      1 <0>        -0.1980
     10 C9         -4.8698   -2.9060    0.0330 C.3       1 <0>         0.1701
     11 N2         -5.2798   -3.1581    1.4167 N.am      1 <0>        -0.7249
     12 C10        -6.4165   -3.8365    1.6697 C.2       1 <0>         0.5097
     13 O1         -7.1000   -4.2384    0.7520 O.2       1 <0>        -0.5394
     14 C11        -6.8383   -4.0958    3.0931 C.3       1 <0>        -0.1391
     15 C12        -8.1527   -4.8788    3.1010 C.3       1 <0>        -0.0730
     16 C13        -9.2638   -4.0158    2.4986 C.3       1 <0>        -0.1367
     17 C14       -10.5705   -4.8152    2.4763 C.3       1 <0>         0.1122
     18 N3        -10.8518   -5.2994    3.8347 N.am      1 <0>        -0.5907
     19 C15        -9.8146   -6.0633    4.5413 C.3       1 <0>         0.0896
     20 C16        -8.5165   -5.2500    4.5404 C.3       1 <0>        -0.1342
     21 C17       -12.0386   -5.0472    4.4215 C.2       1 <0>         0.5217
     22 O2        -12.8865   -4.4150    3.8278 O.2       1 <0>        -0.5027
     23 C18       -12.3121   -5.5506    5.8153 C.3       1 <0>         0.0737
     24 H1        -11.5800   -5.1424    6.5121 H         1 <0>         0.1922
     25 C19       -12.2698   -7.0620    5.8411 C.2       1 <0>         0.0260
     26 C20       -13.4975   -7.4658    6.2355 C.ar      1 <0>        -0.1595
     27 C21       -14.0831   -8.7952    6.4522 C.ar      1 <0>         0.0272
     28 C22       -15.3684   -8.8885    6.8558 C.ar      1 <0>        -0.2110
     29 C23       -16.1588   -7.7439    7.0734 C.ar      1 <0>         0.3016
     30 C24       -15.6848   -6.4848    6.8929 C.ar      1 <0>        -0.2707
     31 C25       -14.3481   -6.2766    6.4707 C.ar      1 <0>         0.3562
     32 N4        -13.6686   -5.1769    6.2308 N.pl3     1 <0>        -0.5699
     33 O3        -17.4428   -7.9054    7.4783 O.3       1 <0>        -0.2806
     34 C26       -17.9031   -9.2465    7.6562 C.3       1 <0>         0.0076
     35 H2          1.0048    1.8381    0.0023 H         1 <0>         0.0759
     36 H3         -0.5450    1.8219   -0.8730 H         1 <0>         0.0562
     37 H4         -0.5280    1.8123    0.9069 H         1 <0>         0.0556
     38 H5          1.6074   -0.9021    1.0096 H         1 <0>         0.0507
     39 H6          1.1583   -1.6705   -0.5318 H         1 <0>         0.0699
     40 H7          2.0272   -0.1171   -0.5318 H         1 <0>         0.0698
     41 H8         -0.2393   -2.6369   -0.0002 H         1 <0>         0.1248
     42 H9         -2.3566   -3.8914    0.0144 H         1 <0>         0.1218
     43 H10        -4.5393   -0.2268    0.0344 H         1 <0>         0.1213
     44 H11        -2.4278    1.0375    0.0308 H         1 <0>         0.1232
     45 H12        -5.6409   -2.3265   -0.4746 H         1 <0>         0.0729
     46 H13        -4.7301   -3.8558   -0.4833 H         1 <0>         0.0734
     47 H14        -4.7332   -2.8366    2.1507 H         1 <0>         0.4020
     48 H15        -6.0671   -4.6753    3.6007 H         1 <0>         0.0977
     49 H16        -6.9780   -3.1461    3.6094 H         1 <0>         0.0944
     50 H17        -8.0378   -5.7872    2.5097 H         1 <0>         0.0874
     51 H18        -9.3963   -3.1189    3.1036 H         1 <0>         0.0643
     52 H19        -8.9933   -3.7324    1.4814 H         1 <0>         0.1055
     53 H20       -11.3855   -4.1738    2.1409 H         1 <0>         0.0987
     54 H21       -10.4682   -5.6637    1.7998 H         1 <0>         0.0844
     55 H22       -10.1310   -6.2456    5.5683 H         1 <0>         0.0817
     56 H23        -9.6508   -7.0136    4.0332 H         1 <0>         0.0914
     57 H24        -7.7141   -5.8450    4.9765 H         1 <0>         0.0889
     58 H25        -8.6560   -4.3414    5.1262 H         1 <0>         0.0738
     59 H26       -11.4279   -7.6918    5.5942 H         1 <0>         0.2132
     60 H27       -13.4941   -9.6859    6.2906 H         1 <0>         0.1739
     61 H28       -15.8008   -9.8652    7.0153 H         1 <0>         0.1683
     62 H29       -16.3297   -5.6372    7.0719 H         1 <0>         0.1695
     63 H30       -17.2933   -9.7429    8.4111 H         1 <0>         0.0771
     64 H31       -18.9436   -9.2335    7.9807 H         1 <0>         0.1247
     65 H32       -17.8235   -9.7861    6.7125 H         1 <0>         0.0770
     66 H33       -14.0064   -4.2714    6.3138 H         1 <0>         0.4596
@<TRIPOS>BOND
     1    1    2 1
     2    1   35 1
     3    1   36 1
     4    1   37 1
     5    2    3 1
     6    2    4 1
     7    3   38 1
     8    3   39 1
     9    3   40 1
    10    4    9 ar
    11    4    5 ar
    12    5    6 ar
    13    5   41 1
    14    6    7 ar
    15    6   42 1
    16    7    8 ar
    17    7   10 1
    18    8    9 ar
    19    8   43 1
    20    9   44 1
    21   10   11 1
    22   10   45 1
    23   10   46 1
    24   11   12 am
    25   11   47 1
    26   12   13 2
    27   12   14 1
    28   14   15 1
    29   14   48 1
    30   14   49 1
    31   15   20 1
    32   15   16 1
    33   15   50 1
    34   16   17 1
    35   16   51 1
    36   16   52 1
    37   17   18 1
    38   17   53 1
    39   17   54 1
    40   18   19 1
    41   18   21 am
    42   19   20 1
    43   19   55 1
    44   19   56 1
    45   20   57 1
    46   20   58 1
    47   21   22 2
    48   21   23 1
    49   23   24 1
    50   23   32 1
    51   23   25 1
    52   25   26 2
    53   25   59 1
    54   26   31 ar
    55   26   27 ar
    56   27   28 ar
    57   27   60 1
    58   28   29 ar
    59   28   61 1
    60   29   30 ar
    61   29   33 1
    62   30   31 ar
    63   30   62 1
    64   31   32 2
    65   32   66 1
    66   33   34 1
    67   34   63 1
    68   34   64 1
    69   34   65 1
@<TRIPOS>MOLECULE
ZINC12772630
   45    47     0     0     0
SMALL
USER_CHARGES
N-(2,6-dibromo-4-methyl-phenyl)-2-(2-furylmethyl-(2-thienylmethyl)amino)acetamide
@<TRIPOS>ATOM
      1 C1         -2.6902   -7.6692    0.7596 C.3       1 <0>        -0.1229
      2 C2         -3.1410   -6.2347    0.8584 C.ar      1 <0>        -0.0609
      3 C3         -4.4701   -5.9449    1.1068 C.ar      1 <0>        -0.0626
      4 C4         -4.8870   -4.6304    1.1980 C.ar      1 <0>        -0.0934
      5 C5         -3.9692   -3.5996    1.0398 C.ar      1 <0>         0.1686
      6 C6         -2.6358   -3.8944    0.7847 C.ar      1 <0>        -0.0732
      7 C7         -2.2246   -5.2112    0.7009 C.ar      1 <0>        -0.0648
      8 Br1        -1.3833   -2.4955    0.5601 Br        1 <0>        -0.0096
      9 N1         -4.3880   -2.2670    1.1316 N.am      1 <0>        -0.6503
     10 C8         -3.7263   -1.4061    1.9302 C.2       1 <0>         0.4864
     11 O1         -2.7115   -1.7588    2.4930 O.2       1 <0>        -0.4803
     12 C9         -4.2475   -0.0054    2.1237 C.3       1 <0>        -0.0274
     13 C10        -4.1364    1.8334    3.6950 C.3       1 <0>         0.0898
     14 C11        -5.3367    1.3313    4.4553 C.2       1 <0>        -0.1155
     15 C12        -5.3762    1.0583    5.7719 C.2       1 <0>        -0.1289
     16 C13        -6.6883    0.6173    6.0596 C.2       1 <0>        -0.2166
     17 C14        -7.3722    0.6472    4.9016 C.2       1 <0>         0.0155
     18 O2         -6.5501    1.0859    3.9345 O.3       1 <0>        -0.1719
     19 C15        -2.1432    1.1262    2.5162 C.3       1 <0>         0.0987
     20 C16        -1.2208    1.6158    3.6027 C.2       1 <0>        -0.2683
     21 C17        -0.3149    0.9190    4.3315 C.2       1 <0>        -0.0704
     22 C18         0.4352    1.5851    5.2826 C.2       1 <0>        -0.1786
     23 C19         0.2386    2.9141    5.4622 C.2       1 <0>        -0.1138
     24 S1         -1.0391    3.2635    4.2654 S.3       1 <0>         0.0777
     25 Br2        -6.7047   -4.2353    1.5383 Br        1 <0>        -0.0204
     26 H1         -2.7679   -8.0041   -0.2747 H         1 <0>         0.0851
     27 H2         -1.6545   -7.7482    1.0902 H         1 <0>         0.0781
     28 H3         -3.3220   -8.2930    1.3919 H         1 <0>         0.0786
     29 H4         -5.1830   -6.7467    1.2300 H         1 <0>         0.1505
     30 H5         -1.1873   -5.4412    0.5073 H         1 <0>         0.1487
     31 H6         -5.1544   -1.9631    0.6205 H         1 <0>         0.4239
     32 H7         -5.2767   -0.0467    2.4801 H         1 <0>         0.1637
     33 H8         -4.2128    0.5295    1.1746 H         1 <0>         0.1679
     34 H9         -3.4757    2.3725    4.3739 H         1 <0>         0.1562
     35 H10        -4.4641    2.5025    2.8994 H         1 <0>         0.1512
     36 H11        -4.5617    1.1566    6.4743 H         1 <0>         0.1612
     37 H12        -7.0685    0.3143    7.0240 H         1 <0>         0.1643
     38 H13        -8.4081    0.3703    4.7726 H         1 <0>         0.2191
     39 H14        -2.3290    1.9325    1.8067 H         1 <0>         0.1457
     40 H15        -1.6807    0.2860    1.9983 H         1 <0>         0.1489
     41 H16        -0.1780   -0.1398    4.1685 H         1 <0>         0.1467
     42 H17         1.1672    1.0545    5.8734 H         1 <0>         0.1504
     43 H18         0.7278    3.5870    6.1509 H         1 <0>         0.2002
     44 N2         -3.4091    0.6762    3.1323 N.4       1 <0>        -0.3848
     45 H19        -3.1955    0.0163    3.8894 H         1 <0>         0.4375
@<TRIPOS>BOND
     1    1    2 1
     2    1   26 1
     3    1   27 1
     4    1   28 1
     5    2    7 ar
     6    2    3 ar
     7    3    4 ar
     8    3   29 1
     9    4    5 ar
    10    4   25 1
    11    5    6 ar
    12    5    9 1
    13    6    7 ar
    14    6    8 1
    15    7   30 1
    16    9   10 am
    17    9   31 1
    18   10   11 2
    19   10   12 1
    20   12   32 1
    21   12   33 1
    22   12   44 1
    23   13   14 1
    24   13   34 1
    25   13   35 1
    26   13   44 1
    27   14   18 1
    28   14   15 2
    29   15   16 1
    30   15   36 1
    31   16   17 2
    32   16   37 1
    33   17   18 1
    34   17   38 1
    35   19   20 1
    36   19   39 1
    37   19   40 1
    38   19   44 1
    39   20   24 1
    40   20   21 2
    41   21   22 1
    42   21   41 1
    43   22   23 2
    44   22   42 1
    45   23   24 1
    46   23   43 1
    47   44   45 1
@<TRIPOS>MOLECULE
ZINC27695938
   70    74     0     0     0
SMALL
USER_CHARGES
(2S)-1-(benzyl-methyl-amino)-3-[2-[(1S)-1-(6-methoxy-2-naphthyl)ethyl]benzimidazol-1-yl]propan-2-ol
@<TRIPOS>ATOM
      1 C1          4.5119   -1.1434   -0.4632 C.3       1 <0>        -0.1457
      2 C2          3.0308   -1.0244   -0.0985 C.3       1 <0>         0.0342
      3 H1          2.4634   -0.6012   -0.9405 H         1 <0>         0.0858
      4 C3          2.4824   -2.3896    0.2276 C.ar      1 <0>        -0.0820
      5 C4          3.0405   -3.1215    1.2742 C.ar      1 <0>        -0.0812
      6 C5          2.5655   -4.3551    1.5977 C.ar      1 <0>        -0.1077
      7 C6          1.5034   -4.9068    0.8604 C.ar      1 <0>        -0.0075
      8 C7          0.9914   -6.1795    1.1619 C.ar      1 <0>        -0.1513
      9 C8         -0.0410   -6.6840    0.4238 C.ar      1 <0>         0.1322
     10 C9         -0.5959   -5.9499   -0.6294 C.ar      1 <0>        -0.1849
     11 C10        -0.1225   -4.7151   -0.9462 C.ar      1 <0>        -0.0742
     12 C11         0.9394   -4.1647   -0.2074 C.ar      1 <0>        -0.0843
     13 C12         1.4532   -2.8918   -0.5081 C.ar      1 <0>        -0.1002
     14 O1         -0.5359   -7.9152    0.7167 O.3       1 <0>        -0.3144
     15 C13        -1.6156   -8.3892   -0.0904 C.3       1 <0>         0.0221
     16 C14         2.8794   -0.1229    1.0996 C.2       1 <0>         0.2838
     17 N1          3.4118   -0.3391    2.2670 N.2       1 <0>        -0.4697
     18 C15         3.0757    0.6666    3.1152 C.ar      1 <0>         0.0458
     19 C16         3.3666    0.9345    4.4555 C.ar      1 <0>        -0.0621
     20 C17         2.8817    2.0682    5.0437 C.ar      1 <0>        -0.1241
     21 C18         2.0897    2.9543    4.3272 C.ar      1 <0>        -0.0978
     22 C19         1.7859    2.7080    3.0053 C.ar      1 <0>        -0.1035
     23 C20         2.2766    1.5651    2.3883 C.ar      1 <0>         0.0615
     24 N2          2.1658    1.0351    1.1184 N.pl3     1 <0>        -0.4884
     25 C21         1.4227    1.6154   -0.0028 C.3       1 <0>         0.1199
     26 C22        -0.0127    1.0858    0.0080 C.3       1 <0>         0.0737
     27 H2         -0.0321   -0.0127    0.0627 H         1 <0>         0.0876
     28 C23        -0.7527    1.5927   -1.2315 C.3       1 <0>        -0.0425
     29 N3         -2.1309    1.0842   -1.2211 N.4       1 <0>        -0.3963
     30 C24        -2.1541   -0.3767   -1.3732 C.3       1 <0>        -0.0633
     31 C25        -2.9398    1.7346   -2.2605 C.3       1 <0>         0.0477
     32 C26        -4.3907    1.3769   -2.0651 C.ar      1 <0>        -0.1636
     33 C27        -4.9171    0.2604   -2.6873 C.ar      1 <0>        -0.0960
     34 C28        -6.2468   -0.0704   -2.5042 C.ar      1 <0>        -0.1135
     35 C29        -7.0524    0.7209   -1.7069 C.ar      1 <0>        -0.0820
     36 C30        -6.5274    1.8406   -1.0893 C.ar      1 <0>        -0.1122
     37 C31        -5.1965    2.1685   -1.2682 C.ar      1 <0>        -0.0940
     38 O2         -0.6816    1.5467    1.1837 O.3       1 <0>        -0.5631
     39 H3          4.9121   -0.1468   -0.7012 H         1 <0>         0.0632
     40 H4          4.6224   -1.8014   -1.3377 H         1 <0>         0.0740
     41 H5          5.0660   -1.5675    0.3872 H         1 <0>         0.0785
     42 H6          3.8595   -2.7017    1.8394 H         1 <0>         0.1400
     43 H7          3.0053   -4.9092    2.4138 H         1 <0>         0.1322
     44 H8          1.4114   -6.7557    1.9731 H         1 <0>         0.1379
     45 H9         -1.4115   -6.3697   -1.1993 H         1 <0>         0.1313
     46 H10        -0.5609   -4.1593   -1.7619 H         1 <0>         0.1255
     47 H11         1.0333   -2.3146   -1.3186 H         1 <0>         0.1165
     48 H12        -1.9173   -9.3901    0.2519 H         1 <0>         0.1065
     49 H13        -1.2924   -8.4427   -1.1405 H         1 <0>         0.0581
     50 H14        -2.4683   -7.6996   -0.0039 H         1 <0>         0.0559
     51 H15         3.9833    0.2525    5.0220 H         1 <0>         0.1310
     52 H16         3.1118    2.2737    6.0787 H         1 <0>         0.1320
     53 H17         1.7084    3.8427    4.8085 H         1 <0>         0.1307
     54 H18         1.1694    3.4010    2.4520 H         1 <0>         0.1188
     55 H19         1.4100    2.7111    0.0937 H         1 <0>         0.1104
     56 H20         1.9094    1.3363   -0.9490 H         1 <0>         0.1177
     57 H21        -0.7676    2.6926   -1.2254 H         1 <0>         0.1457
     58 H22        -0.2378    1.2380   -2.1366 H         1 <0>         0.1423
     59 H23        -3.1958   -0.7300   -1.3621 H         1 <0>         0.1309
     60 H24        -1.6007   -0.8406   -0.5434 H         1 <0>         0.1237
     61 H25        -1.6832   -0.6534   -2.3280 H         1 <0>         0.1256
     62 H26        -2.8185    2.8256   -2.1904 H         1 <0>         0.1390
     63 H27        -2.6079    1.3917   -3.2516 H         1 <0>         0.1360
     64 H28        -4.2887   -0.3555   -3.3135 H         1 <0>         0.1304
     65 H29        -6.6570   -0.9450   -2.9870 H         1 <0>         0.1363
     66 H30        -8.0922    0.4645   -1.5668 H         1 <0>         0.1366
     67 H31        -7.1569    2.4591   -0.4667 H         1 <0>         0.1370
     68 H32        -4.7862    3.0433   -0.7857 H         1 <0>         0.1319
     69 H33        -1.7293    1.2657    1.3663 H         1 <0>         0.4024
     70 H34        -2.5745    1.3295   -0.2448 H         1 <0>         0.4335
@<TRIPOS>BOND
     1    1    2 1
     2    1   39 1
     3    1   40 1
     4    1   41 1
     5    2    3 1
     6    2    4 1
     7    2   16 1
     8    4   13 ar
     9    4    5 ar
    10    5    6 ar
    11    5   42 1
    12    6    7 ar
    13    6   43 1
    14    7   12 ar
    15    7    8 ar
    16    8    9 ar
    17    8   44 1
    18    9   10 ar
    19    9   14 1
    20   10   11 ar
    21   10   45 1
    22   11   12 ar
    23   11   46 1
    24   12   13 ar
    25   13   47 1
    26   14   15 1
    27   15   48 1
    28   15   49 1
    29   15   50 1
    30   16   24 1
    31   16   17 2
    32   17   18 1
    33   18   23 ar
    34   18   19 ar
    35   19   20 ar
    36   19   51 1
    37   20   21 ar
    38   20   52 1
    39   21   22 ar
    40   21   53 1
    41   22   23 ar
    42   22   54 1
    43   23   24 1
    44   24   25 1
    45   25   26 1
    46   25   55 1
    47   25   56 1
    48   26   27 1
    49   26   28 1
    50   26   38 1
    51   28   29 1
    52   28   57 1
    53   28   58 1
    54   29   30 1
    55   29   31 1
    56   29   70 1
    57   30   59 1
    58   30   60 1
    59   30   61 1
    60   31   32 1
    61   31   62 1
    62   31   63 1
    63   32   37 ar
    64   32   33 ar
    65   33   34 ar
    66   33   64 1
    67   34   35 ar
    68   34   65 1
    69   35   36 ar
    70   35   66 1
    71   36   37 ar
    72   36   67 1
    73   37   68 1
    74   38   69 1
@<TRIPOS>MOLECULE
ZINC38671181
   61    64     0     0     0
SMALL
USER_CHARGES

@<TRIPOS>ATOM
      1 C1          0.1693    1.1370    1.2006 C.3       1 <0>         0.0893
      2 N1          0.1826   -0.3029    0.9307 N.pl3     1 <0>        -0.6241
      3 C2         -1.0527   -1.0923    1.0283 C.3       1 <0>         0.1156
      4 C3         -0.7244   -2.3846    1.7875 C.3       1 <0>        -0.1389
      5 C4          0.2857   -3.1926    0.9731 C.3       1 <0>        -0.0802
      6 C5          1.4600   -2.3325    0.5870 C.ar      1 <0>        -0.1376
      7 C6          1.3709   -0.9478    0.5702 C.ar      1 <0>         0.2470
      8 C7          2.4707   -0.1826    0.1989 C.ar      1 <0>        -0.1772
      9 C8          3.6533   -0.7997   -0.1572 C.ar      1 <0>        -0.0737
     10 C9          3.7424   -2.1794   -0.1437 C.ar      1 <0>        -0.2031
     11 C10         2.6513   -2.9441    0.2354 C.ar      1 <0>        -0.0445
     12 C11         5.0337   -2.8531   -0.5307 C.3       1 <0>         0.0781
     13 H1          5.0463   -3.8688   -0.1354 H         1 <0>         0.1478
     14 C12         5.1484   -2.8979   -2.0558 C.3       1 <0>         0.0928
     15 N2          4.0766   -3.7343   -2.6017 N.pl3     1 <0>        -1.1010
     16 S1          3.7120   -3.6639   -4.2155 S.o2      1 <0>         2.6943
     17 O1          2.6635   -4.5972   -4.4361 O.2       1 <0>        -0.9311
     18 O2          3.5879   -2.2870   -4.5442 O.2       1 <0>        -0.9223
     19 C13         5.1157   -4.2666   -5.0936 C.ar      1 <0>        -0.6638
     20 C14         5.0207   -5.4302   -5.8336 C.ar      1 <0>         0.0019
     21 C15         6.1227   -5.9034   -6.5229 C.ar      1 <0>        -0.0471
     22 C16         7.3202   -5.2119   -6.4716 C.ar      1 <0>        -0.0386
     23 C17         7.4152   -4.0487   -5.7319 C.ar      1 <0>        -0.1081
     24 C18         6.3112   -3.5723   -5.0470 C.ar      1 <0>         0.0431
     25 Cl1         6.4285   -2.1070   -4.1235 Cl        1 <0>        -0.0486
     26 Cl2         6.0036   -7.3652   -7.4518 Cl        1 <0>        -0.0299
     27 N3          6.1653   -2.0979    0.0235 N.4       1 <0>        -0.3786
     28 C19         7.4193   -2.7849   -0.3079 C.3       1 <0>        -0.0181
     29 C20         8.6057   -1.9607    0.1968 C.3       1 <0>        -0.1444
     30 C21         8.4973   -1.7971    1.7156 C.3       1 <0>        -0.1384
     31 C22         7.1528   -1.1469    2.0544 C.3       1 <0>        -0.1445
     32 C23         6.0203   -2.0013    1.4809 C.3       1 <0>        -0.0076
     33 H2          0.5598    1.6725    0.3352 H         1 <0>         0.0610
     34 H3         -0.8529    1.4604    1.3971 H         1 <0>         0.0818
     35 H4          0.7911    1.3494    2.0703 H         1 <0>         0.0584
     36 H5         -1.8100   -0.5271    1.5716 H         1 <0>         0.0884
     37 H6         -1.4167   -1.3332    0.0295 H         1 <0>         0.0692
     38 H7         -0.2967   -2.1385    2.7594 H         1 <0>         0.0722
     39 H8         -1.6343   -2.9690    1.9243 H         1 <0>         0.0871
     40 H9          0.6367   -4.0354    1.5685 H         1 <0>         0.0821
     41 H10        -0.1973   -3.5689    0.0713 H         1 <0>         0.0812
     42 H11         2.3998    0.8950    0.1886 H         1 <0>         0.1335
     43 H12         4.5078   -0.2054   -0.4455 H         1 <0>         0.1146
     44 H13         2.7255   -4.0215    0.2443 H         1 <0>         0.1303
     45 H14         5.0611   -1.8880   -2.4565 H         1 <0>         0.1058
     46 H15         6.1148   -3.3175   -2.3352 H         1 <0>         0.0904
     47 H16         3.5806   -4.3293   -2.0179 H         1 <0>         0.4268
     48 H17         4.0862   -5.9701   -5.8733 H         1 <0>         0.1677
     49 H18         8.1807   -5.5816   -7.0095 H         1 <0>         0.1594
     50 H19         8.3499   -3.5092   -5.6916 H         1 <0>         0.1581
     51 H20         7.4316   -3.7664    0.1660 H         1 <0>         0.1343
     52 H21         7.4935   -2.9034   -1.3889 H         1 <0>         0.1272
     53 H22         9.5357   -2.4734   -0.0486 H         1 <0>         0.1140
     54 H23         8.5945   -0.9790   -0.2767 H         1 <0>         0.0879
     55 H24         8.5598   -2.7751    2.1929 H         1 <0>         0.0826
     56 H25         9.3090   -1.1634    2.0728 H         1 <0>         0.0945
     57 H26         7.0444   -1.0780    3.1368 H         1 <0>         0.1126
     58 H27         7.1115   -0.1483    1.6195 H         1 <0>         0.0867
     59 H28         5.0616   -1.5413    1.7205 H         1 <0>         0.1362
     60 H29         6.0624   -2.9995    1.9167 H         1 <0>         0.1294
     61 H30         6.1767   -1.1708   -0.3745 H         1 <0>         0.4180
@<TRIPOS>BOND
     1    1    2 1
     2    1   33 1
     3    1   34 1
     4    1   35 1
     5    2    7 1
     6    2    3 1
     7    3    4 1
     8    3   36 1
     9    3   37 1
    10    4    5 1
    11    4   38 1
    12    4   39 1
    13    5    6 1
    14    5   40 1
    15    5   41 1
    16    6   11 ar
    17    6    7 ar
    18    7    8 ar
    19    8    9 ar
    20    8   42 1
    21    9   10 ar
    22    9   43 1
    23   10   11 ar
    24   10   12 1
    25   11   44 1
    26   12   13 1
    27   12   14 1
    28   12   27 1
    29   14   15 1
    30   14   45 1
    31   14   46 1
    32   15   16 1
    33   15   47 1
    34   16   17 2
    35   16   18 2
    36   16   19 1
    37   19   24 ar
    38   19   20 ar
    39   20   21 ar
    40   20   48 1
    41   21   22 ar
    42   21   26 1
    43   22   23 ar
    44   22   49 1
    45   23   24 ar
    46   23   50 1
    47   24   25 1
    48   27   32 1
    49   27   28 1
    50   27   61 1
    51   28   29 1
    52   28   51 1
    53   28   52 1
    54   29   30 1
    55   29   53 1
    56   29   54 1
    57   30   31 1
    58   30   55 1
    59   30   56 1
    60   31   32 1
    61   31   57 1
    62   31   58 1
    63   32   59 1
    64   32   60 1
@<TRIPOS>MOLECULE
ZINC45850377
   49    50     0     0     0
SMALL
USER_CHARGES

@<TRIPOS>ATOM
      1 C1         -9.3642    3.4671   -1.2357 C.3       1 <0>        -0.1562
      2 C2         -7.9696    2.9620   -0.8606 C.3       1 <0>        -0.1217
      3 C3         -7.9880    1.4349   -0.7683 C.3       1 <0>        -0.1403
      4 C4         -6.5934    0.9297   -0.3932 C.3       1 <0>         0.0864
      5 N1         -6.6110   -0.5325   -0.3049 N.pl3     1 <0>        -0.3873
      6 C5         -6.8901   -1.2820    0.8159 C.2       1 <0>         0.0642
      7 C6         -6.7960   -2.5736    0.4571 C.2       1 <0>         0.0383
      8 N2         -6.4689   -2.6281   -0.8450 N.pl3     1 <0>        -0.4910
      9 C7         -6.3604   -1.4078   -1.3166 C.cat     1 <0>         0.2457
     10 S1         -5.9545   -0.9764   -2.9760 S.3       1 <0>         0.1710
     11 C8         -5.7462   -2.5755   -3.8068 C.3       1 <0>        -0.1900
     12 C9         -5.3919   -2.3475   -5.2537 C.2       1 <0>         0.5476
     13 O1         -5.2899   -1.2175   -5.6823 O.2       1 <0>        -0.4858
     14 N3         -5.1883   -3.3994   -6.0714 N.am      1 <0>        -0.6694
     15 C10        -4.9630   -3.1908   -7.4373 C.ar      1 <0>         0.1664
     16 C11        -3.6667   -3.0421   -7.9143 C.ar      1 <0>        -0.0707
     17 C12        -3.4479   -2.8367   -9.2634 C.ar      1 <0>        -0.0720
     18 C13        -4.5174   -2.7788  -10.1380 C.ar      1 <0>        -0.0524
     19 C14        -5.8089   -2.9260   -9.6666 C.ar      1 <0>        -0.0720
     20 C15        -6.0347   -3.1377   -8.3196 C.ar      1 <0>        -0.0724
     21 Br1        -7.8009   -3.3473   -7.6773 Br        1 <0>        -0.0250
     22 C16        -4.2748   -2.5543  -11.6083 C.3       1 <0>        -0.1229
     23 Br2        -2.2035   -3.1198   -6.7190 Br        1 <0>        -0.0226
     24 C17        -7.0185   -3.7587    1.3610 C.3       1 <0>        -0.0983
     25 C18        -7.2351   -0.7542    2.1847 C.3       1 <0>        -0.0972
     26 H1         -9.3511    4.5551   -1.3014 H         1 <0>         0.0658
     27 H2         -9.6554    3.0484   -2.1990 H         1 <0>         0.0582
     28 H3        -10.0798    3.1578   -0.4738 H         1 <0>         0.0576
     29 H4         -7.2540    3.2713   -1.6224 H         1 <0>         0.0731
     30 H5         -7.6784    3.3807    0.1027 H         1 <0>         0.0724
     31 H6         -8.7036    1.1255   -0.0065 H         1 <0>         0.0811
     32 H7         -8.2792    1.0162   -1.7316 H         1 <0>         0.0803
     33 H8         -5.8778    1.2391   -1.1550 H         1 <0>         0.1193
     34 H9         -6.3022    1.3485    0.5701 H         1 <0>         0.1273
     35 H10        -4.9474   -3.1360   -3.3210 H         1 <0>         0.1399
     36 H11        -6.6761   -3.1408   -3.7451 H         1 <0>         0.1406
     37 H12        -5.1980   -4.3009   -5.7136 H         1 <0>         0.4191
     38 H13        -2.4404   -2.7211   -9.6349 H         1 <0>         0.1495
     39 H14        -6.6420   -2.8795  -10.3523 H         1 <0>         0.1494
     40 H15        -4.1530   -3.5156  -12.1074 H         1 <0>         0.0852
     41 H16        -5.1246   -2.0257  -12.0402 H         1 <0>         0.0787
     42 H17        -3.3713   -1.9591  -11.7407 H         1 <0>         0.0787
     43 H18        -8.0691   -4.0477    1.3293 H         1 <0>         0.1009
     44 H19        -6.4020   -4.5926    1.0253 H         1 <0>         0.0895
     45 H20        -6.7455   -3.4930    2.3823 H         1 <0>         0.1067
     46 H21        -8.3150   -0.6298    2.2646 H         1 <0>         0.1026
     47 H22        -6.8935   -1.4592    2.9426 H         1 <0>         0.1072
     48 H23        -6.7462    0.2080    2.3369 H         1 <0>         0.0910
     49 H24        -6.3378   -3.4414   -1.3571 H         1 <0>         0.4532
@<TRIPOS>BOND
     1    1    2 1
     2    1   26 1
     3    1   27 1
     4    1   28 1
     5    2    3 1
     6    2   29 1
     7    2   30 1
     8    3    4 1
     9    3   31 1
    10    3   32 1
    11    4    5 1
    12    4   33 1
    13    4   34 1
    14    5    9 1
    15    5    6 1
    16    6    7 2
    17    6   25 1
    18    7    8 1
    19    7   24 1
    20    8    9 2
    21    8   49 1
    22    9   10 1
    23   10   11 1
    24   11   12 1
    25   11   35 1
    26   11   36 1
    27   12   13 2
    28   12   14 am
    29   14   15 1
    30   14   37 1
    31   15   20 ar
    32   15   16 ar
    33   16   17 ar
    34   16   23 1
    35   17   18 ar
    36   17   38 1
    37   18   19 ar
    38   18   22 1
    39   19   20 ar
    40   19   39 1
    41   20   21 1
    42   22   40 1
    43   22   41 1
    44   22   42 1
    45   24   43 1
    46   24   44 1
    47   24   45 1
    48   25   46 1
    49   25   47 1
    50   25   48 1
@<TRIPOS>MOLECULE
ZINC27550179
   67    72     0     0     0
SMALL
USER_CHARGES

@<TRIPOS>ATOM
      1 C1         -2.8902   -5.5044   -1.5149 C.3       1 <0>        -0.1840
      2 C2         -1.8470   -6.6232   -1.5446 C.3       1 <0>         0.0147
      3 H1         -1.1073   -6.4099   -2.3163 H         1 <0>         0.1565
      4 C3         -2.5354   -7.9545   -1.8521 C.3       1 <0>        -0.0684
      5 C4         -3.5737   -8.2539   -0.7689 C.3       1 <0>        -0.1193
      6 C5         -4.2622   -9.5852   -1.0765 C.3       1 <0>        -0.0826
      7 C6         -4.9556   -9.4982   -2.4375 C.3       1 <0>        -0.1141
      8 C7         -3.9174   -9.1988   -3.5207 C.3       1 <0>        -0.0859
      9 C8         -3.2289   -7.8675   -3.2132 C.3       1 <0>        -0.0992
     10 C9         -2.8742  -10.3176   -3.5504 C.3       1 <0>        -0.1149
     11 C10        -2.1807  -10.4045   -2.1894 C.3       1 <0>        -0.0822
     12 C11        -3.2189  -10.7039   -1.1062 C.3       1 <0>        -0.1154
     13 C12        -1.4922   -9.0732   -1.8818 C.3       1 <0>        -0.1184
     14 N1         -1.1811   -6.7066   -0.2378 N.4       1 <0>        -0.4946
     15 C13        -0.4212   -5.4730    0.0042 C.3       1 <0>        -0.0125
     16 H2         -1.0658   -4.6002   -0.0996 H         1 <0>         0.1979
     17 C14         0.2314   -5.5028    1.4013 C.3       1 <0>        -0.1684
     18 C15         1.7127   -5.4253    1.1026 C.2       1 <0>         0.5213
     19 O1          2.5970   -5.4215    1.9318 O.2       1 <0>        -0.4145
     20 N2          1.8920   -5.3620   -0.2226 N.am      1 <0>        -0.5002
     21 C16         0.7576   -5.3798   -0.9398 C.2       1 <0>         0.5157
     22 O2          0.6867   -5.3307   -2.1490 O.2       1 <0>        -0.4172
     23 C17         3.1583   -5.2817   -0.8124 C.ar      1 <0>         0.1057
     24 C18         3.2847   -5.3534   -2.1954 C.ar      1 <0>        -0.1259
     25 C19         4.5290   -5.2753   -2.7800 C.ar      1 <0>        -0.0996
     26 C20         5.6667   -5.1231   -1.9807 C.ar      1 <0>         0.0099
     27 C21         5.5348   -5.0510   -0.5901 C.ar      1 <0>        -0.0504
     28 C22         4.2861   -5.1247   -0.0142 C.ar      1 <0>        -0.1239
     29 N3          6.9023   -5.0457   -2.5561 N.2       1 <0>        -0.1588
     30 N4          7.0129   -4.7747   -3.8124 N.2       1 <0>        -0.1206
     31 C23         6.0924   -3.9680   -4.4212 C.ar      1 <0>        -0.0258
     32 C24         5.9901   -3.9467   -5.8149 C.ar      1 <0>        -0.0518
     33 C25         5.0588   -3.1307   -6.4221 C.ar      1 <0>        -0.1188
     34 C26         4.2272   -2.3339   -5.6549 C.ar      1 <0>        -0.0830
     35 C27         4.3230   -2.3493   -4.2744 C.ar      1 <0>        -0.1163
     36 C28         5.2453   -3.1649   -3.6529 C.ar      1 <0>        -0.1135
     37 H3         -2.3997   -4.5560   -1.2958 H         1 <0>         0.0801
     38 H4         -3.3842   -5.4425   -2.4845 H         1 <0>         0.1152
     39 H5         -3.6298   -5.7177   -0.7432 H         1 <0>         0.0887
     40 H6         -3.0796   -8.3158    0.2007 H         1 <0>         0.0549
     41 H7         -4.3169   -7.4568   -0.7478 H         1 <0>         0.0844
     42 H8         -5.0018   -9.7985   -0.3048 H         1 <0>         0.0818
     43 H9         -5.4461  -10.4466   -2.6566 H         1 <0>         0.0723
     44 H10        -5.6989   -8.7012   -2.4164 H         1 <0>         0.0676
     45 H11        -4.4114   -9.1369   -4.4904 H         1 <0>         0.0831
     46 H12        -3.9721   -7.0705   -3.1920 H         1 <0>         0.0785
     47 H13        -2.4893   -7.6542   -3.9849 H         1 <0>         0.0754
     48 H14        -3.3647  -11.2660   -3.7695 H         1 <0>         0.0728
     49 H15        -2.1345  -10.1043   -4.3221 H         1 <0>         0.0672
     50 H16        -1.4375  -11.2016   -2.2105 H         1 <0>         0.0813
     51 H17        -2.7249  -10.7659   -0.1366 H         1 <0>         0.0630
     52 H18        -3.7094  -11.6524   -1.3253 H         1 <0>         0.0743
     53 H19        -0.7525   -8.8599   -2.6535 H         1 <0>         0.0799
     54 H20        -0.9982   -9.1352   -0.9122 H         1 <0>         0.0525
     55 H21        -1.8744   -6.8221    0.4861 H         1 <0>         0.4367
     56 H22        -0.0864   -4.6433    1.9916 H         1 <0>         0.1687
     57 H23        -0.0078   -6.4330    1.9167 H         1 <0>         0.1483
     58 H24         2.4057   -5.4709   -2.8118 H         1 <0>         0.1618
     59 H25         4.6264   -5.3318   -3.8541 H         1 <0>         0.1426
     60 H26         6.4106   -4.9335    0.0309 H         1 <0>         0.1540
     61 H27         4.1829   -5.0647    1.0592 H         1 <0>         0.1692
     62 H28         6.6390   -4.5675   -6.4149 H         1 <0>         0.1436
     63 H29         4.9786   -3.1132   -7.4989 H         1 <0>         0.1397
     64 H30         3.5000   -1.6965   -6.1359 H         1 <0>         0.1339
     65 H31         3.6711   -1.7242   -3.6821 H         1 <0>         0.1295
     66 H32         5.3159   -3.1793   -2.5753 H         1 <0>         0.1287
     67 H33        -0.5525   -7.4958   -0.2304 H         1 <0>         0.4285
@<TRIPOS>BOND
     1    1    2 1
     2    1   37 1
     3    1   38 1
     4    1   39 1
     5    2    3 1
     6    2    4 1
     7    2   14 1
     8    4    9 1
     9    4   13 1
    10    4    5 1
    11    5    6 1
    12    5   40 1
    13    5   41 1
    14    6   12 1
    15    6    7 1
    16    6   42 1
    17    7    8 1
    18    7   43 1
    19    7   44 1
    20    8    9 1
    21    8   10 1
    22    8   45 1
    23    9   46 1
    24    9   47 1
    25   10   11 1
    26   10   48 1
    27   10   49 1
    28   11   12 1
    29   11   13 1
    30   11   50 1
    31   12   51 1
    32   12   52 1
    33   13   53 1
    34   13   54 1
    35   14   15 1
    36   14   55 1
    37   14   67 1
    38   15   16 1
    39   15   21 1
    40   15   17 1
    41   17   18 1
    42   17   56 1
    43   17   57 1
    44   18   19 2
    45   18   20 am
    46   20   21 am
    47   20   23 1
    48   21   22 2
    49   23   28 ar
    50   23   24 ar
    51   24   25 ar
    52   24   58 1
    53   25   26 ar
    54   25   59 1
    55   26   27 ar
    56   26   29 1
    57   27   28 ar
    58   27   60 1
    59   28   61 1
    60   29   30 2
    61   30   31 1
    62   31   36 ar
    63   31   32 ar
    64   32   33 ar
    65   32   62 1
    66   33   34 ar
    67   33   63 1
    68   34   35 ar
    69   34   64 1
    70   35   36 ar
    71   35   65 1
    72   36   66 1
@<TRIPOS>MOLECULE
ZINC12478774
   61    65     0     0     0
SMALL
USER_CHARGES
1-(5-chloro-2-pyridyl)-4-[[3-[1-(p-tolyl)cyclopentyl]-1,2,4-oxadiazol-5-yl]methyl]piperazine
@<TRIPOS>ATOM
      1 C1         -4.4724    1.0380    4.6652 C.3       1 <0>        -0.1235
      2 C2         -3.6306    1.3447    3.4534 C.ar      1 <0>        -0.0717
      3 C3         -3.9824    2.3839    2.6125 C.ar      1 <0>        -0.1110
      4 C4         -3.2098    2.6658    1.5014 C.ar      1 <0>        -0.1020
      5 C5         -2.0852    1.9087    1.2315 C.ar      1 <0>        -0.0872
      6 C6         -1.7363    0.8661    2.0695 C.ar      1 <0>        -0.1087
      7 C7         -2.5065    0.5870    3.1830 C.ar      1 <0>        -0.1167
      8 C8         -1.2429    2.2160    0.0202 C.3       1 <0>         0.0672
      9 C9         -2.1260    2.2494   -1.2442 C.3       1 <0>        -0.1001
     10 C10        -2.4618    3.7496   -1.4334 C.3       1 <0>        -0.1297
     11 C11        -1.1396    4.4492   -1.0315 C.3       1 <0>        -0.1250
     12 C12        -0.6157    3.6146    0.1554 C.3       1 <0>        -0.1213
     13 C13        -0.1613    1.1779   -0.1328 C.2       1 <0>         0.2078
     14 N1         -0.3440   -0.1470   -0.2749 N.2       1 <0>        -0.4137
     15 C14         0.8583   -0.6599   -0.3791 C.2       1 <0>         0.0698
     16 O1          1.7226    0.3562   -0.2981 O.3       1 <0>         0.1154
     17 N2          1.1190    1.3990   -0.1574 N.2       1 <0>        -0.3318
     18 C15         1.2003   -2.1170   -0.5559 C.3       1 <0>         0.1160
     19 C16        -0.0684   -2.3137   -2.6093 C.3       1 <0>        -0.0060
     20 C17         0.0486   -2.5758   -4.1127 C.3       1 <0>         0.0244
     21 N3          0.6075   -3.9172   -4.3314 N.pl3     1 <0>        -0.4805
     22 C18         1.9339   -4.0395   -3.7107 C.3       1 <0>        -0.0131
     23 C19         1.8169   -3.7774   -2.2074 C.3       1 <0>         0.0092
     24 C20         0.6622   -4.2192   -5.6877 C.ar      1 <0>         0.3526
     25 C21        -0.4985   -4.1659   -6.4530 C.ar      1 <0>        -0.1246
     26 C22        -0.4293   -4.4632   -7.8019 C.ar      1 <0>         0.0521
     27 C23         0.8021   -4.8164   -8.3406 C.ar      1 <0>        -0.0734
     28 C24         1.9129   -4.8543   -7.5206 C.ar      1 <0>         0.1630
     29 Cl1         0.9427   -5.2053  -10.0266 Cl        1 <0>         0.0513
     30 H1         -5.2458    0.3180    4.3977 H         1 <0>         0.0759
     31 H2         -3.8415    0.6190    5.4492 H         1 <0>         0.0697
     32 H3         -4.9386    1.9551    5.0253 H         1 <0>         0.0729
     33 H4         -4.8607    2.9758    2.8238 H         1 <0>         0.1308
     34 H5         -3.4847    3.4777    0.8444 H         1 <0>         0.1312
     35 H6         -0.8601    0.2719    1.8562 H         1 <0>         0.1033
     36 H7         -2.2314   -0.2247    3.8401 H         1 <0>         0.1229
     37 H8         -1.5747    1.8704   -2.1047 H         1 <0>         0.0630
     38 H9         -3.0369    1.6713   -1.0887 H         1 <0>         0.0842
     39 H10        -3.2744    4.0500   -0.7719 H         1 <0>         0.0807
     40 H11        -2.7104    3.9616   -2.4733 H         1 <0>         0.0789
     41 H12        -1.3306    5.4763   -0.7209 H         1 <0>         0.0808
     42 H13        -0.4290    4.4254   -1.8577 H         1 <0>         0.0680
     43 H14        -0.9213    4.0715    1.0967 H         1 <0>         0.0861
     44 H15         0.4710    3.5425    0.1104 H         1 <0>         0.0793
     45 H16         2.1686   -2.3210   -0.0989 H         1 <0>         0.1743
     46 H17         0.4364   -2.7300   -0.0776 H         1 <0>         0.1800
     47 H18        -0.7465   -3.0422   -2.1649 H         1 <0>         0.1617
     48 H19        -0.4557   -1.3082   -2.4445 H         1 <0>         0.1526
     49 H20         0.7052   -1.8306   -4.5617 H         1 <0>         0.0939
     50 H21        -0.9387   -2.5141   -4.5705 H         1 <0>         0.1522
     51 H22         2.6120   -3.3110   -4.1552 H         1 <0>         0.0940
     52 H23         2.3216   -5.0449   -3.8755 H         1 <0>         0.1454
     53 H24         2.8042   -3.8391   -1.7495 H         1 <0>         0.1630
     54 H25         1.1605   -4.5226   -1.7580 H         1 <0>         0.1609
     55 H26        -1.4401   -3.8917   -6.0006 H         1 <0>         0.2012
     56 H27        -1.3130   -4.4260   -8.4216 H         1 <0>         0.1966
     57 H28         2.8721   -5.1279   -7.9347 H         1 <0>         0.2137
     58 N4          1.2750   -2.4179   -2.0015 N.4       1 <0>        -0.4049
     59 H29         1.8988   -1.7381   -2.4520 H         1 <0>         0.4329
     60 N5          1.8820   -4.5629   -6.1925 N.ar      1 <0>        -0.5077
     61 H30         2.7243   -4.5994   -5.6064 H         1 <0>         0.4736
@<TRIPOS>BOND
     1    1    2 1
     2    1   30 1
     3    1   31 1
     4    1   32 1
     5    2    7 ar
     6    2    3 ar
     7    3    4 ar
     8    3   33 1
     9    4    5 ar
    10    4   34 1
    11    5    6 ar
    12    5    8 1
    13    6    7 ar
    14    6   35 1
    15    7   36 1
    16    8   12 1
    17    8    9 1
    18    8   13 1
    19    9   10 1
    20    9   37 1
    21    9   38 1
    22   10   11 1
    23   10   39 1
    24   10   40 1
    25   11   12 1
    26   11   41 1
    27   11   42 1
    28   12   43 1
    29   12   44 1
    30   13   17 2
    31   13   14 1
    32   14   15 2
    33   15   16 1
    34   15   18 1
    35   16   17 1
    36   18   45 1
    37   18   46 1
    38   18   58 1
    39   19   20 1
    40   19   47 1
    41   19   48 1
    42   19   58 1
    43   20   21 1
    44   20   49 1
    45   20   50 1
    46   21   22 1
    47   21   24 1
    48   22   23 1
    49   22   51 1
    50   22   52 1
    51   23   53 1
    52   23   54 1
    53   23   58 1
    54   24   25 ar
    55   24   60 ar
    56   25   26 ar
    57   25   55 1
    58   26   27 ar
    59   26   56 1
    60   27   28 ar
    61   27   29 1
    62   28   57 1
    63   28   60 ar
    64   58   59 1
    65   60   61 1
@<TRIPOS>MOLECULE
ZINC14959824
   72    75     0     0     0
SMALL
USER_CHARGES
N-[[(3S)-1-[2-(4-methoxyphenyl)ethyl]-3-piperidyl]methyl]-N-methyl-1-[5-(pyrrolidin-1-ylmethyl)-2-thienyl]methanamine
@<TRIPOS>ATOM
      1 C1         -4.3030   -0.4563   -5.2637 C.3       1 <0>         0.0073
      2 N1         -4.7910    0.5952   -6.1661 N.3       1 <0>        -0.5416
      3 C2         -5.7313    1.4874   -5.4749 C.3       1 <0>         0.1218
      4 C3         -6.9766    0.7205   -5.1114 C.2       1 <0>        -0.0901
      5 C4         -7.2509    0.0243   -3.9812 C.2       1 <0>        -0.1693
      6 C5         -8.4742   -0.6086   -3.8641 C.2       1 <0>        -0.0826
      7 C6         -9.3633   -0.5143   -4.8829 C.2       1 <0>        -0.2555
      8 S1         -8.4707    0.4875   -6.0604 S.3       1 <0>         0.0954
      9 C7        -10.7443   -1.1070   -4.9951 C.3       1 <0>         0.0940
     10 N2        -11.7293   -0.1586   -4.4581 N.4       1 <0>        -0.4119
     11 C8        -11.5790    1.1784   -5.0875 C.3       1 <0>        -0.0017
     12 C9        -12.9516    1.8486   -4.8281 C.3       1 <0>        -0.1428
     13 C10       -13.9456    0.6761   -4.9932 C.3       1 <0>        -0.1432
     14 C11       -13.1084   -0.5961   -4.7650 C.3       1 <0>        -0.0006
     15 C12        -3.6734    1.3537   -6.7437 C.3       1 <0>         0.0537
     16 C13        -2.9465    0.4863   -7.7733 C.3       1 <0>        -0.1008
     17 H1         -2.6118   -0.4452   -7.2935 H         1 <0>         0.0964
     18 C14        -1.7353    1.2476   -8.3192 C.3       1 <0>        -0.1360
     19 C15        -1.0488    0.3973   -9.3917 C.3       1 <0>        -0.1442
     20 C16        -2.0548    0.0699  -10.4975 C.3       1 <0>        -0.0106
     21 N3         -3.1940   -0.6586   -9.9247 N.4       1 <0>        -0.3989
     22 C17        -3.8975    0.1564   -8.9260 C.3       1 <0>         0.0060
     23 C18        -4.1132   -1.1103  -10.9777 C.3       1 <0>        -0.0019
     24 C19        -3.4149   -2.1549  -11.8507 C.3       1 <0>        -0.0939
     25 C20        -4.3579   -2.6183  -12.9309 C.ar      1 <0>        -0.1502
     26 C21        -5.1848   -3.7035  -12.7064 C.ar      1 <0>        -0.0670
     27 C22        -6.0542   -4.1268  -13.6930 C.ar      1 <0>        -0.2078
     28 C23        -6.0891   -3.4690  -14.9140 C.ar      1 <0>         0.1474
     29 C24        -5.2544   -2.3840  -15.1388 C.ar      1 <0>        -0.1488
     30 C25        -4.3909   -1.9611  -14.1469 C.ar      1 <0>        -0.0671
     31 O1         -6.9399   -3.8867  -15.8880 O.3       1 <0>        -0.3111
     32 C26        -7.7698   -5.0102  -15.5865 C.3       1 <0>         0.0203
     33 H2         -3.6024   -1.1085   -5.8057 H         1 <0>         0.0740
     34 H3         -5.1535   -1.0525   -4.9016 H         1 <0>         0.0762
     35 H4         -3.7877    0.0048   -4.4082 H         1 <0>         0.0407
     36 H5         -5.2612    1.8780   -4.5603 H         1 <0>         0.0761
     37 H6         -5.9965    2.3247   -6.1372 H         1 <0>         0.1007
     38 H7         -6.5247   -0.0348   -3.1840 H         1 <0>         0.1446
     39 H8         -8.7178   -1.1701   -2.9742 H         1 <0>         0.1442
     40 H9        -10.9707   -1.3117   -6.0519 H         1 <0>         0.1350
     41 H10       -10.7884   -2.0451   -4.4223 H         1 <0>         0.1491
     42 H11       -10.7495    1.7184   -4.6076 H         1 <0>         0.1284
     43 H12       -11.3658    1.0570   -6.1598 H         1 <0>         0.1246
     44 H13       -12.9653    2.2758   -3.8145 H         1 <0>         0.0991
     45 H14       -13.1142    2.6486   -5.5654 H         1 <0>         0.1159
     46 H15       -14.7503    0.7700   -4.2491 H         1 <0>         0.1088
     47 H16       -14.3770    0.7008   -6.0048 H         1 <0>         0.1055
     48 H17       -13.1015   -1.2235   -5.6685 H         1 <0>         0.1295
     49 H18       -13.5060   -1.1759   -3.9190 H         1 <0>         0.1350
     50 H19        -4.0597    2.2592   -7.2344 H         1 <0>         0.0896
     51 H20        -2.9729    1.6398   -5.9453 H         1 <0>         0.0649
     52 H21        -2.0682    2.1992   -8.7593 H         1 <0>         0.0836
     53 H22        -1.0295    1.4496   -7.5000 H         1 <0>         0.0949
     54 H23        -0.2027    0.9569   -9.8172 H         1 <0>         0.1152
     55 H24        -0.6811   -0.5359   -8.9400 H         1 <0>         0.0889
     56 H25        -2.4110    1.0036  -10.9573 H         1 <0>         0.1266
     57 H26        -1.5688   -0.5534  -11.2625 H         1 <0>         0.1332
     58 H27        -4.7618   -0.4035   -8.5394 H         1 <0>         0.1366
     59 H28        -4.2446    1.0896   -9.3936 H         1 <0>         0.1226
     60 H29        -5.0075   -1.5557  -10.5174 H         1 <0>         0.1292
     61 H30        -4.4093   -0.2521  -11.5988 H         1 <0>         0.1275
     62 H31        -2.5206   -1.7095  -12.3110 H         1 <0>         0.0942
     63 H32        -3.1187   -3.0131  -11.2296 H         1 <0>         0.0933
     64 H33        -5.1540   -4.2180  -11.7572 H         1 <0>         0.1253
     65 H34        -6.7029   -4.9718  -13.5155 H         1 <0>         0.1341
     66 H35        -5.2800   -1.8700  -16.0883 H         1 <0>         0.1383
     67 H36        -3.7411   -1.1162  -14.3213 H         1 <0>         0.1307
     68 H37        -8.4045   -5.2407  -16.4548 H         1 <0>         0.1105
     69 H38        -8.4052   -4.7746  -14.7201 H         1 <0>         0.0584
     70 H39        -7.1385   -5.8801  -15.3525 H         1 <0>         0.0614
     71 H40       -11.5498   -0.1226   -3.3734 H         1 <0>         0.4508
     72 H41        -2.7997   -1.5491   -9.4132 H         1 <0>         0.4380
@<TRIPOS>BOND
     1    1    2 1
     2    1   33 1
     3    1   34 1
     4    1   35 1
     5    2    3 1
     6    2   15 1
     7    3    4 1
     8    3   36 1
     9    3   37 1
    10    4    8 1
    11    4    5 2
    12    5    6 1
    13    5   38 1
    14    6    7 2
    15    6   39 1
    16    7    8 1
    17    7    9 1
    18    9   10 1
    19    9   40 1
    20    9   41 1
    21   10   14 1
    22   10   11 1
    23   10   71 1
    24   11   12 1
    25   11   42 1
    26   11   43 1
    27   12   13 1
    28   12   44 1
    29   12   45 1
    30   13   14 1
    31   13   46 1
    32   13   47 1
    33   14   48 1
    34   14   49 1
    35   15   16 1
    36   15   50 1
    37   15   51 1
    38   16   17 1
    39   16   22 1
    40   16   18 1
    41   18   19 1
    42   18   52 1
    43   18   53 1
    44   19   20 1
    45   19   54 1
    46   19   55 1
    47   20   21 1
    48   20   56 1
    49   20   57 1
    50   21   22 1
    51   21   23 1
    52   21   72 1
    53   22   58 1
    54   22   59 1
    55   23   24 1
    56   23   60 1
    57   23   61 1
    58   24   25 1
    59   24   62 1
    60   24   63 1
    61   25   30 ar
    62   25   26 ar
    63   26   27 ar
    64   26   64 1
    65   27   28 ar
    66   27   65 1
    67   28   29 ar
    68   28   31 1
    69   29   30 ar
    70   29   66 1
    71   30   67 1
    72   31   32 1
    73   32   68 1
    74   32   69 1
    75   32   70 1
@<TRIPOS>MOLECULE
ZINC39706780
   56    59     0     0     0
SMALL
USER_CHARGES

@<TRIPOS>ATOM
      1 C1         -0.7216    1.4181   -0.0130 C.3       1 <0>        -0.1582
      2 C2         -0.5309   -0.0997   -0.0427 C.3       1 <0>         0.0527
      3 O1         -1.7821   -0.7316   -0.3208 O.3       1 <0>        -0.2923
      4 C3         -1.7874   -2.0902   -0.3825 C.ar      1 <0>         0.1076
      5 C4         -0.6180   -2.7953   -0.1746 C.ar      1 <0>        -0.1245
      6 C5         -0.6274   -4.1931   -0.2385 C.ar      1 <0>        -0.1600
      7 C6         -1.8215   -4.8689   -0.5126 C.ar      1 <0>        -0.0576
      8 C7         -2.9834   -4.1575   -0.7188 C.ar      1 <0>        -0.1887
      9 C8         -2.9742   -2.7710   -0.6500 C.ar      1 <0>         0.1744
     10 O2         -4.1240   -2.0753   -0.8490 O.3       1 <0>        -0.2787
     11 C9         -5.3037   -2.8353   -1.1185 C.3       1 <0>         0.0985
     12 C10        -6.4704   -1.9009   -1.3103 C.ar      1 <0>        -0.1084
     13 C11        -7.2363   -1.5200   -0.2243 C.ar      1 <0>        -0.0789
     14 C12        -8.3065   -0.6630   -0.3996 C.ar      1 <0>        -0.1119
     15 C13        -8.6110   -0.1864   -1.6622 C.ar      1 <0>        -0.0174
     16 C14        -7.8441   -0.5679   -2.7487 C.ar      1 <0>        -0.1115
     17 C15        -6.7708   -1.4205   -2.5713 C.ar      1 <0>        -0.0781
     18 Cl1        -9.9553    0.8896   -1.8832 Cl        1 <0>        -0.0519
     19 C16         0.6142   -4.9496   -0.0185 C.2       1 <0>         0.1630
     20 C17         0.5804   -6.1233    0.6467 C.2       1 <0>        -0.2154
     21 C18        -0.6324   -6.5569    1.2727 C.1       1 <0>         0.2014
     22 N1         -1.5945   -6.9008    1.7693 N.1       1 <0>        -0.3399
     23 C19         1.8189   -6.9778    0.7308 C.3       1 <0>         0.3286
     24 H1          2.6449   -6.4908    0.2124 H         1 <0>         0.2471
     25 N2          2.1744   -7.2131    2.1358 N.pl3     1 <0>        -0.4634
     26 C20         2.1303   -8.4980    2.3399 C.ar      1 <0>         0.3273
     27 C21         2.3818   -9.3306    3.5243 C.ar      1 <0>        -0.1347
     28 C22         2.2558  -10.6698    3.4347 C.ar      1 <0>         0.0316
     29 C23         1.8886  -11.3186    2.2423 C.ar      1 <0>         0.0849
     30 C24         1.6351  -10.6502    1.0995 C.ar      1 <0>        -0.1678
     31 C25         1.7421   -9.1848    1.0777 C.ar      1 <0>         0.3227
     32 N3          1.5617   -8.2975    0.1408 N.pl3     1 <0>        -0.4797
     33 C26         1.7735  -12.8212    2.2423 C.3       1 <0>        -0.1609
     34 H2          0.2327    1.9001    0.1991 H         1 <0>         0.0859
     35 H3         -1.0926    1.7567   -0.9804 H         1 <0>         0.0726
     36 H4         -1.4409    1.6788    0.7635 H         1 <0>         0.0715
     37 H5          0.1883   -0.3604   -0.8191 H         1 <0>         0.0662
     38 H6         -0.1600   -0.4383    0.9247 H         1 <0>         0.0634
     39 H7          0.3012   -2.2691    0.0364 H         1 <0>         0.1519
     40 H8         -1.8324   -5.9476   -0.5630 H         1 <0>         0.1270
     41 H9         -3.9045   -4.6802   -0.9303 H         1 <0>         0.1515
     42 H10        -5.1575   -3.4245   -2.0238 H         1 <0>         0.0820
     43 H11        -5.5060   -3.5018   -0.2800 H         1 <0>         0.0802
     44 H12        -6.9987   -1.8924    0.7612 H         1 <0>         0.1334
     45 H13        -8.9050   -0.3658    0.4488 H         1 <0>         0.1411
     46 H14        -8.0816   -0.1964   -3.7345 H         1 <0>         0.1417
     47 H15        -6.1691   -1.7146   -3.4185 H         1 <0>         0.1346
     48 H16         1.5532   -4.5660   -0.3894 H         1 <0>         0.1751
     49 H17         2.6653   -8.8727    4.4604 H         1 <0>         0.2081
     50 H18         2.4440  -11.2682    4.3138 H         1 <0>         0.2039
     51 H19         1.3556  -11.1881    0.2056 H         1 <0>         0.2039
     52 H20         0.7554  -13.1076    2.5059 H         1 <0>         0.1305
     53 H21         2.0133  -13.2040    1.2502 H         1 <0>         0.1110
     54 H22         2.4686  -13.2389    2.9706 H         1 <0>         0.1143
     55 H23         2.4010   -6.5354    2.7917 H         1 <0>         0.4956
     56 H24         1.3041   -8.4754   -0.7773 H         1 <0>         0.4947
@<TRIPOS>BOND
     1    1    2 1
     2    1   34 1
     3    1   35 1
     4    1   36 1
     5    2    3 1
     6    2   37 1
     7    2   38 1
     8    3    4 1
     9    4    9 ar
    10    4    5 ar
    11    5    6 ar
    12    5   39 1
    13    6    7 ar
    14    6   19 1
    15    7    8 ar
    16    7   40 1
    17    8    9 ar
    18    8   41 1
    19    9   10 1
    20   10   11 1
    21   11   12 1
    22   11   42 1
    23   11   43 1
    24   12   17 ar
    25   12   13 ar
    26   13   14 ar
    27   13   44 1
    28   14   15 ar
    29   14   45 1
    30   15   16 ar
    31   15   18 1
    32   16   17 ar
    33   16   46 1
    34   17   47 1
    35   19   20 2
    36   19   48 1
    37   20   21 1
    38   20   23 1
    39   21   22 3
    40   23   24 1
    41   23   32 1
    42   23   25 1
    43   25   26 2
    44   25   55 1
    45   26   31 ar
    46   26   27 ar
    47   27   28 ar
    48   27   49 1
    49   28   29 ar
    50   28   50 1
    51   29   30 ar
    52   29   33 1
    53   30   31 ar
    54   30   51 1
    55   31   32 2
    56   32   56 1
    57   33   52 1
    58   33   53 1
    59   33   54 1
@<TRIPOS>MOLECULE
ZINC63165352
   62    66     0     0     0
SMALL
USER_CHARGES

@<TRIPOS>ATOM
      1 C1         -0.1457    1.4999   -0.0191 C.3       1 <0>        -0.1181
      2 C2         -0.1131   -0.0068   -0.0220 C.ar      1 <0>        -0.1089
      3 C3         -0.1740   -0.6961   -1.2190 C.ar      1 <0>        -0.0798
      4 C4         -0.1448   -2.0772   -1.2243 C.ar      1 <0>        -0.1432
      5 C5         -0.0537   -2.7725   -0.0272 C.ar      1 <0>         0.1153
      6 C6          0.0078   -2.0785    1.1724 C.ar      1 <0>        -0.1995
      7 C7         -0.0166   -0.6973    1.1720 C.ar      1 <0>        -0.0794
      8 O1         -0.0252   -4.1312   -0.0298 O.3       1 <0>        -0.3153
      9 C8          0.0696   -4.7805    1.2397 C.3       1 <0>         0.0422
     10 C9          0.0886   -6.2969    1.0368 C.3       1 <0>         0.3027
     11 H1          0.1751   -6.8079    1.9957 H         1 <0>         0.1147
     12 N1         -1.1353   -6.7409    0.3196 N.3       1 <0>        -0.4663
     13 N2         -0.7165   -8.0115   -0.2932 N.3       1 <0>        -0.4863
     14 C10         0.6853   -7.7758   -0.7076 C.3       1 <0>         0.3368
     15 H2          0.7201   -7.4816   -1.7566 H         1 <0>         0.1115
     16 N3          1.1985   -6.6846    0.1427 N.pl3     1 <0>        -0.6558
     17 C11         2.4810   -6.1258    0.1086 C.ar      1 <0>         0.1420
     18 C12         3.3305   -6.2693    1.1976 C.ar      1 <0>        -0.0991
     19 C13         4.5962   -5.7179    1.1630 C.ar      1 <0>        -0.1441
     20 C14         5.0190   -5.0210    0.0408 C.ar      1 <0>         0.1398
     21 C15         4.1710   -4.8768   -1.0473 C.ar      1 <0>        -0.1879
     22 C16         2.9070   -5.4325   -1.0166 C.ar      1 <0>        -0.0675
     23 O2          6.2656   -4.4783    0.0074 O.3       1 <0>        -0.3124
     24 C17         6.6351   -3.7740   -1.1797 C.3       1 <0>         0.0229
     25 S1          1.6702   -9.2773   -0.4506 S.3       1 <0>        -0.2627
     26 C18         1.4990   -9.6161    1.3232 C.3       1 <0>        -0.1278
     27 C19         2.2920  -10.8747    1.6809 C.3       1 <0>         0.2734
     28 N4          3.6991  -10.7106    1.2946 N.pl3     1 <0>        -0.4634
     29 C20         3.9761  -11.6385    0.4247 C.ar      1 <0>         0.3293
     30 C21         5.1990  -11.9828   -0.3135 C.ar      1 <0>        -0.1384
     31 C22         5.1881  -13.0237   -1.1701 C.ar      1 <0>         0.0324
     32 C23         4.0430  -13.8085   -1.3948 C.ar      1 <0>         0.0325
     33 C24         2.8705  -13.5788   -0.7706 C.ar      1 <0>        -0.1382
     34 C25         2.7642  -12.4695    0.1872 C.ar      1 <0>         0.3303
     35 N5          1.7849  -12.0233    0.9195 N.pl3     1 <0>        -0.4623
     36 H3          0.8715    1.8854   -0.0883 H         1 <0>         0.0727
     37 H4         -0.7266    1.8524   -0.8713 H         1 <0>         0.0701
     38 H5         -0.6054    1.8516    0.9045 H         1 <0>         0.0694
     39 H6         -0.2449   -0.1544   -2.1506 H         1 <0>         0.1327
     40 H7         -0.1931   -2.6153   -2.1595 H         1 <0>         0.1262
     41 H8          0.0787   -2.6175    2.1056 H         1 <0>         0.1237
     42 H9          0.0357   -0.1564    2.1054 H         1 <0>         0.1283
     43 H10         0.9869   -4.4693    1.7394 H         1 <0>         0.0785
     44 H11        -0.7891   -4.5067    1.8528 H         1 <0>         0.0877
     45 H12        -1.4045   -6.0709   -0.3852 H         1 <0>         0.3488
     46 H13        -1.2954   -8.2377   -1.0880 H         1 <0>         0.3733
     47 H14         3.0013   -6.8117    2.0717 H         1 <0>         0.1190
     48 H15         5.2569   -5.8291    2.0100 H         1 <0>         0.1370
     49 H16         4.5009   -4.3337   -1.9206 H         1 <0>         0.1367
     50 H17         2.2486   -5.3242   -1.8658 H         1 <0>         0.1248
     51 H18         6.5871   -4.4503   -2.0332 H         1 <0>         0.0589
     52 H19         5.9490   -2.9416   -1.3367 H         1 <0>         0.0617
     53 H20         7.6508   -3.3928   -1.0748 H         1 <0>         0.1102
     54 H21         1.8832   -8.7703    1.8934 H         1 <0>         0.1527
     55 H22         0.4470   -9.7688    1.5641 H         1 <0>         0.1663
     56 H23         2.2173  -11.0724    2.7502 H         1 <0>         0.2453
     57 H24         6.1006  -11.4055   -0.1712 H         1 <0>         0.2047
     58 H25         6.0947  -13.2643   -1.7053 H         1 <0>         0.2026
     59 H26         4.1054  -14.6278   -2.0957 H         1 <0>         0.2028
     60 H27         2.0149  -14.2060   -0.9731 H         1 <0>         0.2055
     61 H28         4.3102  -10.0344    1.6266 H         1 <0>         0.4950
     62 H29         0.8850  -12.3836    0.9557 H         1 <0>         0.4962
@<TRIPOS>BOND
     1    1    2 1
     2    1   36 1
     3    1   37 1
     4    1   38 1
     5    2    7 ar
     6    2    3 ar
     7    3    4 ar
     8    3   39 1
     9    4    5 ar
    10    4   40 1
    11    5    6 ar
    12    5    8 1
    13    6    7 ar
    14    6   41 1
    15    7   42 1
    16    8    9 1
    17    9   10 1
    18    9   43 1
    19    9   44 1
    20   10   11 1
    21   10   16 1
    22   10   12 1
    23   12   13 1
    24   12   45 1
    25   13   14 1
    26   13   46 1
    27   14   15 1
    28   14   16 1
    29   14   25 1
    30   16   17 1
    31   17   22 ar
    32   17   18 ar
    33   18   19 ar
    34   18   47 1
    35   19   20 ar
    36   19   48 1
    37   20   21 ar
    38   20   23 1
    39   21   22 ar
    40   21   49 1
    41   22   50 1
    42   23   24 1
    43   24   51 1
    44   24   52 1
    45   24   53 1
    46   25   26 1
    47   26   27 1
    48   26   54 1
    49   26   55 1
    50   27   35 1
    51   27   28 1
    52   27   56 1
    53   28   29 2
    54   28   61 1
    55   29   34 ar
    56   29   30 ar
    57   30   31 ar
    58   30   57 1
    59   31   32 ar
    60   31   58 1
    61   32   33 ar
    62   32   59 1
    63   33   34 ar
    64   33   60 1
    65   34   35 2
    66   35   62 1
@<TRIPOS>MOLECULE
ZINC64002425
   62    66     0     0     0
SMALL
USER_CHARGES

@<TRIPOS>ATOM
      1 C1          0.3707    0.9326    0.7296 C.3       1 <0>        -0.1642
      2 C2          0.2567   -0.5614    0.5679 C.ar      1 <0>         0.0848
      3 C3          0.2822   -1.0815   -0.6755 C.ar      1 <0>        -0.1642
      4 C4          0.1730   -2.5358   -0.8554 C.ar      1 <0>         0.3189
      5 N1          0.1682   -3.2993   -1.9096 N.pl3     1 <0>        -0.4835
      6 C5          0.0294   -4.6864   -1.4484 C.3       1 <0>         0.2365
      7 N2         -0.0462   -4.6299    0.0169 N.pl3     1 <0>        -0.4643
      8 C6          0.0372   -3.3782    0.3643 C.ar      1 <0>         0.3118
      9 C7          0.0218   -2.7001    1.6678 C.ar      1 <0>        -0.1569
     10 C8          0.1338   -1.3577    1.7205 C.ar      1 <0>         0.0721
     11 C9          0.1208   -0.6830    3.0679 C.3       1 <0>        -0.1631
     12 C10        -1.2502   -5.3033   -2.0169 C.3       1 <0>         0.0976
     13 N3         -2.4084   -4.5281   -1.5655 N.am      1 <0>        -0.6262
     14 C11        -2.8901   -3.3984   -2.3642 C.3       1 <0>         0.0479
     15 C12        -3.0308   -4.8541   -0.4154 C.2       1 <0>         0.6062
     16 O1         -2.5747   -5.7284    0.2960 O.2       1 <0>        -0.4926
     17 C13        -4.2653   -4.1504   -0.0195 C.2       1 <0>        -0.0391
     18 C14        -4.9275   -4.2928    1.1606 C.2       1 <0>        -0.1350
     19 C15        -6.0479   -3.4453    1.1333 C.2       1 <0>         0.1207
     20 N4         -6.0607   -2.8210   -0.0097 N.2       1 <0>        -0.2546
     21 O2         -4.9372   -3.2462   -0.7592 O.3       1 <0>        -0.0686
     22 C16        -7.0614   -3.2862    2.2373 C.3       1 <0>         0.0637
     23 C17        -8.0956   -4.3771    2.1307 C.ar      1 <0>        -0.0989
     24 C18        -7.7298   -5.6970    2.3175 C.ar      1 <0>        -0.1053
     25 C19        -8.6785   -6.6977    2.2198 C.ar      1 <0>        -0.1174
     26 C20        -9.9931   -6.3784    1.9357 C.ar      1 <0>        -0.1039
     27 C21       -10.3591   -5.0584    1.7497 C.ar      1 <0>        -0.1121
     28 C22        -9.4113   -4.0574    1.8517 C.ar      1 <0>        -0.1009
     29 C23        -6.3687   -3.3794    3.5724 C.ar      1 <0>        -0.0871
     30 C24        -5.0953   -2.8645    3.7278 C.ar      1 <0>        -0.1210
     31 C25        -4.4599   -2.9500    4.9524 C.ar      1 <0>        -0.1203
     32 C26        -5.0981   -3.5500    6.0218 C.ar      1 <0>        -0.1094
     33 C27        -6.3718   -4.0640    5.8667 C.ar      1 <0>        -0.1075
     34 C28        -7.0089   -3.9747    4.6431 C.ar      1 <0>        -0.0923
     35 H1          1.4211    1.2092    0.8199 H         1 <0>         0.1314
     36 H2         -0.0615    1.4262   -0.1408 H         1 <0>         0.1122
     37 H3         -0.1652    1.2429    1.6266 H         1 <0>         0.1146
     38 H4          0.3818   -0.4336   -1.5338 H         1 <0>         0.2047
     39 H5          0.8960   -5.2714   -1.7561 H         1 <0>         0.2488
     40 H6         -0.0749   -3.2736    2.5778 H         1 <0>         0.2035
     41 H7         -0.9053   -0.4371    3.3412 H         1 <0>         0.1285
     42 H8          0.5447   -1.3545    3.8146 H         1 <0>         0.1118
     43 H9          0.7136    0.2306    3.0225 H         1 <0>         0.1147
     44 H10        -1.2068   -5.2909   -3.1060 H         1 <0>         0.1680
     45 H11        -1.3434   -6.3319   -1.6687 H         1 <0>         0.1666
     46 H12        -3.5925   -3.7583   -3.1161 H         1 <0>         0.1017
     47 H13        -3.3901   -2.6806   -1.7139 H         1 <0>         0.1102
     48 H14        -2.0461   -2.9157   -2.8570 H         1 <0>         0.0707
     49 H15        -4.6422   -4.9426    1.9746 H         1 <0>         0.1778
     50 H16        -7.5474   -2.3147    2.1471 H         1 <0>         0.1210
     51 H17        -6.7027   -5.9464    2.5395 H         1 <0>         0.1169
     52 H18        -8.3925   -7.7289    2.3650 H         1 <0>         0.1272
     53 H19       -10.7342   -7.1602    1.8586 H         1 <0>         0.1298
     54 H20       -11.3861   -4.8090    1.5274 H         1 <0>         0.1315
     55 H21        -9.6979   -3.0258    1.7101 H         1 <0>         0.1278
     56 H22        -4.5967   -2.3958    2.8923 H         1 <0>         0.1083
     57 H23        -3.4647   -2.5483    5.0737 H         1 <0>         0.1204
     58 H24        -4.6013   -3.6174    6.9785 H         1 <0>         0.1280
     59 H25        -6.8703   -4.5331    6.7021 H         1 <0>         0.1313
     60 H26        -8.0056   -4.3731    4.5229 H         1 <0>         0.1317
     61 H27         0.2424   -3.0057   -2.8311 H         1 <0>         0.4926
     62 H28        -0.1410   -5.3867    0.6162 H         1 <0>         0.4963
@<TRIPOS>BOND
     1    1    2 1
     2    1   35 1
     3    1   36 1
     4    1   37 1
     5    2   10 ar
     6    2    3 ar
     7    3    4 ar
     8    3   38 1
     9    4    8 ar
    10    4    5 2
    11    5    6 1
    12    5   61 1
    13    6    7 1
    14    6   12 1
    15    6   39 1
    16    7    8 2
    17    7   62 1
    18    8    9 ar
    19    9   10 ar
    20    9   40 1
    21   10   11 1
    22   11   41 1
    23   11   42 1
    24   11   43 1
    25   12   13 1
    26   12   44 1
    27   12   45 1
    28   13   14 1
    29   13   15 am
    30   14   46 1
    31   14   47 1
    32   14   48 1
    33   15   16 2
    34   15   17 1
    35   17   21 1
    36   17   18 2
    37   18   19 1
    38   18   49 1
    39   19   20 2
    40   19   22 1
    41   20   21 1
    42   22   23 1
    43   22   29 1
    44   22   50 1
    45   23   28 ar
    46   23   24 ar
    47   24   25 ar
    48   24   51 1
    49   25   26 ar
    50   25   52 1
    51   26   27 ar
    52   26   53 1
    53   27   28 ar
    54   27   54 1
    55   28   55 1
    56   29   34 ar
    57   29   30 ar
    58   30   31 ar
    59   30   56 1
    60   31   32 ar
    61   31   57 1
    62   32   33 ar
    63   32   58 1
    64   33   34 ar
    65   33   59 1
    66   34   60 1
@<TRIPOS>MOLECULE
ZINC09611425
   64    67     0     0     0
SMALL
USER_CHARGES
N-(2-methylcyclohexyl)-2-[(2-oxo-3,4-dihydro-1H-quinolin-6-yl)sulfonylamino]-3-phenyl-propanamide
@<TRIPOS>ATOM
      1 C1          2.9141    3.6657   -1.9253 C.3       1 <0>        -0.1494
      2 C2          2.6251    4.1271   -0.4954 C.3       1 <0>        -0.0975
      3 H1          3.4084    3.7627    0.1693 H         1 <0>         0.0751
      4 C3          2.5884    5.6560   -0.4505 C.3       1 <0>        -0.1125
      5 C4          2.2994    6.1174    0.9794 C.3       1 <0>        -0.1223
      6 C5          0.9475    5.5613    1.4313 C.3       1 <0>        -0.1182
      7 C6          0.9842    4.0324    1.3863 C.3       1 <0>        -0.1285
      8 C7          1.2733    3.5710   -0.0435 C.3       1 <0>         0.1498
      9 H2          0.4900    3.9353   -0.7082 H         1 <0>         0.0911
     10 N1          1.3084    2.1070   -0.0865 N.am      1 <0>        -0.7244
     11 C8          0.1643    1.4094   -0.2305 C.2       1 <0>         0.4993
     12 O1         -0.8939    1.9938   -0.3294 O.2       1 <0>        -0.5104
     13 C9          0.2004   -0.0965   -0.2747 C.3       1 <0>         0.1478
     14 H3          0.8139   -0.4206   -1.1153 H         1 <0>         0.1096
     15 C10         0.7976   -0.6308    1.0286 C.3       1 <0>        -0.0820
     16 C11         0.9208   -2.1306    0.9470 C.ar      1 <0>        -0.0834
     17 C12        -0.0711   -2.9353    1.4756 C.ar      1 <0>        -0.1101
     18 C13         0.0395   -4.3109    1.3964 C.ar      1 <0>        -0.1152
     19 C14         1.1469   -4.8820    0.7976 C.ar      1 <0>        -0.1169
     20 C15         2.1415   -4.0773    0.2741 C.ar      1 <0>        -0.1129
     21 C16         2.0284   -2.7016    0.3486 C.ar      1 <0>        -0.1133
     22 N2         -1.1610   -0.6131   -0.4360 N.pl3     1 <0>        -1.0901
     23 S1         -1.7324   -0.9843   -1.9453 S.o2      1 <0>         2.6936
     24 O2         -3.0486   -1.4897   -1.7683 O.2       1 <0>        -0.9529
     25 O3         -1.4515    0.1362   -2.7728 O.2       1 <0>        -0.9443
     26 C17        -0.7585   -2.3191   -2.5573 C.ar      1 <0>        -0.6986
     27 C18         0.3551   -2.0605   -3.3356 C.ar      1 <0>         0.0084
     28 C19         1.1234   -3.1039   -3.8135 C.ar      1 <0>        -0.1705
     29 C20         0.7704   -4.4144   -3.5196 C.ar      1 <0>         0.2218
     30 C21        -0.3511   -4.6706   -2.7421 C.ar      1 <0>        -0.1387
     31 C22        -1.1126   -3.6230   -2.2631 C.ar      1 <0>         0.0271
     32 C23        -0.7332   -6.0926   -2.4229 C.3       1 <0>        -0.0785
     33 C24        -0.3768   -6.9954   -3.6034 C.3       1 <0>        -0.1413
     34 C25         1.0335   -6.7211   -4.0516 C.2       1 <0>         0.5226
     35 O4          1.7207   -7.6332   -4.4600 O.2       1 <0>        -0.5154
     36 N3          1.5410   -5.4757   -4.0040 N.am      1 <0>        -0.6652
     37 H4          2.1309    4.0300   -2.5899 H         1 <0>         0.0580
     38 H5          3.8772    4.0619   -2.2472 H         1 <0>         0.0577
     39 H6          2.9403    2.5765   -1.9573 H         1 <0>         0.0550
     40 H7          1.8051    6.0203   -1.1151 H         1 <0>         0.0661
     41 H8          3.5515    6.0521   -0.7724 H         1 <0>         0.0678
     42 H9          2.2732    7.2066    1.0114 H         1 <0>         0.0645
     43 H10         3.0827    5.7530    1.6441 H         1 <0>         0.0624
     44 H11         0.1642    5.9256    0.7666 H         1 <0>         0.0648
     45 H12         0.7416    5.8900    2.4499 H         1 <0>         0.0649
     46 H13         0.0212    3.6362    1.7083 H         1 <0>         0.0676
     47 H14         1.7675    3.6680    2.0510 H         1 <0>         0.0634
     48 H15         2.1551    1.6398   -0.0115 H         1 <0>         0.3980
     49 H16         1.7840   -0.1931    1.1826 H         1 <0>         0.0931
     50 H17         0.1478   -0.3645    1.8621 H         1 <0>         0.0906
     51 H18        -0.9343   -2.4892    1.9470 H         1 <0>         0.1223
     52 H19        -0.7374   -4.9396    1.8057 H         1 <0>         0.1225
     53 H20         1.2351   -5.9568    0.7391 H         1 <0>         0.1181
     54 H21         3.0068   -4.5234   -0.1934 H         1 <0>         0.1173
     55 H22         2.8055   -2.0729   -0.0604 H         1 <0>         0.1201
     56 H23        -1.7277   -0.7377    0.3414 H         1 <0>         0.4235
     57 H24         0.6265   -1.0410   -3.5668 H         1 <0>         0.1445
     58 H25         1.9952   -2.9011   -4.4178 H         1 <0>         0.1388
     59 H26        -1.9853   -3.8221   -1.6588 H         1 <0>         0.1443
     60 H27        -0.1916   -6.4241   -1.5370 H         1 <0>         0.0875
     61 H28        -1.8054   -6.1468   -2.2343 H         1 <0>         0.0973
     62 H29        -1.0629   -6.8006   -4.4277 H         1 <0>         0.1076
     63 H30        -0.4635   -8.0384   -3.2990 H         1 <0>         0.1143
     64 H31         2.4478   -5.3133   -4.3076 H         1 <0>         0.4143
@<TRIPOS>BOND
     1    1    2 1
     2    1   37 1
     3    1   38 1
     4    1   39 1
     5    2    3 1
     6    2    8 1
     7    2    4 1
     8    4    5 1
     9    4   40 1
    10    4   41 1
    11    5    6 1
    12    5   42 1
    13    5   43 1
    14    6    7 1
    15    6   44 1
    16    6   45 1
    17    7    8 1
    18    7   46 1
    19    7   47 1
    20    8    9 1
    21    8   10 1
    22   10   11 am
    23   10   48 1
    24   11   12 2
    25   11   13 1
    26   13   14 1
    27   13   15 1
    28   13   22 1
    29   15   16 1
    30   15   49 1
    31   15   50 1
    32   16   21 ar
    33   16   17 ar
    34   17   18 ar
    35   17   51 1
    36   18   19 ar
    37   18   52 1
    38   19   20 ar
    39   19   53 1
    40   20   21 ar
    41   20   54 1
    42   21   55 1
    43   22   23 1
    44   22   56 1
    45   23   24 2
    46   23   25 2
    47   23   26 1
    48   26   31 ar
    49   26   27 ar
    50   27   28 ar
    51   27   57 1
    52   28   29 ar
    53   28   58 1
    54   29   36 1
    55   29   30 ar
    56   30   31 ar
    57   30   32 1
    58   31   59 1
    59   32   33 1
    60   32   60 1
    61   32   61 1
    62   33   34 1
    63   33   62 1
    64   33   63 1
    65   34   35 2
    66   34   36 am
    67   36   64 1
@<TRIPOS>MOLECULE
ZINC13979584
   44    45     0     0     0
SMALL
USER_CHARGES
N-[4-[[[2-(2-bromo-4-chloro-phenoxy)acetyl]amino]carbamoyl]phenyl]propanamide
@<TRIPOS>ATOM
      1 C1         -8.3095    3.4639   -1.5122 C.3       1 <0>        -0.1407
      2 C2         -7.2766    4.2531   -0.7052 C.3       1 <0>        -0.1425
      3 C3         -5.9956    3.4639   -0.6205 C.2       1 <0>         0.5113
      4 O1         -5.9166    2.3772   -1.1531 O.2       1 <0>        -0.5120
      5 N1         -4.9378    3.9657    0.0471 N.am      1 <0>        -0.6773
      6 C4         -3.7233    3.2806    0.0452 C.ar      1 <0>         0.1788
      7 C5         -3.7112    1.8893    0.0485 C.ar      1 <0>        -0.1305
      8 C6         -2.5139    1.2098    0.0458 C.ar      1 <0>        -0.0303
      9 C7         -1.3098    1.9191    0.0401 C.ar      1 <0>        -0.1505
     10 C8         -1.3255    3.3165    0.0426 C.ar      1 <0>        -0.0626
     11 C9         -2.5263    3.9898    0.0395 C.ar      1 <0>        -0.1519
     12 C10        -0.0242    1.1939    0.0376 C.2       1 <0>         0.5677
     13 O2         -0.0121   -0.0219    0.0405 O.2       1 <0>        -0.5330
     14 N2          1.1361    1.8794    0.0265 N.am      1 <0>        -0.5177
     15 N3          2.3563    1.1910    0.0184 N.am      1 <0>        -0.5177
     16 C11         3.5167    1.8765    0.0073 C.2       1 <0>         0.5174
     17 O3          3.5046    3.0893    0.0043 O.2       1 <0>        -0.5060
     18 C12         4.8292    1.1361   -0.0015 C.3       1 <0>         0.0484
     19 O4          5.9060    2.0755   -0.0126 O.3       1 <0>        -0.2713
     20 C13         7.1673    1.5684   -0.0215 C.ar      1 <0>         0.1600
     21 C14         7.3638    0.1954   -0.0197 C.ar      1 <0>        -0.1926
     22 C15         8.6462   -0.3181   -0.0288 C.ar      1 <0>        -0.0518
     23 C16         9.7349    0.5361   -0.0401 C.ar      1 <0>        -0.0673
     24 C17         9.5416    1.9060   -0.0419 C.ar      1 <0>        -0.0419
     25 C18         8.2599    2.4239   -0.0382 C.ar      1 <0>        -0.1132
     26 Br1         7.9958    4.2963   -0.0486 Br        1 <0>        -0.0139
     27 Cl1        11.3453   -0.1121   -0.0515 Cl        1 <0>        -0.0539
     28 H1         -7.9261    3.2847   -2.5166 H         1 <0>         0.0635
     29 H2         -8.5023    2.5100   -1.0213 H         1 <0>         0.0636
     30 H3         -9.2361    4.0348   -1.5734 H         1 <0>         0.0660
     31 H4         -7.6601    4.4323    0.2992 H         1 <0>         0.0989
     32 H5         -7.0839    5.2071   -1.1961 H         1 <0>         0.0990
     33 H6         -5.0214    4.8034    0.5289 H         1 <0>         0.4155
     34 H7         -4.6421    1.3418    0.0529 H         1 <0>         0.1492
     35 H8         -2.5052    0.1299    0.0476 H         1 <0>         0.1433
     36 H9         -0.3967    3.8676    0.0426 H         1 <0>         0.1317
     37 H10        -2.5392    5.0697    0.0366 H         1 <0>         0.1365
     38 H11         1.1264    2.8493    0.0242 H         1 <0>         0.4330
     39 H12         2.3660    0.2211    0.0207 H         1 <0>         0.4350
     40 H13         4.9004    0.5122    0.8895 H         1 <0>         0.1067
     41 H14         4.8860    0.5078   -0.8904 H         1 <0>         0.1067
     42 H15         6.5147   -0.4720   -0.0116 H         1 <0>         0.1481
     43 H16         8.7994   -1.3872   -0.0274 H         1 <0>         0.1462
     44 H17        10.3925    2.5711   -0.0512 H         1 <0>         0.1521
@<TRIPOS>BOND
     1    1    2 1
     2    1   28 1
     3    1   29 1
     4    1   30 1
     5    2    3 1
     6    2   31 1
     7    2   32 1
     8    3    4 2
     9    3    5 am
    10    5    6 1
    11    5   33 1
    12    6   11 ar
    13    6    7 ar
    14    7    8 ar
    15    7   34 1
    16    8    9 ar
    17    8   35 1
    18    9   10 ar
    19    9   12 1
    20   10   11 ar
    21   10   36 1
    22   11   37 1
    23   12   13 2
    24   12   14 am
    25   14   15 1
    26   14   38 1
    27   15   16 am
    28   15   39 1
    29   16   17 2
    30   16   18 1
    31   18   19 1
    32   18   40 1
    33   18   41 1
    34   19   20 1
    35   20   25 ar
    36   20   21 ar
    37   21   22 ar
    38   21   42 1
    39   22   23 ar
    40   22   43 1
    41   23   24 ar
    42   23   27 1
    43   24   25 ar
    44   24   44 1
    45   25   26 1
@<TRIPOS>MOLECULE
ZINC09375395
   58    60     0     0     0
SMALL
USER_CHARGES
(4R)-6-[2-(tert-butylamino)-2-oxo-ethyl]sulfanyl-5-cyano-N-(4-fluorophenyl)-4-(2-furyl)-2-methyl-1,4-dihydropyridine-3-carboxamide
@<TRIPOS>ATOM
      1 C1         -3.3657   -1.1684   -0.1016 C.3       1 <0>        -0.1386
      2 C2         -2.3595   -2.2885   -0.0388 C.2       1 <0>         0.1929
      3 C3         -1.0589   -2.0206   -0.2372 C.2       1 <0>        -0.2506
      4 C4         -0.0142   -3.0983   -0.1897 C.3       1 <0>         0.1432
      5 H1          0.2785   -3.3473   -1.2204 H         1 <0>         0.1177
      6 C5         -0.5537   -4.3372    0.4670 C.2       1 <0>        -0.1216
      7 C6         -1.8905   -4.5207    0.6367 C.2       1 <0>         0.1665
      8 N1         -2.7862   -3.5638    0.2145 N.pl3     1 <0>        -0.6507
      9 S1         -2.4808   -5.9935    1.4030 S.3       1 <0>         0.0447
     10 C7         -4.2630   -5.6815    1.3526 C.3       1 <0>        -0.1845
     11 C8         -4.9942   -6.8440    1.9730 C.2       1 <0>         0.5364
     12 O1         -4.3717   -7.7903    2.4065 O.2       1 <0>        -0.5133
     13 N2         -6.3399   -6.8321    2.0462 N.am      1 <0>        -0.7256
     14 C9         -7.0508   -7.9622    2.6493 C.3       1 <0>         0.1738
     15 C10        -6.6031   -8.1292    4.1027 C.3       1 <0>        -0.1686
     16 C11        -8.5573   -7.6984    2.6067 C.3       1 <0>        -0.1572
     17 C12        -6.7343   -9.2392    1.8682 C.3       1 <0>        -0.1687
     18 C13         0.3570   -5.3436    0.9234 C.1       1 <0>         0.2559
     19 N3          1.0795   -6.1420    1.2855 N.1       1 <0>        -0.4031
     20 C14         1.1754   -2.6014    0.5908 C.2       1 <0>        -0.0210
     21 C15         2.4176   -2.4268    0.1052 C.2       1 <0>        -0.1888
     22 C16         3.2117   -1.9502    1.1735 C.2       1 <0>        -0.2109
     23 C17         2.4072   -1.8621    2.2480 C.2       1 <0>        -0.0374
     24 O2          1.1737   -2.2523    1.8876 O.3       1 <0>        -0.1669
     25 C18        -0.6614   -0.6861   -0.4923 C.2       1 <0>         0.5911
     26 O3         -0.2512   -0.3732   -1.5954 O.2       1 <0>        -0.5131
     27 N4         -0.7368    0.2382    0.4857 N.am      1 <0>        -0.6821
     28 C19        -0.4721    1.5825    0.2001 C.ar      1 <0>         0.1404
     29 C20         0.5161    1.9170   -0.7164 C.ar      1 <0>        -0.0913
     30 C21         0.7725    3.2441   -1.0003 C.ar      1 <0>        -0.1346
     31 C22         0.0521    4.2410   -0.3640 C.ar      1 <0>         0.0817
     32 C23        -0.9301    3.9097    0.5541 C.ar      1 <0>        -0.1356
     33 C24        -1.1933    2.5838    0.8371 C.ar      1 <0>        -0.1180
     34 F1          0.3083    5.5387   -0.6390 F         1 <0>        -0.1403
     35 H2         -2.8475   -0.2214   -0.3130 H         1 <0>         0.0928
     36 H3         -3.8901   -1.0922    0.8623 H         1 <0>         0.0897
     37 H4         -4.0939   -1.3740   -0.9000 H         1 <0>         0.0881
     38 H5         -3.8461   -3.8259    0.0809 H         1 <0>         0.4397
     39 H6         -4.4905   -4.7634    1.9141 H         1 <0>         0.1264
     40 H7         -4.5848   -5.5614    0.3076 H         1 <0>         0.1230
     41 H8         -6.9045   -5.9738    1.6531 H         1 <0>         0.4216
     42 H9         -7.1369   -8.9777    4.5556 H         1 <0>         0.0662
     43 H10        -6.8306   -7.2111    4.6642 H         1 <0>         0.0551
     44 H11        -5.5200   -8.3189    4.1332 H         1 <0>         0.0788
     45 H12        -9.0911   -8.5469    3.0595 H         1 <0>         0.0764
     46 H13        -8.8791   -7.5783    1.5617 H         1 <0>         0.0638
     47 H14        -8.7848   -6.7803    3.1682 H         1 <0>         0.0636
     48 H15        -7.2681  -10.0878    2.3210 H         1 <0>         0.0662
     49 H16        -5.6512   -9.4288    1.8989 H         1 <0>         0.0789
     50 H17        -7.0561   -9.1191    0.8232 H         1 <0>         0.0554
     51 H18         2.7454   -2.6141   -0.9067 H         1 <0>         0.1477
     52 H19         4.2626   -1.7044    1.1345 H         1 <0>         0.1478
     53 H20         2.7021   -1.5291    3.2321 H         1 <0>         0.2019
     54 H21        -1.0064   -0.0640    1.5084 H         1 <0>         0.4358
     55 H22         1.0812    1.1400   -1.2096 H         1 <0>         0.1482
     56 H23         1.5381    3.5047   -1.7160 H         1 <0>         0.1379
     57 H24        -1.4905    4.6887    1.0496 H         1 <0>         0.1383
     58 H25        -1.9592    2.3258    1.5535 H         1 <0>         0.1348
@<TRIPOS>BOND
     1    1    2 1
     2    1   35 1
     3    1   36 1
     4    1   37 1
     5    2    8 1
     6    2    3 2
     7    3    4 1
     8    3   25 1
     9    4    5 1
    10    4    6 1
    11    4   20 1
    12    6    7 2
    13    6   18 1
    14    7    8 1
    15    7    9 1
    16    8   38 1
    17    9   10 1
    18   10   11 1
    19   10   39 1
    20   10   40 1
    21   11   12 2
    22   11   13 am
    23   13   14 1
    24   13   41 1
    25   14   15 1
    26   14   16 1
    27   14   17 1
    28   15   42 1
    29   15   43 1
    30   15   44 1
    31   16   45 1
    32   16   46 1
    33   16   47 1
    34   17   48 1
    35   17   49 1
    36   17   50 1
    37   18   19 3
    38   20   24 1
    39   20   21 2
    40   21   22 1
    41   21   51 1
    42   22   23 2
    43   22   52 1
    44   23   24 1
    45   23   53 1
    46   25   26 2
    47   25   27 am
    48   27   28 1
    49   27   54 1
    50   28   33 ar
    51   28   29 ar
    52   29   30 ar
    53   29   55 1
    54   30   31 ar
    55   30   56 1
    56   31   32 ar
    57   31   34 1
    58   32   33 ar
    59   32   57 1
    60   33   58 1
@<TRIPOS>MOLECULE
ZINC36597485
   67    70     0     0     0
SMALL
USER_CHARGES

@<TRIPOS>ATOM
      1 C1         -1.8906   -1.0356    0.9902 C.3       1 <0>        -0.1261
      2 C2         -0.4584   -1.4824    0.8473 C.ar      1 <0>        -0.0660
      3 C3         -0.1448   -2.5435    0.0183 C.ar      1 <0>        -0.1231
      4 C4          1.1686   -2.9533   -0.1127 C.ar      1 <0>        -0.0996
      5 C5          2.1689   -2.3018    0.5847 C.ar      1 <0>        -0.1205
      6 C6          1.8555   -1.2405    1.4127 C.ar      1 <0>        -0.0670
      7 C7          0.5422   -0.8278    1.5405 C.ar      1 <0>        -0.1067
      8 C8          0.2011    0.3328    2.4392 C.3       1 <0>         0.1788
      9 H1         -0.5208    0.9791    1.9399 H         1 <0>         0.1054
     10 C9          1.4515    1.1172    2.7431 C.2       1 <0>         0.5142
     11 O1          2.0491    0.9273    3.7812 O.2       1 <0>        -0.5062
     12 N1          1.9055    2.0298    1.8614 N.am      1 <0>        -0.7268
     13 C10         3.1809    2.7093    2.1018 C.3       1 <0>         0.1525
     14 C11         2.9513    3.9181    3.0112 C.3       1 <0>        -0.1271
     15 C12         4.2833    4.6278    3.2623 C.3       1 <0>        -0.1166
     16 C13         4.8706    5.0965    1.9295 C.3       1 <0>        -0.1222
     17 C14         5.1003    3.8877    1.0201 C.3       1 <0>        -0.1151
     18 C15         3.7683    3.1780    0.7690 C.3       1 <0>        -0.1264
     19 N2         -0.3757   -0.1700    3.6885 N.am      1 <0>        -0.5759
     20 C16        -0.3947   -1.6096    3.9593 C.3       1 <0>         0.1905
     21 C17         0.9174   -2.0222    4.5751 C.2       1 <0>        -0.0356
     22 C18         1.1598   -2.1610    5.8909 C.2       1 <0>        -0.1598
     23 C19         2.5103   -2.5594    6.0188 C.2       1 <0>        -0.2098
     24 C20         3.0124   -2.6402    4.7736 C.2       1 <0>        -0.0080
     25 O2          2.0415   -2.3194    3.9028 O.3       1 <0>        -0.1574
     26 C21         4.4235   -3.0301    4.4159 C.3       1 <0>        -0.0713
     27 C22        -0.8889    0.6919    4.5886 C.2       1 <0>         0.5916
     28 O3         -0.8732    1.8871    4.3638 O.2       1 <0>        -0.5172
     29 C23        -1.4687    0.1866    5.8442 C.ar      1 <0>        -0.1852
     30 C24        -0.6643    0.0361    6.9832 C.ar      1 <0>         0.1686
     31 C25        -1.2202   -0.4398    8.1597 C.ar      1 <0>        -0.1599
     32 C26        -2.5626   -0.7659    8.2133 C.ar      1 <0>        -0.0678
     33 C27        -3.3644   -0.6219    7.0964 C.ar      1 <0>        -0.1568
     34 C28        -2.8304   -0.1422    5.9113 C.ar      1 <0>         0.1520
     35 O4         -3.6207    0.0040    4.8185 O.3       1 <0>        -0.4864
     36 O5          0.6533    0.3549    6.9331 O.3       1 <0>        -0.4741
     37 H2         -2.0854   -0.2141    0.3007 H         1 <0>         0.0764
     38 H3         -2.5556   -1.8681    0.7606 H         1 <0>         0.0728
     39 H4         -2.0666   -0.7012    2.0126 H         1 <0>         0.0681
     40 H5         -0.9262   -3.0524   -0.5265 H         1 <0>         0.1263
     41 H6          1.4135   -3.7827   -0.7597 H         1 <0>         0.1244
     42 H7          3.1952   -2.6225    0.4829 H         1 <0>         0.1224
     43 H8          2.6369   -0.7318    1.9578 H         1 <0>         0.1212
     44 H9          1.3879    2.2366    1.0676 H         1 <0>         0.3975
     45 H10         3.8751    2.0198    2.5823 H         1 <0>         0.0837
     46 H11         2.2572    4.6076    2.5307 H         1 <0>         0.0621
     47 H12         2.5329    3.5842    3.9607 H         1 <0>         0.0679
     48 H13         4.1197    5.4889    3.9101 H         1 <0>         0.0640
     49 H14         4.9774    3.9383    3.7428 H         1 <0>         0.0626
     50 H15         4.1765    5.7860    1.4490 H         1 <0>         0.0626
     51 H16         5.8195    5.6021    2.1084 H         1 <0>         0.0637
     52 H17         5.5187    4.2216    0.0706 H         1 <0>         0.0672
     53 H18         5.7944    3.1982    1.5006 H         1 <0>         0.0641
     54 H19         3.9319    2.3168    0.1212 H         1 <0>         0.0678
     55 H20         3.0741    3.8675    0.2885 H         1 <0>         0.0679
     56 H21        -1.2075   -1.8390    4.6484 H         1 <0>         0.1017
     57 H22        -0.5450   -2.1529    3.0264 H         1 <0>         0.1017
     58 H23         0.4577   -1.9986    6.6953 H         1 <0>         0.1397
     59 H24         3.0377   -2.7599    6.9397 H         1 <0>         0.1396
     60 H25         4.4783   -4.1101    4.2786 H         1 <0>         0.0775
     61 H26         4.7151   -2.5311    3.4918 H         1 <0>         0.0708
     62 H27         5.0976   -2.7312    5.2186 H         1 <0>         0.0850
     63 H28        -0.6026   -0.5568    9.0379 H         1 <0>         0.1393
     64 H29        -2.9879   -1.1362    9.1344 H         1 <0>         0.1377
     65 H30        -4.4118   -0.8802    7.1490 H         1 <0>         0.1394
     66 H31        -3.6623   -0.7809    4.2552 H         1 <0>         0.3915
     67 H32         0.8445    1.2746    7.1627 H         1 <0>         0.3946
@<TRIPOS>BOND
     1    1    2 1
     2    1   37 1
     3    1   38 1
     4    1   39 1
     5    2    7 ar
     6    2    3 ar
     7    3    4 ar
     8    3   40 1
     9    4    5 ar
    10    4   41 1
    11    5    6 ar
    12    5   42 1
    13    6    7 ar
    14    6   43 1
    15    7    8 1
    16    8    9 1
    17    8   10 1
    18    8   19 1
    19   10   11 2
    20   10   12 am
    21   12   13 1
    22   12   44 1
    23   13   18 1
    24   13   14 1
    25   13   45 1
    26   14   15 1
    27   14   46 1
    28   14   47 1
    29   15   16 1
    30   15   48 1
    31   15   49 1
    32   16   17 1
    33   16   50 1
    34   16   51 1
    35   17   18 1
    36   17   52 1
    37   17   53 1
    38   18   54 1
    39   18   55 1
    40   19   20 1
    41   19   27 am
    42   20   21 1
    43   20   56 1
    44   20   57 1
    45   21   25 1
    46   21   22 2
    47   22   23 1
    48   22   58 1
    49   23   24 2
    50   23   59 1
    51   24   25 1
    52   24   26 1
    53   26   60 1
    54   26   61 1
    55   26   62 1
    56   27   28 2
    57   27   29 1
    58   29   34 ar
    59   29   30 ar
    60   30   31 ar
    61   30   36 1
    62   31   32 ar
    63   31   63 1
    64   32   33 ar
    65   32   64 1
    66   33   34 ar
    67   33   65 1
    68   34   35 1
    69   35   66 1
    70   36   67 1
@<TRIPOS>MOLECULE
ZINC21084841
   44    46     0     0     0
SMALL
USER_CHARGES

@<TRIPOS>ATOM
      1 C1          1.0724   -0.4529   -0.7656 C.ar      1 <0>        -0.1172
      2 C2          2.2565    0.2577   -0.7768 C.ar      1 <0>        -0.0636
      3 C3          2.3768    1.4160   -0.0302 C.ar      1 <0>        -0.1153
      4 C4          1.3120    1.8660    0.7296 C.ar      1 <0>        -0.0644
      5 C5          0.1255    1.1593    0.7451 C.ar      1 <0>        -0.1416
      6 C6          0.0017   -0.0036   -0.0037 C.ar      1 <0>         0.1651
      7 N1         -1.1994   -0.7216    0.0096 N.am      1 <0>        -0.6741
      8 C7         -1.1829   -2.0648   -0.0995 C.2       1 <0>         0.5210
      9 O1         -0.1257   -2.6592   -0.1129 O.2       1 <0>        -0.5045
     10 C8         -2.4780   -2.8282   -0.2047 C.3       1 <0>        -0.1255
     11 C9         -2.1801   -4.3247   -0.3170 C.3       1 <0>        -0.0883
     12 S1         -3.7390   -5.2437   -0.4437 S.3       1 <0>        -0.0012
     13 C10        -3.2328   -6.9271   -0.5644 C.2       1 <0>         0.2028
     14 N2         -4.0600   -8.0076   -0.6855 N.pl3     1 <0>        -0.6107
     15 H1         -5.0290   -7.9827   -0.7207 H         1 <0>         0.4226
     16 C11        -3.2823   -9.1300   -0.7492 C.2       1 <0>         0.5022
     17 N3         -2.0277   -8.7586   -0.6708 N.2       1 <0>        -0.3197
     18 N4         -1.9957   -7.3624   -0.5593 N.2       1 <0>        -0.2954
     19 N5         -3.7408  -10.4345   -0.8750 N.pl3     1 <0>        -0.5576
     20 N6         -2.8279  -11.4958   -0.9285 N.2       1 <0>        -0.2000
     21 C12        -3.2507  -12.6986   -1.0444 C.2       1 <0>         0.0889
     22 C13        -4.6974  -13.1359   -1.1423 C.3       1 <0>        -0.1305
     23 C14        -4.6927  -14.6743   -1.2584 C.3       1 <0>        -0.1187
     24 C15        -3.3349  -15.0866   -0.6353 C.3       1 <0>        -0.1229
     25 C16        -2.3943  -13.9505   -1.1159 C.3       1 <0>        -0.0633
     26 I1          4.1752    2.4904   -0.0497 I         1 <0>        -0.0411
     27 H2          0.9776   -1.3548   -1.3522 H         1 <0>         0.1430
     28 H3          3.0896   -0.0915   -1.3688 H         1 <0>         0.1337
     29 H4          1.4087    2.7706    1.3116 H         1 <0>         0.1342
     30 H5         -0.7052    1.5107    1.3391 H         1 <0>         0.1352
     31 H6         -2.0439   -0.2525    0.0974 H         1 <0>         0.4153
     32 H7         -3.0818   -2.6436    0.6837 H         1 <0>         0.1119
     33 H8         -3.0230   -2.4989   -1.0894 H         1 <0>         0.1130
     34 H9         -1.5763   -4.5094   -1.2055 H         1 <0>         0.1087
     35 H10        -1.6351   -4.6541    0.5676 H         1 <0>         0.1089
     36 H11        -4.6933  -10.6110   -0.9258 H         1 <0>         0.3962
     37 H12        -5.2399  -12.8315   -0.2473 H         1 <0>         0.0806
     38 H13        -5.1602  -12.6970   -2.0262 H         1 <0>         0.0806
     39 H14        -5.5197  -15.1035   -0.6929 H         1 <0>         0.0749
     40 H15        -4.7429  -14.9796   -2.3036 H         1 <0>         0.0750
     41 H16        -3.3983  -15.1083    0.4526 H         1 <0>         0.0749
     42 H17        -3.0063  -16.0502   -1.0248 H         1 <0>         0.0821
     43 H18        -2.0682  -14.1306   -2.1403 H         1 <0>         0.0960
     44 H19        -1.5346  -13.8621   -0.4517 H         1 <0>         0.0888
@<TRIPOS>BOND
     1    1    6 ar
     2    1    2 ar
     3    1   27 1
     4    2    3 ar
     5    2   28 1
     6    3    4 ar
     7    3   26 1
     8    4    5 ar
     9    4   29 1
    10    5    6 ar
    11    5   30 1
    12    6    7 1
    13    7    8 am
    14    7   31 1
    15    8    9 2
    16    8   10 1
    17   10   11 1
    18   10   32 1
    19   10   33 1
    20   11   12 1
    21   11   34 1
    22   11   35 1
    23   12   13 1
    24   13   18 2
    25   13   14 1
    26   14   15 1
    27   14   16 1
    28   16   17 2
    29   16   19 1
    30   17   18 1
    31   19   20 1
    32   19   36 1
    33   20   21 2
    34   21   25 1
    35   21   22 1
    36   22   23 1
    37   22   37 1
    38   22   38 1
    39   23   24 1
    40   23   39 1
    41   23   40 1
    42   24   25 1
    43   24   41 1
    44   24   42 1
    45   25   43 1
    46   25   44 1
@<TRIPOS>MOLECULE
ZINC11882483
   58    61     0     0     0
SMALL
USER_CHARGES
methyl (2S,4R)-4-[(1-hydroxynaphthalene-2-carbonyl)amino]-1-[[2-(trifluoromethyl)phenyl]methyl]pyrrolidine-2-carboxylate
@<TRIPOS>ATOM
      1 C1          5.4715    1.4089    2.0591 C.3       1 <0>         0.0316
      2 O1          4.3223    1.3803    1.1720 O.3       1 <0>        -0.3338
      3 C2          3.4614    0.3616    1.3225 C.2       1 <0>         0.4620
      4 O2          3.6614   -0.4785    2.1676 O.2       1 <0>        -0.4790
      5 C3          2.2454    0.2656    0.4376 C.3       1 <0>         0.0045
      6 H1          2.4890    0.5729   -0.5794 H         1 <0>         0.1866
      7 C4          1.0991    1.1321    1.0019 C.3       1 <0>        -0.1396
      8 C5         -0.1862    0.3242    0.7281 C.3       1 <0>         0.1363
      9 H2         -0.6856    0.0782    1.6653 H         1 <0>         0.1352
     10 C6          0.2917   -0.9625    0.0215 C.3       1 <0>        -0.0366
     11 C7          2.4453   -1.9764   -0.4912 C.3       1 <0>         0.0255
     12 C8          2.4538   -1.3384   -1.8564 C.ar      1 <0>        -0.1092
     13 C9          3.2844   -0.2630   -2.1117 C.ar      1 <0>        -0.1161
     14 C10         3.2922    0.3222   -3.3638 C.ar      1 <0>        -0.0717
     15 C11         2.4697   -0.1681   -4.3611 C.ar      1 <0>        -0.0820
     16 C12         1.6404   -1.2440   -4.1063 C.ar      1 <0>        -0.0571
     17 C13         1.6355   -1.8318   -2.8550 C.ar      1 <0>        -0.1557
     18 C14         0.7347   -3.0079   -2.5785 C.3       1 <0>         0.4995
     19 F1          0.0956   -3.3941   -3.7615 F         1 <0>        -0.1577
     20 F2          1.4971   -4.0747   -2.0906 F         1 <0>        -0.1664
     21 F3         -0.2249   -2.6468   -1.6266 F         1 <0>        -0.1754
     22 N1         -1.0862    1.0806   -0.1461 N.am      1 <0>        -0.7268
     23 C15        -2.4042    0.7993   -0.1618 C.2       1 <0>         0.5702
     24 O3         -2.8464   -0.0824    0.5496 O.2       1 <0>        -0.5057
     25 C16        -3.3092    1.5600   -1.0410 C.ar      1 <0>        -0.1917
     26 C17        -2.7932    2.5796   -1.8627 C.ar      1 <0>        -0.0847
     27 C18        -3.6055    3.2933   -2.6807 C.ar      1 <0>        -0.1123
     28 C19        -4.9873    3.0225   -2.7198 C.ar      1 <0>        -0.0156
     29 C20        -5.8434    3.7511   -3.5617 C.ar      1 <0>        -0.1177
     30 C21        -7.1753    3.4674   -3.5793 C.ar      1 <0>        -0.0893
     31 C22        -7.7050    2.4630   -2.7728 C.ar      1 <0>        -0.1145
     32 C23        -6.9049    1.7366   -1.9438 C.ar      1 <0>        -0.0875
     33 C24        -5.5265    2.0009   -1.9002 C.ar      1 <0>        -0.0929
     34 C25        -4.6697    1.2623   -1.0584 C.ar      1 <0>         0.2131
     35 O4         -5.1650    0.2772   -0.2718 O.3       1 <0>        -0.4714
     36 H3          5.1310    1.4636    3.0931 H         1 <0>         0.0779
     37 H4          6.0617    0.5034    1.9183 H         1 <0>         0.0766
     38 H5          6.0844    2.2811    1.8317 H         1 <0>         0.1215
     39 H6          1.0604    2.0914    0.4858 H         1 <0>         0.1341
     40 H7          1.2306    1.2827    2.0734 H         1 <0>         0.1212
     41 H8         -0.2998   -1.8178    0.3482 H         1 <0>         0.1607
     42 H9          0.2296   -0.8474   -1.0607 H         1 <0>         0.1471
     43 H10         3.4703   -2.0988   -0.1409 H         1 <0>         0.1526
     44 H11         1.9622   -2.9518   -0.5490 H         1 <0>         0.1512
     45 H12         3.9269    0.1200   -1.3327 H         1 <0>         0.1439
     46 H13         3.9405    1.1627   -3.5630 H         1 <0>         0.1525
     47 H14         2.4755    0.2894   -5.3394 H         1 <0>         0.1540
     48 H15         0.9982   -1.6272   -4.8855 H         1 <0>         0.1558
     49 H16        -0.7335    1.7838   -0.7135 H         1 <0>         0.4082
     50 H17        -1.7353    2.7962   -1.8417 H         1 <0>         0.1247
     51 H18        -3.1917    4.0718   -3.3045 H         1 <0>         0.1374
     52 H19        -5.4470    4.5328   -4.1927 H         1 <0>         0.1357
     53 H20        -7.8305    4.0298   -4.2280 H         1 <0>         0.1323
     54 H21        -8.7648    2.2577   -2.8048 H         1 <0>         0.1324
     55 H22        -7.3285    0.9605   -1.3236 H         1 <0>         0.1368
     56 H23        -5.4452    0.5765    0.6039 H         1 <0>         0.4026
     57 N2          1.6907   -1.0860    0.4462 N.4       1 <0>        -0.3779
     58 H24         1.7371   -1.4780    1.3941 H         1 <0>         0.4444
@<TRIPOS>BOND
     1    1    2 1
     2    1   36 1
     3    1   37 1
     4    1   38 1
     5    2    3 1
     6    3    4 2
     7    3    5 1
     8    5    6 1
     9    5    7 1
    10    5   57 1
    11    7    8 1
    12    7   39 1
    13    7   40 1
    14    8    9 1
    15    8   10 1
    16    8   22 1
    17   10   41 1
    18   10   42 1
    19   10   57 1
    20   11   12 1
    21   11   43 1
    22   11   44 1
    23   11   57 1
    24   12   17 ar
    25   12   13 ar
    26   13   14 ar
    27   13   45 1
    28   14   15 ar
    29   14   46 1
    30   15   16 ar
    31   15   47 1
    32   16   17 ar
    33   16   48 1
    34   17   18 1
    35   18   19 1
    36   18   20 1
    37   18   21 1
    38   22   23 am
    39   22   49 1
    40   23   24 2
    41   23   25 1
    42   25   34 ar
    43   25   26 ar
    44   26   27 ar
    45   26   50 1
    46   27   28 ar
    47   27   51 1
    48   28   33 ar
    49   28   29 ar
    50   29   30 ar
    51   29   52 1
    52   30   31 ar
    53   30   53 1
    54   31   32 ar
    55   31   54 1
    56   32   33 ar
    57   32   55 1
    58   33   34 ar
    59   34   35 1
    60   35   56 1
    61   57   58 1
@<TRIPOS>MOLECULE
ZINC22419261
   65    68     0     0     0
SMALL
USER_CHARGES
1-[(2S)-2-(3,4-dihydro-1H-isoquinolin-2-yl)-2-(4-dimethylaminophenyl)ethyl]-3-[(4-fluorophenyl)methyl]urea
@<TRIPOS>ATOM
      1 C1          3.2115    1.7400  -10.5638 C.3       1 <0>         0.0748
      2 N1          3.1955    2.4222   -9.2674 N.pl3     1 <0>        -0.6209
      3 C2          4.3514    3.2159   -8.8429 C.3       1 <0>         0.0746
      4 C3          2.0781    2.3158   -8.4361 C.ar      1 <0>         0.2542
      5 C4          0.9812    1.5637   -8.8370 C.ar      1 <0>        -0.2015
      6 C5         -0.1221    1.4610   -8.0128 C.ar      1 <0>        -0.0295
      7 C6         -0.1358    2.1059   -6.7896 C.ar      1 <0>        -0.2213
      8 C7          0.9521    2.8602   -6.3899 C.ar      1 <0>        -0.0506
      9 C8          2.0610    2.9624   -7.2067 C.ar      1 <0>        -0.1989
     10 C9         -1.3416    1.9916   -5.8929 C.3       1 <0>         0.0880
     11 H1         -1.9914    1.1775   -6.2464 H         1 <0>         0.1468
     12 C10        -0.8852    1.7427   -4.4539 C.3       1 <0>         0.1241
     13 N2         -2.0491    1.7505   -3.5642 N.am      1 <0>        -0.7744
     14 C11        -1.8874    1.5504   -2.2412 C.2       1 <0>         0.7101
     15 O1         -0.7755    1.3636   -1.7861 O.2       1 <0>        -0.5748
     16 N3         -2.9582    1.5575   -1.4228 N.am      1 <0>        -0.7459
     17 C12        -2.7824    1.3401    0.0153 C.3       1 <0>         0.1831
     18 C13        -4.1239    1.3960    0.6995 C.ar      1 <0>        -0.1276
     19 C14        -4.6045    2.5998    1.1803 C.ar      1 <0>        -0.0689
     20 C15        -5.8368    2.6530    1.8036 C.ar      1 <0>        -0.1560
     21 C16        -6.5855    1.4983    1.9558 C.ar      1 <0>         0.1143
     22 C17        -6.1008    0.2923    1.4785 C.ar      1 <0>        -0.1551
     23 C18        -4.8706    0.2424    0.8509 C.ar      1 <0>        -0.0681
     24 F1         -7.7882    1.5484    2.5692 F         1 <0>        -0.1334
     25 N4         -2.1160    3.2385   -5.9523 N.4       1 <0>        -0.3930
     26 C19        -2.6524    3.4623   -7.3042 C.3       1 <0>         0.0020
     27 C20        -3.7293    4.5447   -7.2260 C.3       1 <0>        -0.1050
     28 C21        -3.1992    5.7448   -6.4840 C.ar      1 <0>        -0.0923
     29 C22        -3.8749    6.9496   -6.6066 C.ar      1 <0>        -0.1049
     30 C23        -3.4281    8.0710   -5.9371 C.ar      1 <0>        -0.0955
     31 C24        -2.3008    7.9926   -5.1404 C.ar      1 <0>        -0.1044
     32 C25        -1.6264    6.7946   -5.0196 C.ar      1 <0>        -0.0957
     33 C26        -2.0734    5.6669   -5.6927 C.ar      1 <0>        -0.1239
     34 C27        -1.3014    4.3834   -5.5330 C.3       1 <0>         0.0306
     35 H2          2.2641    1.1993  -10.7053 H         1 <0>         0.0827
     36 H3          4.0485    1.0268  -10.5925 H         1 <0>         0.0670
     37 H4          3.3339    2.4816  -11.3669 H         1 <0>         0.0663
     38 H5          4.1551    3.6477   -7.8504 H         1 <0>         0.0824
     39 H6          4.5262    4.0253   -9.5670 H         1 <0>         0.0663
     40 H7          5.2408    2.5705   -8.7926 H         1 <0>         0.0672
     41 H8          0.9914    1.0594   -9.7920 H         1 <0>         0.1367
     42 H9         -0.9754    0.8767   -8.3240 H         1 <0>         0.1300
     43 H10         0.9363    3.3665   -5.4360 H         1 <0>         0.1285
     44 H11         2.9122    3.5480   -6.8920 H         1 <0>         0.1365
     45 H12        -0.3831    0.7659   -4.3923 H         1 <0>         0.1129
     46 H13        -0.1853    2.5346   -4.1490 H         1 <0>         0.0920
     47 H14        -3.0550    1.9197   -3.9759 H         1 <0>         0.4015
     48 H15        -3.9641    1.7265   -1.8346 H         1 <0>         0.4172
     49 H16        -2.3256    0.3537    0.1839 H         1 <0>         0.0800
     50 H17        -2.1279    2.1224    0.4271 H         1 <0>         0.0793
     51 H18        -4.0185    3.4996    1.0651 H         1 <0>         0.1341
     52 H19        -6.2138    3.5943    2.1755 H         1 <0>         0.1397
     53 H20        -6.6841   -0.6089    1.5964 H         1 <0>         0.1403
     54 H21        -4.4925   -0.6981    0.4782 H         1 <0>         0.1352
     55 H22        -1.8407    3.7879   -7.9714 H         1 <0>         0.1325
     56 H23        -3.0875    2.5268   -7.6856 H         1 <0>         0.1354
     57 H24        -4.0200    4.8468   -8.2430 H         1 <0>         0.1228
     58 H25        -4.6083    4.1498   -6.6954 H         1 <0>         0.1029
     59 H26        -4.7554    7.0108   -7.2289 H         1 <0>         0.1334
     60 H27        -3.9575    9.0072   -6.0355 H         1 <0>         0.1351
     61 H28        -1.9489    8.8672   -4.6134 H         1 <0>         0.1356
     62 H29        -0.7456    6.7346   -4.3974 H         1 <0>         0.1319
     63 H30        -1.0193    4.2653   -4.4764 H         1 <0>         0.1367
     64 H31        -0.3932    4.4334   -6.1516 H         1 <0>         0.1465
     65 H32        -2.9593    3.1409   -5.2527 H         1 <0>         0.4298
@<TRIPOS>BOND
     1    1    2 1
     2    1   35 1
     3    1   36 1
     4    1   37 1
     5    2    3 1
     6    2    4 1
     7    3   38 1
     8    3   39 1
     9    3   40 1
    10    4    9 ar
    11    4    5 ar
    12    5    6 ar
    13    5   41 1
    14    6    7 ar
    15    6   42 1
    16    7    8 ar
    17    7   10 1
    18    8    9 ar
    19    8   43 1
    20    9   44 1
    21   10   11 1
    22   10   12 1
    23   10   25 1
    24   12   13 1
    25   12   45 1
    26   12   46 1
    27   13   14 am
    28   13   47 1
    29   14   15 2
    30   14   16 am
    31   16   17 1
    32   16   48 1
    33   17   18 1
    34   17   49 1
    35   17   50 1
    36   18   23 ar
    37   18   19 ar
    38   19   20 ar
    39   19   51 1
    40   20   21 ar
    41   20   52 1
    42   21   22 ar
    43   21   24 1
    44   22   23 ar
    45   22   53 1
    46   23   54 1
    47   25   34 1
    48   25   26 1
    49   25   65 1
    50   26   27 1
    51   26   55 1
    52   26   56 1
    53   27   28 1
    54   27   57 1
    55   27   58 1
    56   28   33 ar
    57   28   29 ar
    58   29   30 ar
    59   29   59 1
    60   30   31 ar
    61   30   60 1
    62   31   32 ar
    63   31   61 1
    64   32   33 ar
    65   32   62 1
    66   33   34 1
    67   34   63 1
    68   34   64 1
@<TRIPOS>MOLECULE
ZINC39652835
   64    66     0     0     0
SMALL
USER_CHARGES

@<TRIPOS>ATOM
      1 C1         -0.5446    1.2430   -0.3674 C.3       1 <0>        -0.1545
      2 C2         -0.4116   -0.2799   -0.3027 C.3       1 <0>        -0.1257
      3 C3          0.3485   -0.6720    0.9659 C.3       1 <0>        -0.1011
      4 C4          0.4815   -2.1948    1.0306 C.3       1 <0>        -0.1064
      5 H1          0.9477   -2.5581    0.1148 H         1 <0>         0.1029
      6 C5         -0.9061   -2.8220    1.1800 C.3       1 <0>        -0.1518
      7 C6          1.3345   -2.5748    2.2134 C.2       1 <0>         0.5514
      8 O1          1.7911   -1.7125    2.9337 O.2       1 <0>        -0.5315
      9 N1          1.5899   -3.8729    2.4708 N.am      1 <0>        -0.6185
     10 C7          1.1302   -5.0576    1.7084 C.3       1 <0>         0.1148
     11 C8          2.3418   -6.0164    1.7090 C.3       1 <0>        -0.1165
     12 H2          2.0080   -7.0498    1.8029 H         1 <0>         0.1172
     13 C9          3.1663   -5.6061    2.9406 C.3       1 <0>        -0.0723
     14 C10         2.3996   -4.4377    3.5768 C.3       1 <0>         0.1053
     15 C11         4.5579   -5.1469    2.5159 C.3       1 <0>        -0.1459
     16 C12         5.3776   -4.7985    3.7616 C.3       1 <0>        -0.0093
     17 N2          5.4735   -5.9769    4.6317 N.4       1 <0>        -0.5043
     18 C13         4.1387   -6.3561    5.1104 C.3       1 <0>        -0.0102
     19 C14         3.2665   -6.7701    3.9217 C.3       1 <0>        -0.1335
     20 C15         3.1513   -5.8400    0.4502 C.2       1 <0>         0.5154
     21 O2          3.1888   -4.7599   -0.1002 O.2       1 <0>        -0.5154
     22 N3          3.8336   -6.8823   -0.0639 N.am      1 <0>        -0.7304
     23 C16         4.6206   -6.7108   -1.2876 C.3       1 <0>         0.1213
     24 C17         5.2904   -8.0368   -1.6533 C.3       1 <0>        -0.0897
     25 C18         6.0999   -7.8604   -2.9122 C.ar      1 <0>        -0.0772
     26 C19         5.5145   -8.0753   -4.1459 C.ar      1 <0>        -0.1058
     27 C20         6.2565   -7.9131   -5.3008 C.ar      1 <0>        -0.0859
     28 C21         7.5849   -7.5357   -5.2219 C.ar      1 <0>        -0.0882
     29 C22         8.1702   -7.3207   -3.9871 C.ar      1 <0>        -0.0881
     30 C23         7.4261   -7.4780   -2.8330 C.ar      1 <0>        -0.1085
     31 Br1         8.6006   -7.3142   -6.8014 Br        1 <0>        -0.0398
     32 H3          0.4476    1.6939   -0.3844 H         1 <0>         0.0546
     33 H4         -1.0861    1.5223   -1.2712 H         1 <0>         0.0570
     34 H5         -1.0899    1.5976    0.5072 H         1 <0>         0.0553
     35 H6         -1.4038   -0.7308   -0.2857 H         1 <0>         0.0652
     36 H7          0.1337   -0.6345   -1.1773 H         1 <0>         0.0621
     37 H8          1.3407   -0.2210    0.9489 H         1 <0>         0.0701
     38 H9         -0.1968   -0.3174    1.8405 H         1 <0>         0.0694
     39 H10        -0.8113   -3.9069    1.2261 H         1 <0>         0.0592
     40 H11        -1.3723   -2.4587    2.0958 H         1 <0>         0.0622
     41 H12        -1.5230   -2.5472    0.3245 H         1 <0>         0.0757
     42 H13         0.2780   -5.5217    2.2048 H         1 <0>         0.0902
     43 H14         0.8695   -4.7753    0.6884 H         1 <0>         0.0998
     44 H15         3.0951   -3.6906    3.9592 H         1 <0>         0.0870
     45 H16         1.7524   -4.8003    4.3755 H         1 <0>         0.0831
     46 H17         5.0533   -5.9474    1.9665 H         1 <0>         0.0941
     47 H18         4.4720   -4.2666    1.8789 H         1 <0>         0.1233
     48 H19         6.3779   -4.4858    3.4622 H         1 <0>         0.1382
     49 H20         4.8901   -3.9870    4.3018 H         1 <0>         0.1345
     50 H21         5.8740   -6.7443    4.1133 H         1 <0>         0.4271
     51 H22         4.2259   -7.1915    5.8051 H         1 <0>         0.1403
     52 H23         3.6807   -5.5077    5.6187 H         1 <0>         0.1330
     53 H24         2.2701   -7.0341    4.2761 H         1 <0>         0.1220
     54 H25         3.7153   -7.6290    3.4227 H         1 <0>         0.0972
     55 H26         3.8037   -7.7462    0.3764 H         1 <0>         0.4003
     56 H27         3.9649   -6.3986   -2.1005 H         1 <0>         0.0760
     57 H28         5.3845   -5.9506   -1.1247 H         1 <0>         0.0726
     58 H29         5.9461   -8.3490   -0.8405 H         1 <0>         0.0798
     59 H30         4.5265   -8.7970   -1.8162 H         1 <0>         0.0847
     60 H31         4.4774   -8.3703   -4.2074 H         1 <0>         0.1329
     61 H32         5.7992   -8.0813   -6.2646 H         1 <0>         0.1368
     62 H33         9.2074   -7.0260   -3.9250 H         1 <0>         0.1353
     63 H34         7.8818   -7.3063   -1.8691 H         1 <0>         0.1289
     64 H35         6.0643   -5.7632    5.4212 H         1 <0>         0.4344
@<TRIPOS>BOND
     1    1    2 1
     2    1   32 1
     3    1   33 1
     4    1   34 1
     5    2    3 1
     6    2   35 1
     7    2   36 1
     8    3    4 1
     9    3   37 1
    10    3   38 1
    11    4    5 1
    12    4    6 1
    13    4    7 1
    14    6   39 1
    15    6   40 1
    16    6   41 1
    17    7    8 2
    18    7    9 am
    19    9   14 1
    20    9   10 1
    21   10   11 1
    22   10   42 1
    23   10   43 1
    24   11   12 1
    25   11   13 1
    26   11   20 1
    27   13   19 1
    28   13   14 1
    29   13   15 1
    30   14   44 1
    31   14   45 1
    32   15   16 1
    33   15   46 1
    34   15   47 1
    35   16   17 1
    36   16   48 1
    37   16   49 1
    38   17   18 1
    39   17   50 1
    40   17   64 1
    41   18   19 1
    42   18   51 1
    43   18   52 1
    44   19   53 1
    45   19   54 1
    46   20   21 2
    47   20   22 am
    48   22   23 1
    49   22   55 1
    50   23   24 1
    51   23   56 1
    52   23   57 1
    53   24   25 1
    54   24   58 1
    55   24   59 1
    56   25   30 ar
    57   25   26 ar
    58   26   27 ar
    59   26   60 1
    60   27   28 ar
    61   27   61 1
    62   28   29 ar
    63   28   31 1
    64   29   30 ar
    65   29   62 1
    66   30   63 1
@<TRIPOS>MOLECULE
ZINC39677269
   65    68     0     0     0
SMALL
USER_CHARGES

@<TRIPOS>ATOM
      1 C1          1.8500    3.5771    4.8079 C.3       1 <0>        -0.1007
      2 C2          1.5421    3.6572    3.3349 C.2       1 <0>        -0.0926
      3 C3          1.9018    4.7732    2.6027 C.2       1 <0>        -0.1678
      4 C4          1.6100    4.8134    1.2797 C.2       1 <0>        -0.1491
      5 S1          0.8023    3.2407    1.0316 S.3       1 <0>         0.0633
      6 C5          0.9132    2.6338    2.7069 C.2       1 <0>        -0.1964
      7 C6          0.4313    1.3240    3.2756 C.3       1 <0>         0.2097
      8 N1         -0.9474    1.4743    3.7476 N.am      1 <0>        -0.7256
      9 C7         -1.5891    0.4252    4.2990 C.2       1 <0>         0.5170
     10 O1         -1.0251   -0.6433    4.4044 O.2       1 <0>        -0.5159
     11 C8         -3.0073    0.5798    4.7844 C.3       1 <0>        -0.1150
     12 H1         -3.5279    1.3371    4.1983 H         1 <0>         0.1178
     13 C9         -3.7540   -0.7705    4.7033 C.3       1 <0>         0.1156
     14 N2         -3.6179   -1.3555    6.0580 N.am      1 <0>        -0.6215
     15 C10        -3.7726   -0.2011    6.9753 C.3       1 <0>         0.1065
     16 C11        -3.0250    0.9519    6.2766 C.3       1 <0>        -0.0725
     17 C12        -3.7698    2.2671    6.4845 C.3       1 <0>        -0.1342
     18 C13        -3.7234    2.6458    7.9675 C.3       1 <0>        -0.0099
     19 N3         -2.3261    2.7783    8.3973 N.4       1 <0>        -0.5046
     20 C14        -1.6420    1.4848    8.2815 C.3       1 <0>        -0.0092
     21 C15        -1.6002    1.0570    6.8118 C.3       1 <0>        -0.1468
     22 C16        -3.4026   -2.6457    6.3829 C.2       1 <0>         0.5464
     23 O2         -3.3142   -2.9711    7.5479 O.2       1 <0>        -0.5312
     24 C17        -3.2716   -3.6840    5.2985 C.3       1 <0>        -0.1374
     25 C18        -3.0336   -5.0561    5.9322 C.3       1 <0>        -0.0975
     26 C19        -2.9006   -6.1102    4.8313 C.3       1 <0>        -0.0804
     27 C20        -2.6661   -7.4617    5.4556 C.ar      1 <0>        -0.0851
     28 C21        -1.3771   -7.8913    5.7099 C.ar      1 <0>        -0.1176
     29 C22        -1.1620   -9.1310    6.2825 C.ar      1 <0>        -0.1176
     30 C23        -2.2360   -9.9408    6.6012 C.ar      1 <0>        -0.1226
     31 C24        -3.5251   -9.5108    6.3477 C.ar      1 <0>        -0.1173
     32 C25        -3.7403   -8.2694    5.7790 C.ar      1 <0>        -0.1175
     33 H2          2.8339    3.1298    4.9496 H         1 <0>         0.0750
     34 H3          1.8415    4.5795    5.2359 H         1 <0>         0.0679
     35 H4          1.0974    2.9640    5.3036 H         1 <0>         0.0579
     36 H5          2.4074    5.6008    3.0779 H         1 <0>         0.1378
     37 H6          1.8131    5.5944    0.5619 H         1 <0>         0.1911
     38 H7          0.4691    0.5564    2.5027 H         1 <0>         0.0871
     39 H8          1.0708    1.0325    4.1088 H         1 <0>         0.0913
     40 H9         -1.3984    2.3289    3.6633 H         1 <0>         0.4021
     41 H10        -4.8048   -0.6099    4.4625 H         1 <0>         0.0903
     42 H11        -3.2879   -1.4185    3.9610 H         1 <0>         0.0990
     43 H12        -4.8264    0.0490    7.0977 H         1 <0>         0.0833
     44 H13        -3.3177   -0.4194    7.9416 H         1 <0>         0.0871
     45 H14        -3.2958    3.0510    5.8938 H         1 <0>         0.0971
     46 H15        -4.8072    2.1513    6.1708 H         1 <0>         0.1221
     47 H16        -4.2406    3.5937    8.1164 H         1 <0>         0.1401
     48 H17        -4.2123    1.8694    8.5559 H         1 <0>         0.1332
     49 H18        -1.8595    3.4574    7.8150 H         1 <0>         0.4271
     50 H19        -0.6247    1.5767    8.6619 H         1 <0>         0.1382
     51 H20        -2.1803    0.7360    8.8624 H         1 <0>         0.1347
     52 H21        -1.1079    0.0880    6.7287 H         1 <0>         0.1235
     53 H22        -1.0477    1.7971    6.2329 H         1 <0>         0.0947
     54 H23        -4.1875   -3.7104    4.7082 H         1 <0>         0.0950
     55 H24        -2.4305   -3.4311    4.6530 H         1 <0>         0.1013
     56 H25        -2.1176   -5.0297    6.5225 H         1 <0>         0.0716
     57 H26        -3.8747   -5.3090    6.5778 H         1 <0>         0.0718
     58 H27        -3.8165   -6.1366    4.2410 H         1 <0>         0.0735
     59 H28        -2.0595   -5.8573    4.1858 H         1 <0>         0.0737
     60 H29        -0.5380   -7.2586    5.4609 H         1 <0>         0.1199
     61 H30        -0.1549   -9.4669    6.4805 H         1 <0>         0.1223
     62 H31        -2.0680  -10.9096    7.0479 H         1 <0>         0.1224
     63 H32        -4.3642  -10.1437    6.5963 H         1 <0>         0.1226
     64 H33        -4.7476   -7.9319    5.5844 H         1 <0>         0.1204
     65 H34        -2.2988    3.0870    9.3575 H         1 <0>         0.4343
@<TRIPOS>BOND
     1    1    2 1
     2    1   33 1
     3    1   34 1
     4    1   35 1
     5    2    6 2
     6    2    3 1
     7    3    4 2
     8    3   36 1
     9    4    5 1
    10    4   37 1
    11    5    6 1
    12    6    7 1
    13    7    8 1
    14    7   38 1
    15    7   39 1
    16    8    9 am
    17    8   40 1
    18    9   10 2
    19    9   11 1
    20   11   12 1
    21   11   16 1
    22   11   13 1
    23   13   14 1
    24   13   41 1
    25   13   42 1
    26   14   15 1
    27   14   22 am
    28   15   16 1
    29   15   43 1
    30   15   44 1
    31   16   21 1
    32   16   17 1
    33   17   18 1
    34   17   45 1
    35   17   46 1
    36   18   19 1
    37   18   47 1
    38   18   48 1
    39   19   20 1
    40   19   49 1
    41   19   65 1
    42   20   21 1
    43   20   50 1
    44   20   51 1
    45   21   52 1
    46   21   53 1
    47   22   23 2
    48   22   24 1
    49   24   25 1
    50   24   54 1
    51   24   55 1
    52   25   26 1
    53   25   56 1
    54   25   57 1
    55   26   27 1
    56   26   58 1
    57   26   59 1
    58   27   32 ar
    59   27   28 ar
    60   28   29 ar
    61   28   60 1
    62   29   30 ar
    63   29   61 1
    64   30   31 ar
    65   30   62 1
    66   31   32 ar
    67   31   63 1
    68   32   64 1
@<TRIPOS>MOLECULE
ZINC63098799
   64    68     0     0     0
SMALL
USER_CHARGES

@<TRIPOS>ATOM
      1 C1          0.6759    1.1526   -0.0757 C.3       1 <0>         0.1092
      2 N1          0.5221   -0.3038   -0.0375 N.pl3     1 <0>        -0.6352
      3 C2         -0.7597   -1.0136   -0.0632 C.3       1 <0>         0.1300
      4 C3         -0.3950   -2.5061   -0.0049 C.3       1 <0>        -0.0250
      5 H1         -0.7492   -3.0193   -0.8989 H         1 <0>         0.0987
      6 C4          1.1160   -2.5258    0.0512 C.ar      1 <0>        -0.1728
      7 C5          1.5752   -1.2179    0.0227 C.ar      1 <0>         0.2013
      8 C6          2.9509   -0.9819    0.0594 C.ar      1 <0>        -0.1806
      9 C7          3.8360   -2.0373    0.1185 C.ar      1 <0>        -0.0660
     10 C8          3.3678   -3.3380    0.1422 C.ar      1 <0>        -0.1715
     11 C9          2.0066   -3.5797    0.1153 C.ar      1 <0>        -0.0513
     12 C10        -0.9780   -3.1419    1.2308 C.2       1 <0>        -0.0885
     13 C11        -1.9181   -4.0833    1.1172 C.2       1 <0>         0.0752
     14 C12        -2.5723   -4.6223    2.3250 C.2       1 <0>         0.5586
     15 O1         -3.4283   -5.4796    2.2215 O.2       1 <0>        -0.5061
     16 N2         -2.2209   -4.1645    3.5429 N.am      1 <0>        -0.7322
     17 C13        -2.8703   -4.6997    4.7421 C.3       1 <0>         0.1290
     18 C14        -2.2929   -4.0159    5.9830 C.3       1 <0>        -0.1059
     19 C15        -2.9610   -4.5664    7.2165 C.2       1 <0>         0.0707
     20 C16        -2.5102   -5.5665    8.0078 C.ar      1 <0>        -0.1666
     21 C17        -1.3096   -6.4094    7.9582 C.ar      1 <0>        -0.0115
     22 C18        -1.1285   -7.3499    8.9130 C.ar      1 <0>        -0.1508
     23 C19        -2.0566   -7.5397    9.9460 C.ar      1 <0>         0.0560
     24 C20        -3.1831   -6.8045   10.0585 C.ar      1 <0>        -0.2108
     25 C21        -3.4747   -5.7865    9.1092 C.ar      1 <0>         0.3281
     26 N3         -4.4825   -4.9549    9.0029 N.pl3     1 <0>        -0.5855
     27 C22        -4.2680   -4.1082    7.8240 C.3       1 <0>         0.0607
     28 N4         -2.2832   -4.5590   -0.1482 N.am      1 <0>        -0.6702
     29 C23        -2.1777   -5.8726   -0.4306 C.2       1 <0>         0.5732
     30 O2         -1.6826   -6.6308    0.3805 O.2       1 <0>        -0.5090
     31 C24        -2.6639   -6.3914   -1.7265 C.ar      1 <0>        -0.1390
     32 C25        -3.2277   -5.5226   -2.6624 C.ar      1 <0>        -0.0869
     33 C26        -3.6795   -6.0134   -3.8699 C.ar      1 <0>        -0.1254
     34 C27        -3.5753   -7.3635   -4.1541 C.ar      1 <0>        -0.0877
     35 C28        -3.0176   -8.2301   -3.2309 C.ar      1 <0>        -0.1251
     36 C29        -2.5561   -7.7514   -2.0221 C.ar      1 <0>        -0.0560
     37 H2          1.7355    1.4068   -0.0494 H         1 <0>         0.0762
     38 H3          0.2317    1.5409   -0.9922 H         1 <0>         0.0577
     39 H4          0.1750    1.5936    0.7861 H         1 <0>         0.0562
     40 H5         -1.3623   -0.7374    0.8021 H         1 <0>         0.0705
     41 H6         -1.2966   -0.7913   -0.9854 H         1 <0>         0.0736
     42 H7          3.3232    0.0318    0.0412 H         1 <0>         0.1184
     43 H8          4.8988   -1.8474    0.1459 H         1 <0>         0.1254
     44 H9          4.0633   -4.1629    0.1881 H         1 <0>         0.1237
     45 H10         1.6393   -4.5952    0.1324 H         1 <0>         0.1183
     46 H11        -0.6354   -2.8361    2.2083 H         1 <0>         0.1342
     47 H12        -1.5379   -3.4806    3.6255 H         1 <0>         0.4040
     48 H13        -3.9426   -4.5113    4.6892 H         1 <0>         0.0794
     49 H14        -2.6926   -5.7734    4.8030 H         1 <0>         0.0812
     50 H15        -1.2206   -4.2043    6.0358 H         1 <0>         0.1171
     51 H16        -2.4707   -2.9422    5.9221 H         1 <0>         0.1194
     52 H17        -0.5818   -6.2806    7.1707 H         1 <0>         0.1612
     53 H18        -0.2458   -7.9712    8.8784 H         1 <0>         0.1585
     54 H19        -1.8627   -8.3059   10.6821 H         1 <0>         0.1613
     55 H20        -3.8668   -6.9906   10.8735 H         1 <0>         0.1608
     56 H21        -4.1987   -3.0610    8.1185 H         1 <0>         0.1750
     57 H22        -5.0819   -4.2458    7.1121 H         1 <0>         0.1743
     58 H23        -2.6121   -3.9431   -0.8216 H         1 <0>         0.4105
     59 H24        -3.3102   -4.4687   -2.4415 H         1 <0>         0.1231
     60 H25        -4.1159   -5.3423   -4.5949 H         1 <0>         0.1318
     61 H26        -3.9313   -7.7427   -5.1006 H         1 <0>         0.1311
     62 H27        -2.9395   -9.2828   -3.4587 H         1 <0>         0.1332
     63 H28        -2.1166   -8.4281   -1.3042 H         1 <0>         0.1363
     64 H29        -5.2412   -4.9050    9.6052 H         1 <0>         0.4561
@<TRIPOS>BOND
     1    1    2 1
     2    1   37 1
     3    1   38 1
     4    1   39 1
     5    2    7 1
     6    2    3 1
     7    3    4 1
     8    3   40 1
     9    3   41 1
    10    4    5 1
    11    4    6 1
    12    4   12 1
    13    6   11 ar
    14    6    7 ar
    15    7    8 ar
    16    8    9 ar
    17    8   42 1
    18    9   10 ar
    19    9   43 1
    20   10   11 ar
    21   10   44 1
    22   11   45 1
    23   12   13 2
    24   12   46 1
    25   13   14 1
    26   13   28 1
    27   14   15 2
    28   14   16 am
    29   16   17 1
    30   16   47 1
    31   17   18 1
    32   17   48 1
    33   17   49 1
    34   18   19 1
    35   18   50 1
    36   18   51 1
    37   19   27 1
    38   19   20 2
    39   20   25 ar
    40   20   21 ar
    41   21   22 ar
    42   21   52 1
    43   22   23 ar
    44   22   53 1
    45   23   24 ar
    46   23   54 1
    47   24   25 ar
    48   24   55 1
    49   25   26 2
    50   26   27 1
    51   26   64 1
    52   27   56 1
    53   27   57 1
    54   28   29 am
    55   28   58 1
    56   29   30 2
    57   29   31 1
    58   31   36 ar
    59   31   32 ar
    60   32   33 ar
    61   32   59 1
    62   33   34 ar
    63   33   60 1
    64   34   35 ar
    65   34   61 1
    66   35   36 ar
    67   35   62 1
    68   36   63 1
@<TRIPOS>MOLECULE
ZINC01182620
   47    48     0     0     0
SMALL
USER_CHARGES
N-[(2-hydroxy-5-tert-butyl-phenyl)thiocarbamoyl]-3-methoxy-benzamide
@<TRIPOS>ATOM
      1 C1          0.1860   13.8401   -0.2045 C.3       1 <0>        -0.1459
      2 C2         -0.1364   12.3481   -0.1002 C.3       1 <0>        -0.0255
      3 C3         -1.0135   11.9320   -1.2827 C.3       1 <0>        -0.1401
      4 C4         -0.8822   12.0778    1.2081 C.3       1 <0>        -0.1399
      5 C5          1.1447   11.5547   -0.1214 C.ar      1 <0>        -0.0719
      6 C6          2.3590   12.2082   -0.2236 C.ar      1 <0>        -0.0928
      7 C7          3.5375   11.4856   -0.2444 C.ar      1 <0>        -0.1394
      8 C8          3.5043   10.1030   -0.1627 C.ar      1 <0>         0.1011
      9 C9          2.2813    9.4440   -0.0592 C.ar      1 <0>         0.0923
     10 C10         1.1026   10.1755   -0.0442 C.ar      1 <0>        -0.0471
     11 N1          2.2416    8.0461    0.0238 N.pl3     1 <0>        -0.6147
     12 C11         1.3911    7.3487   -0.7552 C.2       1 <0>         0.5089
     13 S1          0.2826    8.1745   -1.7652 S.2       1 <0>        -0.4829
     14 N2          1.4134    6.0013   -0.7390 N.am      1 <0>        -0.6387
     15 C12         0.5629    5.3039   -1.5180 C.2       1 <0>         0.5362
     16 O1         -0.2240    5.8900   -2.2350 O.2       1 <0>        -0.3945
     17 C13         0.5873    3.8263   -1.5003 C.ar      1 <0>        -0.0970
     18 C14         1.4904    3.1502   -0.6774 C.ar      1 <0>        -0.1295
     19 C15         1.5101    1.7709   -0.6631 C.ar      1 <0>        -0.0814
     20 C16         0.6376    1.0542   -1.4617 C.ar      1 <0>        -0.1796
     21 C17        -0.2602    1.7175   -2.2869 C.ar      1 <0>         0.1271
     22 C18        -0.2923    3.1018   -2.3053 C.ar      1 <0>        -0.0861
     23 O2         -1.1117    1.0078   -3.0734 O.3       1 <0>        -0.3115
     24 C19        -1.0277   -0.4168   -3.0000 C.3       1 <0>         0.0247
     25 O3          4.6626    9.3910   -0.1839 O.3       1 <0>        -0.4979
     26 H1          0.7174   14.0328   -1.1366 H         1 <0>         0.0596
     27 H2         -0.7405   14.4140   -0.1892 H         1 <0>         0.0602
     28 H3          0.8110   14.1366    0.6379 H         1 <0>         0.0585
     29 H4         -1.2432   10.8691   -1.2084 H         1 <0>         0.0656
     30 H5         -1.9401   12.5059   -1.2674 H         1 <0>         0.0565
     31 H6         -0.4822   12.1246   -2.2147 H         1 <0>         0.0566
     32 H7         -0.2572   12.3742    2.0505 H         1 <0>         0.0559
     33 H8         -1.8087   12.6516    1.2233 H         1 <0>         0.0604
     34 H9         -1.1118   11.0148    1.2824 H         1 <0>         0.0564
     35 H10         2.3869   13.2859   -0.2878 H         1 <0>         0.1353
     36 H11         4.4843   11.9991   -0.3248 H         1 <0>         0.1344
     37 H12         0.1526    9.6674    0.0311 H         1 <0>         0.1478
     38 H13         2.8261    7.5802    0.6420 H         1 <0>         0.4103
     39 H14         2.0415    5.5334   -0.1667 H         1 <0>         0.4099
     40 H15         2.1734    3.7068   -0.0528 H         1 <0>         0.1244
     41 H16         2.2093    1.2490   -0.0265 H         1 <0>         0.1357
     42 H17         0.6579   -0.0255   -1.4465 H         1 <0>         0.1367
     43 H18        -0.9931    3.6190   -2.9439 H         1 <0>         0.1498
     44 H19        -0.0267   -0.7371   -3.2887 H         1 <0>         0.0582
     45 H20        -1.2327   -0.7408   -1.9796 H         1 <0>         0.0583
     46 H21        -1.7598   -0.8592   -3.6756 H         1 <0>         0.1052
     47 H22         4.9503    9.1344   -1.0708 H         1 <0>         0.3908
@<TRIPOS>BOND
     1    1    2 1
     2    1   26 1
     3    1   27 1
     4    1   28 1
     5    2    3 1
     6    2    4 1
     7    2    5 1
     8    3   29 1
     9    3   30 1
    10    3   31 1
    11    4   32 1
    12    4   33 1
    13    4   34 1
    14    5   10 ar
    15    5    6 ar
    16    6    7 ar
    17    6   35 1
    18    7    8 ar
    19    7   36 1
    20    8    9 ar
    21    8   25 1
    22    9   10 ar
    23    9   11 1
    24   10   37 1
    25   11   12 1
    26   11   38 1
    27   12   13 2
    28   12   14 1
    29   14   15 am
    30   14   39 1
    31   15   16 2
    32   15   17 1
    33   17   22 ar
    34   17   18 ar
    35   18   19 ar
    36   18   40 1
    37   19   20 ar
    38   19   41 1
    39   20   21 ar
    40   20   42 1
    41   21   22 ar
    42   21   23 1
    43   22   43 1
    44   23   24 1
    45   24   44 1
    46   24   45 1
    47   24   46 1
    48   25   47 1
@<TRIPOS>MOLECULE
ZINC13657724
   48    51     0     0     0
SMALL
USER_CHARGES
1-[(2-hydroxy-3-methoxy-phenyl)methyleneamino]-3-BLAHyl-thiourea
@<TRIPOS>ATOM
      1 C1          4.7859    0.2004   -0.0870 C.3       1 <0>         0.0211
      2 O1          3.6071   -0.6072   -0.0714 O.3       1 <0>        -0.3038
      3 C2          2.4131    0.0436   -0.0479 C.ar      1 <0>         0.0773
      4 C3          2.3791    1.4295   -0.0396 C.ar      1 <0>        -0.1438
      5 C4          1.1679    2.0987   -0.0162 C.ar      1 <0>        -0.1301
      6 C5         -0.0170    1.3931    0.0000 C.ar      1 <0>        -0.0739
      7 C6          0.0020   -0.0040   -0.0076 C.ar      1 <0>        -0.1495
      8 C7          1.2275   -0.6806   -0.0318 C.ar      1 <0>         0.1926
      9 O2          1.2572   -2.0394   -0.0399 O.3       1 <0>        -0.5073
     10 C8         -1.2622   -0.7619    0.0092 C.2       1 <0>         0.1930
     11 N1         -1.2410   -2.0596    0.0020 N.2       1 <0>        -0.3324
     12 N2         -2.4425   -2.7799    0.0180 N.pl3     1 <0>        -0.5421
     13 C9         -2.4204   -4.1275    0.0105 C.2       1 <0>         0.5865
     14 S1         -3.8887   -5.0078    0.0301 S.2       1 <0>        -0.6090
     15 N3         -1.2425   -4.7821   -0.0123 N.pl3     1 <0>        -0.6745
     16 C10        -1.2186   -6.2469   -0.0204 C.3       1 <0>         0.1341
     17 H1         -2.0648   -6.4970    0.6364 H         1 <0>         0.1245
     18 C11         0.1586   -6.7795    0.4606 C.3       1 <0>        -0.1325
     19 C12         0.6381   -7.7855   -0.6109 C.3       1 <0>        -0.0879
     20 H2          1.4428   -8.4163   -0.2054 H         1 <0>         0.1012
     21 C13        -0.7797   -8.2547   -1.1658 C.3       1 <0>        -0.1054
     22 C14        -1.2976   -6.8025   -1.4986 C.3       1 <0>        -0.0834
     23 H3         -2.2071   -6.7236   -2.1122 H         1 <0>         0.1165
     24 C15        -0.0711   -6.0641   -2.0795 C.3       1 <0>        -0.0552
     25 H4         -0.1175   -5.0507   -1.6543 H         1 <0>         0.1019
     26 C16         1.0564   -7.1629   -1.8727 C.3       1 <0>        -0.1447
     27 H5          1.4265   -8.1495   -2.1883 H         1 <0>         0.1003
     28 C17         2.1516   -6.4379   -2.5435 C.3       1 <0>        -0.0738
     29 C18         1.4026   -6.0085   -3.8262 C.2       1 <0>        -0.1741
     30 C19         0.1022   -5.8508   -3.5486 C.2       1 <0>        -0.1748
     31 H6          5.6743   -0.4480   -0.1053 H         1 <0>         0.1040
     32 H7          4.8105    0.8307    0.8142 H         1 <0>         0.0570
     33 H8          4.7803    0.8401   -0.9818 H         1 <0>         0.0570
     34 H9          3.3024    1.9898   -0.0522 H         1 <0>         0.1393
     35 H10         1.1505    3.1785   -0.0106 H         1 <0>         0.1354
     36 H11        -0.9594    1.9204    0.0142 H         1 <0>         0.1362
     37 H12         0.3170   -2.6102   -0.0271 H         1 <0>         0.4180
     38 H13        -2.2236   -0.2276    0.0278 H         1 <0>         0.1475
     39 H14        -3.4039   -2.2456    0.0367 H         1 <0>         0.4502
     40 H15        -0.2991   -4.2166   -0.0248 H         1 <0>         0.4132
     41 H16         0.8634   -5.9403    0.5556 H         1 <0>         0.0685
     42 H17         0.0407   -7.2716    1.4373 H         1 <0>         0.0804
     43 H18        -0.6334   -8.9230   -2.0272 H         1 <0>         0.0745
     44 H19        -1.3242   -8.7906   -0.3743 H         1 <0>         0.0813
     45 H20         2.4823   -5.6034   -1.9077 H         1 <0>         0.0684
     46 H21         2.9941   -7.1239   -2.7156 H         1 <0>         0.0646
     47 H22         1.7724   -5.8323   -4.8471 H         1 <0>         0.1270
     48 H23        -0.6067   -5.6083   -4.3540 H         1 <0>         0.1266
@<TRIPOS>BOND
     1    1    2 1
     2    1   31 1
     3    1   32 1
     4    1   33 1
     5    2    3 1
     6    3    8 ar
     7    3    4 ar
     8    4    5 ar
     9    4   34 1
    10    5    6 ar
    11    5   35 1
    12    6    7 ar
    13    6   36 1
    14    7    8 ar
    15    7   10 1
    16    8    9 1
    17    9   37 1
    18   10   11 2
    19   10   38 1
    20   11   12 1
    21   12   13 1
    22   12   39 1
    23   13   14 2
    24   13   15 1
    25   15   16 1
    26   15   40 1
    27   16   17 1
    28   16   22 1
    29   16   18 1
    30   18   19 1
    31   18   41 1
    32   18   42 1
    33   19   20 1
    34   19   26 1
    35   19   21 1
    36   21   22 1
    37   21   43 1
    38   21   44 1
    39   22   23 1
    40   22   24 1
    41   24   25 1
    42   24   30 1
    43   24   26 1
    44   26   27 1
    45   26   28 1
    46   28   29 1
    47   28   45 1
    48   28   46 1
    49   29   30 2
    50   29   47 1
    51   30   48 1
@<TRIPOS>MOLECULE
ZINC42360487
   53    55     0     0     0
SMALL
USER_CHARGES

@<TRIPOS>ATOM
      1 C1         -0.0187    1.5258    0.0104 C.3       1 <0>        -0.1595
      2 C2          0.0021   -0.0041    0.0020 C.3       1 <0>         0.1840
      3 H1          0.5123   -0.3556   -0.8948 H         1 <0>         0.0987
      4 C3          0.7309   -0.5033    1.2229 C.ar      1 <0>        -0.0915
      5 C4          0.0655   -0.5546    2.4465 C.ar      1 <0>        -0.1135
      6 C5          0.6947   -0.9998    3.5682 C.ar      1 <0>        -0.0973
      7 C6          2.0353   -1.4152    3.4950 C.ar      1 <0>        -0.0517
      8 C7          2.7180   -1.8814    4.6315 C.ar      1 <0>        -0.1070
      9 C8          4.0160   -2.2758    4.5227 C.ar      1 <0>        -0.1138
     10 C9          4.6813   -2.2248    3.2990 C.ar      1 <0>        -0.1137
     11 C10         4.0522   -1.7791    2.1775 C.ar      1 <0>        -0.1060
     12 C11         2.7117   -1.3634    2.2508 C.ar      1 <0>        -0.0483
     13 C12         2.0274   -0.9025    1.1131 C.ar      1 <0>        -0.0897
     14 N1         -1.3723   -0.5112    0.0124 N.am      1 <0>        -0.7203
     15 C13        -2.0508   -0.6427   -1.1446 C.2       1 <0>         0.5134
     16 O1         -1.5236   -0.3413   -2.1944 O.2       1 <0>        -0.5276
     17 C14        -3.4646   -1.1643   -1.1339 C.3       1 <0>         0.1333
     18 H2         -4.0912   -0.5035   -0.5349 H         1 <0>         0.1064
     19 C15        -3.4849   -2.5707   -0.5316 C.3       1 <0>        -0.1675
     20 N2         -3.9776   -1.2130   -2.5053 N.pl3     1 <0>        -0.7286
     21 C16        -5.3534   -1.1483   -2.7393 C.ar      1 <0>         0.2148
     22 C17        -6.2355   -1.0319   -1.6710 C.ar      1 <0>        -0.1774
     23 C18        -7.5973   -0.9670   -1.8973 C.ar      1 <0>        -0.0766
     24 C19        -8.0909   -1.0173   -3.1854 C.ar      1 <0>        -0.1460
     25 C20        -7.2138   -1.1342   -4.2648 C.ar      1 <0>        -0.0874
     26 C21        -5.8389   -1.1944   -4.0370 C.ar      1 <0>        -0.1309
     27 C22        -7.7401   -1.1888   -5.6455 C.2       1 <0>         0.5560
     28 O2         -6.9745   -1.2905   -6.5841 O.2       1 <0>        -0.5335
     29 N3         -9.0686   -1.1257   -5.8633 N.am      1 <0>        -0.7311
     30 C23        -9.5900   -1.1798   -7.2314 C.3       1 <0>         0.0863
     31 H3          1.0039    1.9031    0.0027 H         1 <0>         0.0701
     32 H4         -0.5459    1.8868   -0.8726 H         1 <0>         0.0662
     33 H5         -0.5289    1.8773    0.9072 H         1 <0>         0.0605
     34 H6         -0.9647   -0.2359    2.5055 H         1 <0>         0.1212
     35 H7          0.1666   -1.0333    4.5097 H         1 <0>         0.1300
     36 H8          2.2153   -1.9261    5.5864 H         1 <0>         0.1281
     37 H9          4.5384   -2.6333    5.3977 H         1 <0>         0.1246
     38 H10         5.7115   -2.5433    3.2400 H         1 <0>         0.1249
     39 H11         4.5805   -1.7448    1.2361 H         1 <0>         0.1284
     40 H12         2.5288   -0.8616    0.1574 H         1 <0>         0.1300
     41 H13        -1.7940   -0.7522    0.8520 H         1 <0>         0.4015
     42 H14        -2.8583   -3.2315   -1.1306 H         1 <0>         0.0675
     43 H15        -3.1032   -2.5344    0.4887 H         1 <0>         0.0699
     44 H16        -4.5074   -2.9479   -0.5239 H         1 <0>         0.0756
     45 H17        -3.3620   -1.2902   -3.2510 H         1 <0>         0.4120
     46 H18        -5.8553   -0.9924   -0.6609 H         1 <0>         0.1255
     47 H19        -8.2777   -0.8769   -1.0635 H         1 <0>         0.1289
     48 H20        -9.1558   -0.9667   -3.3579 H         1 <0>         0.1223
     49 H21        -5.1552   -1.2807   -4.8686 H         1 <0>         0.1353
     50 H22        -9.6796   -1.0445   -5.1143 H         1 <0>         0.4025
     51 H23       -10.6779   -1.1158   -7.2084 H         1 <0>         0.0775
     52 H24        -9.1890   -0.3451   -7.8063 H         1 <0>         0.0617
     53 H25        -9.2910   -2.1188   -7.6973 H         1 <0>         0.0617
@<TRIPOS>BOND
     1    1    2 1
     2    1   31 1
     3    1   32 1
     4    1   33 1
     5    2    3 1
     6    2    4 1
     7    2   14 1
     8    4   13 ar
     9    4    5 ar
    10    5    6 ar
    11    5   34 1
    12    6    7 ar
    13    6   35 1
    14    7   12 ar
    15    7    8 ar
    16    8    9 ar
    17    8   36 1
    18    9   10 ar
    19    9   37 1
    20   10   11 ar
    21   10   38 1
    22   11   12 ar
    23   11   39 1
    24   12   13 ar
    25   13   40 1
    26   14   15 am
    27   14   41 1
    28   15   16 2
    29   15   17 1
    30   17   18 1
    31   17   19 1
    32   17   20 1
    33   19   42 1
    34   19   43 1
    35   19   44 1
    36   20   21 1
    37   20   45 1
    38   21   26 ar
    39   21   22 ar
    40   22   23 ar
    41   22   46 1
    42   23   24 ar
    43   23   47 1
    44   24   25 ar
    45   24   48 1
    46   25   26 ar
    47   25   27 1
    48   26   49 1
    49   27   28 2
    50   27   29 am
    51   29   30 1
    52   29   50 1
    53   30   51 1
    54   30   52 1
    55   30   53 1
@<TRIPOS>MOLECULE
ZINC57382047
   41    42     0     0     0
SMALL
USER_CHARGES

@<TRIPOS>ATOM
      1 C1         -0.0184    1.5028    0.0103 C.3       1 <0>        -0.1081
      2 C2          0.0021   -0.0041    0.0020 C.ar      1 <0>        -0.1377
      3 C3          0.0057   -0.6874   -1.2004 C.ar      1 <0>        -0.0771
      4 C4          0.0244   -2.0681   -1.2116 C.ar      1 <0>        -0.1918
      5 C5          0.0396   -2.7708   -0.0132 C.ar      1 <0>         0.2101
      6 C6          0.0359   -2.0814    1.1925 C.ar      1 <0>        -0.1512
      7 C7          0.0229   -0.7002    1.1965 C.ar      1 <0>        -0.0733
      8 C8          0.0518   -2.8394    2.4949 C.3       1 <0>        -0.1085
      9 N1          0.0581   -4.1674   -0.0209 N.pl3     1 <0>        -0.7382
     10 C9          0.0614   -4.8929   -1.2936 C.3       1 <0>         0.1190
     11 C10         0.0824   -6.3759   -1.0264 C.2       1 <0>         0.5132
     12 O1          0.0935   -6.7863    0.1148 O.2       1 <0>        -0.5321
     13 N2          0.0889   -7.2460   -2.0556 N.am      1 <0>        -0.5143
     14 N3          0.1084   -8.6247   -1.8072 N.am      1 <0>        -0.5183
     15 C11         0.1149   -9.4948   -2.8364 C.2       1 <0>         0.5594
     16 O2          0.1038   -9.0834   -3.9803 O.2       1 <0>        -0.5057
     17 C12         0.1354  -10.9484   -2.5745 C.ar      1 <0>        -0.1237
     18 C13         0.1424  -11.4244   -1.2615 C.ar      1 <0>        -0.0597
     19 C14         0.1611  -12.7819   -1.0233 C.ar      1 <0>        -0.1118
     20 C15         0.1735  -13.6747   -2.0830 C.ar      1 <0>         0.0044
     21 C16         0.1672  -13.2106   -3.3871 C.ar      1 <0>        -0.1112
     22 C17         0.1422  -11.8532   -3.6393 C.ar      1 <0>         0.0302
     23 Cl1         0.1265  -11.2722   -5.2751 Cl        1 <0>        -0.0106
     24 Cl2         0.1976  -15.3828   -1.7736 Cl        1 <0>        -0.0408
     25 H1          1.0042    1.8801    0.0026 H         1 <0>         0.0647
     26 H2         -0.5455    1.8639   -0.8728 H         1 <0>         0.0624
     27 H3         -0.5286    1.8543    0.9071 H         1 <0>         0.0621
     28 H4         -0.0065   -0.1406   -2.1317 H         1 <0>         0.1208
     29 H5          0.0269   -2.6011   -2.1509 H         1 <0>         0.1206
     30 H6          0.0244   -0.1634    2.1336 H         1 <0>         0.1214
     31 H7          1.0832   -3.0085    2.8043 H         1 <0>         0.0667
     32 H8         -0.4663   -2.2598    3.2590 H         1 <0>         0.0678
     33 H9         -0.4499   -3.7980    2.3635 H         1 <0>         0.0599
     34 H10         0.0687   -4.6569    0.8164 H         1 <0>         0.4116
     35 H11        -0.8348   -4.6383   -1.8594 H         1 <0>         0.0987
     36 H12         0.9450   -4.6147   -1.8681 H         1 <0>         0.0990
     37 H13         0.0801   -6.9178   -2.9683 H         1 <0>         0.4371
     38 H14         0.1172   -8.9530   -0.8945 H         1 <0>         0.4316
     39 H15         0.1334  -10.7301   -0.4343 H         1 <0>         0.1460
     40 H16         0.1664  -13.1506   -0.0082 H         1 <0>         0.1516
     41 H17         0.1777  -13.9115   -4.2087 H         1 <0>         0.1555
@<TRIPOS>BOND
     1    1    2 1
     2    1   25 1
     3    1   26 1
     4    1   27 1
     5    2    7 ar
     6    2    3 ar
     7    3    4 ar
     8    3   28 1
     9    4    5 ar
    10    4   29 1
    11    5    6 ar
    12    5    9 1
    13    6    7 ar
    14    6    8 1
    15    7   30 1
    16    8   31 1
    17    8   32 1
    18    8   33 1
    19    9   10 1
    20    9   34 1
    21   10   11 1
    22   10   35 1
    23   10   36 1
    24   11   12 2
    25   11   13 am
    26   13   14 1
    27   13   37 1
    28   14   15 am
    29   14   38 1
    30   15   16 2
    31   15   17 1
    32   17   22 ar
    33   17   18 ar
    34   18   19 ar
    35   18   39 1
    36   19   20 ar
    37   19   40 1
    38   20   21 ar
    39   20   24 1
    40   21   22 ar
    41   21   41 1
    42   22   23 1
@<TRIPOS>MOLECULE
ZINC66977861
   48    50     0     0     0
SMALL
USER_CHARGES

@<TRIPOS>ATOM
      1 C1          0.8219    1.1233   -1.7050 C.ar      1 <0>        -0.1288
      2 C2          2.0642    1.7030   -1.8847 C.ar      1 <0>        -0.0853
      3 C3          3.2046    0.9246   -1.8323 C.ar      1 <0>        -0.1531
      4 C4          3.1030   -0.4368   -1.5996 C.ar      1 <0>         0.1157
      5 C5          1.8586   -1.0161   -1.4198 C.ar      1 <0>        -0.1084
      6 C6          0.7192   -0.2354   -1.4726 C.ar      1 <0>        -0.0762
      7 C7          1.7462   -2.4975   -1.1670 C.3       1 <0>        -0.0911
      8 C8          1.9260   -2.7711    0.3040 C.2       1 <0>         0.5179
      9 O1          2.1256   -1.8535    1.0716 O.2       1 <0>        -0.5173
     10 N1          1.8648   -4.0355    0.7667 N.am      1 <0>        -0.5320
     11 N2          2.0319   -4.2899    2.1342 N.am      1 <0>        -0.5314
     12 C9          1.9708   -5.5543    2.5969 C.2       1 <0>         0.7143
     13 O2          2.1158   -5.7750    3.7837 O.2       1 <0>        -0.5673
     14 N3          1.7489   -6.5739    1.7440 N.am      1 <0>        -0.7399
     15 C10         1.6824   -7.9483    2.2469 C.3       1 <0>         0.1541
     16 C11         1.3045   -8.8921    1.1035 C.3       1 <0>         0.0106
     17 C12         1.2001  -10.3361    1.6246 C.3       1 <0>        -0.1088
     18 C13         2.2472  -11.1614    0.8486 C.3       1 <0>        -0.1242
     19 C14         3.2908  -10.1138    0.3875 C.3       1 <0>        -0.1233
     20 C15         2.4114   -8.8902    0.0290 C.3       1 <0>        -0.1235
     21 C16        -0.0066   -8.4658    0.4948 C.2       1 <0>        -0.1312
     22 C17        -1.2415   -8.4485    1.0534 C.2       1 <0>        -0.1512
     23 C18        -2.3130   -8.0115    0.2974 C.2       1 <0>        -0.1517
     24 C19        -2.0973   -7.6133   -0.9802 C.2       1 <0>        -0.1749
     25 S1         -0.3350   -7.8452   -1.1466 S.3       1 <0>         0.0262
     26 F1          4.2173   -1.1989   -1.5486 F         1 <0>        -0.1370
     27 H1         -0.0686    1.7332   -1.7417 H         1 <0>         0.1318
     28 H2          2.1433    2.7647   -2.0665 H         1 <0>         0.1343
     29 H3          4.1749    1.3776   -1.9731 H         1 <0>         0.1370
     30 H4         -0.2516   -0.6871   -1.3320 H         1 <0>         0.1323
     31 H5          0.7636   -2.8467   -1.4841 H         1 <0>         0.1167
     32 H6          2.5176   -3.0219   -1.7310 H         1 <0>         0.1136
     33 H7          1.7051   -4.7694    0.1528 H         1 <0>         0.4184
     34 H8          2.1916   -3.5560    2.7481 H         1 <0>         0.4443
     35 H9          1.6332   -6.3978    0.7972 H         1 <0>         0.3903
     36 H10         2.6540   -8.2355    2.6489 H         1 <0>         0.0812
     37 H11         0.9306   -8.0114    3.0336 H         1 <0>         0.0779
     38 H12         1.4187  -10.3646    2.6921 H         1 <0>         0.0778
     39 H13         0.2010  -10.7295    1.4370 H         1 <0>         0.0762
     40 H14         2.7113  -11.9002    1.5020 H         1 <0>         0.0722
     41 H15         1.7882  -11.6472   -0.0125 H         1 <0>         0.0688
     42 H16         3.9785   -9.8712    1.1976 H         1 <0>         0.0724
     43 H17         3.8338  -10.4691   -0.4883 H         1 <0>         0.0726
     44 H18         1.9789   -9.0092   -0.9644 H         1 <0>         0.0761
     45 H19         2.9953   -7.9715    0.0844 H         1 <0>         0.0730
     46 H20        -1.3860   -8.7715    2.0737 H         1 <0>         0.1324
     47 H21        -3.3074   -7.9881    0.7183 H         1 <0>         0.1334
     48 H22        -2.8068   -7.2470   -1.7074 H         1 <0>         0.1852
@<TRIPOS>BOND
     1    1    6 ar
     2    1    2 ar
     3    1   27 1
     4    2    3 ar
     5    2   28 1
     6    3    4 ar
     7    3   29 1
     8    4    5 ar
     9    4   26 1
    10    5    6 ar
    11    5    7 1
    12    6   30 1
    13    7    8 1
    14    7   31 1
    15    7   32 1
    16    8    9 2
    17    8   10 am
    18   10   11 1
    19   10   33 1
    20   11   12 am
    21   11   34 1
    22   12   13 2
    23   12   14 am
    24   14   15 1
    25   14   35 1
    26   15   16 1
    27   15   36 1
    28   15   37 1
    29   16   20 1
    30   16   17 1
    31   16   21 1
    32   17   18 1
    33   17   38 1
    34   17   39 1
    35   18   19 1
    36   18   40 1
    37   18   41 1
    38   19   20 1
    39   19   42 1
    40   19   43 1
    41   20   44 1
    42   20   45 1
    43   21   25 1
    44   21   22 2
    45   22   23 1
    46   22   46 1
    47   23   24 2
    48   23   47 1
    49   24   25 1
    50   24   48 1
@<TRIPOS>MOLECULE
ZINC07499531
   51    53     0     0     0
SMALL
USER_CHARGES
2-[1-(2-chlorophenyl)ethylamino]-N-(1,1-dioxothiolan-3-yl)-N-phenyl-acetamide
@<TRIPOS>ATOM
      1 C1         -0.1679    0.5533    0.5267 C.3       1 <0>        -0.1803
      2 C2         -0.9438    1.1412    1.7070 C.3       1 <0>         0.0799
      3 H1         -0.8487    2.2270    1.6996 H         1 <0>         0.1514
      4 C3         -0.3853    0.5968    2.9965 C.ar      1 <0>        -0.1349
      5 C4         -0.9673   -0.5076    3.5902 C.ar      1 <0>        -0.1187
      6 C5         -0.4554   -1.0067    4.7731 C.ar      1 <0>        -0.0934
      7 C6          0.6394   -0.4024    5.3628 C.ar      1 <0>        -0.0789
      8 C7          1.2224    0.7014    4.7700 C.ar      1 <0>        -0.0923
      9 C8          0.7134    1.1987    3.5832 C.ar      1 <0>        -0.0143
     10 Cl1         1.4495    2.5809    2.8341 Cl        1 <0>        -0.0432
     11 C9         -3.0829    1.7175    0.7299 C.3       1 <0>        -0.0348
     12 C10        -4.5303    1.3084    0.6374 C.2       1 <0>         0.5007
     13 O1         -4.9037    0.2778    1.1567 O.2       1 <0>        -0.4982
     14 N1         -5.4100    2.0876   -0.0224 N.am      1 <0>        -0.5118
     15 C11        -6.7723    1.7684   -0.0123 C.ar      1 <0>         0.1222
     16 C12        -7.6951    2.6382   -0.5784 C.ar      1 <0>        -0.1613
     17 C13        -9.0386    2.3182   -0.5706 C.ar      1 <0>        -0.0870
     18 C14        -9.4663    1.1379    0.0091 C.ar      1 <0>        -0.1215
     19 C15        -8.5505    0.2719    0.5780 C.ar      1 <0>        -0.0934
     20 C16        -7.2051    0.5839    0.5692 C.ar      1 <0>        -0.1553
     21 C17        -4.9399    3.2689   -0.7504 C.3       1 <0>         0.1249
     22 H2         -3.8503    3.2937   -0.7344 H         1 <0>         0.1215
     23 C18        -5.4893    4.5366   -0.0754 C.3       1 <0>        -0.1626
     24 C19        -5.2445    5.7390   -1.0312 C.3       1 <0>        -0.5739
     25 S1         -5.6567    4.9694   -2.6537 S.o2      1 <0>         2.3716
     26 O2         -7.0287    5.2025   -2.9408 O.2       1 <0>        -0.9107
     27 O3         -4.6694    5.3410   -3.6058 O.2       1 <0>        -0.9167
     28 C20        -5.4296    3.1973   -2.2169 C.3       1 <0>        -0.6260
     29 H3         -0.2630   -0.5325    0.5340 H         1 <0>         0.0897
     30 H4          0.8840    0.8265    0.6111 H         1 <0>         0.1129
     31 H5         -0.5718    0.9471   -0.4060 H         1 <0>         0.0884
     32 H6         -1.8223   -0.9803    3.1299 H         1 <0>         0.1302
     33 H7         -0.9107   -1.8694    5.2368 H         1 <0>         0.1449
     34 H8          1.0389   -0.7929    6.2871 H         1 <0>         0.1479
     35 H9          2.0774    1.1736    5.2309 H         1 <0>         0.1497
     36 H10        -3.0150    2.7202    1.1518 H         1 <0>         0.1668
     37 H11        -2.6393    1.7114   -0.2657 H         1 <0>         0.1691
     38 H12        -7.3621    3.5621   -1.0278 H         1 <0>         0.1257
     39 H13        -9.7563    2.9924   -1.0141 H         1 <0>         0.1387
     40 H14       -10.5179    0.8917    0.0173 H         1 <0>         0.1323
     41 H15        -8.8877   -0.6492    1.0300 H         1 <0>         0.1329
     42 H16        -6.4904   -0.0926    1.0142 H         1 <0>         0.1797
     43 H17        -6.5579    4.4229    0.1069 H         1 <0>         0.1134
     44 H18        -4.9711    4.7052    0.8685 H         1 <0>         0.1128
     45 H19        -5.9177    6.5659   -0.8048 H         1 <0>         0.1564
     46 H20        -4.2036    6.0612   -1.0008 H         1 <0>         0.1490
     47 H21        -4.6753    2.7358   -2.8541 H         1 <0>         0.1569
     48 H22        -6.3749    2.6588   -2.2828 H         1 <0>         0.1623
     49 N2         -2.3658    0.7646    1.5981 N.4       1 <0>        -0.5052
     50 H23        -2.7907    0.7722    2.5328 H         1 <0>         0.4410
     51 H24        -2.4368   -0.1781    1.1976 H         1 <0>         0.4411
@<TRIPOS>BOND
     1    1    2 1
     2    1   29 1
     3    1   30 1
     4    1   31 1
     5    2    3 1
     6    2    4 1
     7    2   49 1
     8    4    9 ar
     9    4    5 ar
    10    5    6 ar
    11    5   32 1
    12    6    7 ar
    13    6   33 1
    14    7    8 ar
    15    7   34 1
    16    8    9 ar
    17    8   35 1
    18    9   10 1
    19   11   12 1
    20   11   36 1
    21   11   37 1
    22   11   49 1
    23   12   13 2
    24   12   14 am
    25   14   15 1
    26   14   21 1
    27   15   20 ar
    28   15   16 ar
    29   16   17 ar
    30   16   38 1
    31   17   18 ar
    32   17   39 1
    33   18   19 ar
    34   18   40 1
    35   19   20 ar
    36   19   41 1
    37   20   42 1
    38   21   22 1
    39   21   28 1
    40   21   23 1
    41   23   24 1
    42   23   43 1
    43   23   44 1
    44   24   25 1
    45   24   45 1
    46   24   46 1
    47   25   26 2
    48   25   27 2
    49   25   28 1
    50   28   47 1
    51   28   48 1
    52   49   50 1
    53   49   51 1
@<TRIPOS>MOLECULE
ZINC12573577
   62    65     0     0     0
SMALL
USER_CHARGES
(5R)-2-[[5-(hydroxymethyl)-2-furyl]methyl]-9-[(4-isopropylphenyl)methyl]-2,9-diazaspiro[4.5]decan-10-one
@<TRIPOS>ATOM
      1 C1          3.2754    1.4348   -1.2709 C.3       1 <0>        -0.1441
      2 C2          2.4902    1.0476   -0.0161 C.3       1 <0>        -0.0619
      3 C3          3.2993    1.4213    1.2275 C.3       1 <0>        -0.1469
      4 C4          1.1750    1.7832    0.0004 C.ar      1 <0>        -0.0613
      5 C5         -0.0126    1.0758    0.0080 C.ar      1 <0>        -0.1231
      6 C6         -1.2190    1.7507    0.0173 C.ar      1 <0>        -0.0968
      7 C7         -1.2377    3.1328    0.0299 C.ar      1 <0>        -0.1203
      8 C8         -0.0501    3.8402    0.0223 C.ar      1 <0>        -0.1017
      9 C9          1.1563    3.1654    0.0076 C.ar      1 <0>        -0.1149
     10 C10        -2.5528    3.8685    0.0455 C.3       1 <0>         0.1451
     11 N1         -2.9917    4.1135   -1.3306 N.am      1 <0>        -0.5804
     12 C11        -2.5738    5.3534   -1.9727 C.3       1 <0>         0.1001
     13 C12        -2.6788    5.2330   -3.4951 C.3       1 <0>        -0.1407
     14 C13        -4.0833    4.7282   -3.8502 C.3       1 <0>        -0.1148
     15 C14        -4.2254    3.2972   -3.3380 C.3       1 <0>        -0.0955
     16 C15        -3.7551    3.1899   -1.9199 C.2       1 <0>         0.5208
     17 O1         -4.0835    2.2163   -1.2756 O.2       1 <0>        -0.5416
     18 C16        -5.6906    2.8407   -3.4510 C.3       1 <0>        -0.1290
     19 C17        -5.6586    1.6358   -4.4172 C.3       1 <0>        -0.0046
     20 C18        -3.4261    2.3364   -4.2381 C.3       1 <0>         0.0130
     21 C19        -3.9245    0.3168   -5.5051 C.3       1 <0>         0.1001
     22 C20        -4.7046   -0.9725   -5.4861 C.2       1 <0>        -0.0992
     23 C21        -5.9173   -1.1663   -6.0348 C.2       1 <0>        -0.1386
     24 C22        -6.2706   -2.5119   -5.7830 C.2       1 <0>        -0.1918
     25 C23        -5.2526   -3.0599   -5.0954 C.2       1 <0>         0.0373
     26 O2         -4.3044   -2.1244   -4.9235 O.3       1 <0>        -0.1602
     27 C24        -5.1844   -4.4840   -4.6072 C.3       1 <0>         0.1467
     28 O3         -4.5798   -5.3029   -5.6100 O.3       1 <0>        -0.5649
     29 H1          3.4600    2.5091   -1.2668 H         1 <0>         0.0575
     30 H2          4.2266    0.9027   -1.2829 H         1 <0>         0.0625
     31 H3          2.6990    1.1685   -2.1568 H         1 <0>         0.0526
     32 H4          2.3056   -0.0267   -0.0202 H         1 <0>         0.0782
     33 H5          3.4839    2.4956    1.2315 H         1 <0>         0.0579
     34 H6          2.7399    1.1454    2.1213 H         1 <0>         0.0573
     35 H7          4.2505    0.8892    1.2155 H         1 <0>         0.0625
     36 H8          0.0021   -0.0041    0.0020 H         1 <0>         0.1213
     37 H9         -2.1469    1.1980    0.0188 H         1 <0>         0.1251
     38 H10        -0.0647    4.9201    0.0276 H         1 <0>         0.1212
     39 H11         2.0841    3.7181    0.0014 H         1 <0>         0.1245
     40 H12        -3.2997    3.2667    0.5633 H         1 <0>         0.1010
     41 H13        -2.4307    4.8201    0.5628 H         1 <0>         0.0931
     42 H14        -3.2108    6.1683   -1.6286 H         1 <0>         0.0794
     43 H15        -1.5401    5.5675   -1.7014 H         1 <0>         0.0879
     44 H16        -1.9332    4.5274   -3.8619 H         1 <0>         0.0741
     45 H17        -2.5146    6.2088   -3.9523 H         1 <0>         0.1011
     46 H18        -4.2171    4.7459   -4.9318 H         1 <0>         0.0912
     47 H19        -4.8325    5.3633   -3.3774 H         1 <0>         0.0935
     48 H20        -6.0684    2.5344   -2.4755 H         1 <0>         0.1125
     49 H21        -6.3062    3.6405   -3.8627 H         1 <0>         0.1198
     50 H22        -6.3721    0.8752   -4.1001 H         1 <0>         0.1386
     51 H23        -5.8761    1.9591   -5.4352 H         1 <0>         0.1361
     52 H24        -3.2860    2.7705   -5.2280 H         1 <0>         0.1482
     53 H25        -2.4630    2.1028   -3.7843 H         1 <0>         0.1379
     54 H26        -4.1713    0.8775   -6.4066 H         1 <0>         0.1552
     55 H27        -2.8572    0.0958   -5.4954 H         1 <0>         0.1464
     56 H28        -6.5081   -0.4343   -6.5654 H         1 <0>         0.1632
     57 H29        -7.1826   -3.0052   -6.0850 H         1 <0>         0.1650
     58 H30        -4.5890   -4.5273   -3.6952 H         1 <0>         0.0724
     59 H31        -6.1917   -4.8460   -4.4010 H         1 <0>         0.0922
     60 H32        -4.5032   -6.2348   -5.3633 H         1 <0>         0.3991
     61 N2         -4.2850    1.1479   -4.3131 N.4       1 <0>        -0.3973
     62 H33        -4.1774    0.5824   -3.4629 H         1 <0>         0.4380
@<TRIPOS>BOND
     1    1    2 1
     2    1   29 1
     3    1   30 1
     4    1   31 1
     5    2    3 1
     6    2    4 1
     7    2   32 1
     8    3   33 1
     9    3   34 1
    10    3   35 1
    11    4    9 ar
    12    4    5 ar
    13    5    6 ar
    14    5   36 1
    15    6    7 ar
    16    6   37 1
    17    7    8 ar
    18    7   10 1
    19    8    9 ar
    20    8   38 1
    21    9   39 1
    22   10   11 1
    23   10   40 1
    24   10   41 1
    25   11   16 am
    26   11   12 1
    27   12   13 1
    28   12   42 1
    29   12   43 1
    30   13   14 1
    31   13   44 1
    32   13   45 1
    33   14   15 1
    34   14   46 1
    35   14   47 1
    36   15   20 1
    37   15   16 1
    38   15   18 1
    39   16   17 2
    40   18   19 1
    41   18   48 1
    42   18   49 1
    43   19   50 1
    44   19   51 1
    45   19   61 1
    46   20   52 1
    47   20   53 1
    48   20   61 1
    49   21   22 1
    50   21   54 1
    51   21   55 1
    52   21   61 1
    53   22   26 1
    54   22   23 2
    55   23   24 1
    56   23   56 1
    57   24   25 2
    58   24   57 1
    59   25   26 1
    60   25   27 1
    61   27   28 1
    62   27   58 1
    63   27   59 1
    64   28   60 1
    65   61   62 1
@<TRIPOS>MOLECULE
ZINC32869470
   60    63     0     0     0
SMALL
USER_CHARGES
[4-[[[(1S)-1-(2,3-dihydro-1,4-benzodioxin-6-yl)-2-methyl-propyl]amino]methyl]phenyl]-pyrrolidin-1-yl-methanone
@<TRIPOS>ATOM
      1 C1         -5.0195    0.0358   -2.2404 C.3       1 <0>        -0.1750
      2 C2         -4.4559   -1.1953   -1.5280 C.3       1 <0>        -0.1048
      3 C3         -3.3184   -1.7901   -2.3606 C.3       1 <0>        -0.1538
      4 C4         -3.9228   -0.7893   -0.1526 C.3       1 <0>         0.0952
      5 H1         -3.4444   -1.6419    0.3516 H         1 <0>         0.1426
      6 C5         -2.9282    0.3318   -0.3102 C.ar      1 <0>        -0.1366
      7 C6         -3.3727    1.6294   -0.4838 C.ar      1 <0>        -0.1165
      8 C7         -2.4637    2.6596   -0.6329 C.ar      1 <0>        -0.1037
      9 C8         -1.1024    2.3950   -0.6029 C.ar      1 <0>         0.0795
     10 C9         -0.6556    1.0909   -0.4267 C.ar      1 <0>         0.0631
     11 C10        -1.5733    0.0611   -0.2815 C.ar      1 <0>        -0.0829
     12 O1          0.6755    0.8091   -0.3935 O.3       1 <0>        -0.3019
     13 C11         1.5577    1.8082   -0.9164 C.3       1 <0>         0.0152
     14 C12         1.1316    3.1692   -0.3495 C.3       1 <0>         0.0157
     15 O2         -0.2192    3.4197   -0.7526 O.3       1 <0>        -0.2988
     16 N1         -5.0379   -0.3395    0.6915 N.4       1 <0>        -0.5412
     17 C13        -5.6554   -1.4715    1.3952 C.3       1 <0>         0.0449
     18 C14        -6.7083   -0.9593    2.3439 C.ar      1 <0>        -0.1404
     19 C15        -6.3660   -0.6414    3.6462 C.ar      1 <0>        -0.0993
     20 C16        -7.3241   -0.1674    4.5184 C.ar      1 <0>        -0.1247
     21 C17        -8.6433   -0.0189    4.0874 C.ar      1 <0>        -0.0913
     22 C18        -8.9830   -0.3464    2.7738 C.ar      1 <0>        -0.0578
     23 C19        -8.0142   -0.8144    1.9103 C.ar      1 <0>        -0.0995
     24 C20        -9.6765    0.4827    5.0184 C.2       1 <0>         0.5624
     25 O3        -10.7909    0.7414    4.6075 O.2       1 <0>        -0.5222
     26 N2         -9.3828    0.6531    6.3227 N.am      1 <0>        -0.6122
     27 C21        -8.0563    0.4786    6.9322 C.3       1 <0>         0.0810
     28 C22        -8.2063    0.7548    8.4430 C.3       1 <0>        -0.1392
     29 C23        -9.7178    0.5076    8.6910 C.3       1 <0>        -0.1306
     30 C24       -10.3398    1.0391    7.3756 C.3       1 <0>         0.1060
     31 H2         -5.8373    0.4634   -1.6418 H         1 <0>         0.0500
     32 H3         -5.4028   -0.2562   -3.2292 H         1 <0>         0.0849
     33 H4         -4.2236    0.7853   -2.3623 H         1 <0>         0.0835
     34 H5         -5.2518   -1.9447   -1.4061 H         1 <0>         0.0964
     35 H6         -2.9132   -2.6752   -1.8484 H         1 <0>         0.0671
     36 H7         -2.5226   -1.0406   -2.4825 H         1 <0>         0.0700
     37 H8         -3.7017   -2.0821   -3.3494 H         1 <0>         0.0771
     38 H9         -4.4321    1.8380   -0.5053 H         1 <0>         0.1308
     39 H10        -2.8135    3.6724   -0.7679 H         1 <0>         0.1464
     40 H11        -1.2287   -0.9535   -0.1463 H         1 <0>         0.1439
     41 H12         2.5905    1.5797   -0.6144 H         1 <0>         0.1346
     42 H13         1.4905    1.8184   -2.0143 H         1 <0>         0.0862
     43 H14         1.2002    3.1469    0.7481 H         1 <0>         0.0869
     44 H15         1.7947    3.9540   -0.7425 H         1 <0>         0.1351
     45 H16        -4.6667    0.3792    1.4370 H         1 <0>         0.4500
     46 H17        -6.1196   -2.1490    0.6634 H         1 <0>         0.1377
     47 H18        -4.8851   -2.0156    1.9614 H         1 <0>         0.1381
     48 H19        -5.3458   -0.7610    3.9797 H         1 <0>         0.1379
     49 H20        -7.0548    0.0845    5.5334 H         1 <0>         0.1720
     50 H21       -10.0019   -0.2334    2.4340 H         1 <0>         0.1481
     51 H22        -8.2756   -1.0678    0.8935 H         1 <0>         0.1392
     52 H23        -7.7063   -0.5500    6.7604 H         1 <0>         0.0800
     53 H24        -7.3481    1.1875    6.4784 H         1 <0>         0.0796
     54 H25        -7.5652    0.0620    9.0078 H         1 <0>         0.0888
     55 H26        -7.9053    1.7907    8.6580 H         1 <0>         0.0824
     56 H27        -9.8922   -0.5666    8.8510 H         1 <0>         0.0814
     57 H28       -10.0398    1.0679    9.5812 H         1 <0>         0.0938
     58 H29       -10.4481    2.1337    7.3893 H         1 <0>         0.0771
     59 H30       -11.3166    0.5766    7.1708 H         1 <0>         0.0852
     60 H31        -5.8009    0.1443    0.0640 H         1 <0>         0.4424
@<TRIPOS>BOND
     1    1    2 1
     2    1   31 1
     3    1   32 1
     4    1   33 1
     5    2    3 1
     6    2    4 1
     7    2   34 1
     8    3   35 1
     9    3   36 1
    10    3   37 1
    11    4    5 1
    12    4    6 1
    13    4   16 1
    14    6   11 ar
    15    6    7 ar
    16    7    8 ar
    17    7   38 1
    18    8    9 ar
    19    8   39 1
    20    9   15 1
    21    9   10 ar
    22   10   11 ar
    23   10   12 1
    24   11   40 1
    25   12   13 1
    26   13   14 1
    27   13   41 1
    28   13   42 1
    29   14   15 1
    30   14   43 1
    31   14   44 1
    32   16   17 1
    33   16   45 1
    34   16   60 1
    35   17   18 1
    36   17   46 1
    37   17   47 1
    38   18   23 ar
    39   18   19 ar
    40   19   20 ar
    41   19   48 1
    42   20   21 ar
    43   20   49 1
    44   21   22 ar
    45   21   24 1
    46   22   23 ar
    47   22   50 1
    48   23   51 1
    49   24   25 2
    50   24   26 am
    51   26   30 1
    52   26   27 1
    53   27   28 1
    54   27   52 1
    55   27   53 1
    56   28   29 1
    57   28   54 1
    58   28   55 1
    59   29   30 1
    60   29   56 1
    61   29   57 1
    62   30   58 1
    63   30   59 1
@<TRIPOS>MOLECULE
ZINC49407838
   61    63     0     0     0
SMALL
USER_CHARGES

@<TRIPOS>ATOM
      1 C1         -2.2164   -6.6091   -4.8971 C.3       1 <0>        -0.1323
      2 C2         -1.7404   -5.9678   -3.6191 C.ar      1 <0>        -0.0466
      3 C3         -2.0884   -6.5167   -2.3990 C.ar      1 <0>        -0.1055
      4 C4         -1.6518   -5.9285   -1.2267 C.ar      1 <0>        -0.0890
      5 C5         -0.8668   -4.7917   -1.2745 C.ar      1 <0>        -0.1554
      6 C6         -0.5180   -4.2433   -2.4945 C.ar      1 <0>        -0.1131
      7 C7         -0.9511   -4.8340   -3.6669 C.ar      1 <0>        -0.1034
      8 C8         -0.3916   -4.1499    0.0035 C.3       1 <0>         0.0684
      9 H1         -1.0235   -4.4749    0.8301 H         1 <0>         0.1501
     10 C9          1.0560   -4.5643    0.2748 C.3       1 <0>         0.1036
     11 N1          1.1174   -6.0122    0.4895 N.am      1 <0>        -0.7259
     12 C10         2.2819   -6.5924    0.8413 C.2       1 <0>         0.5288
     13 O1          3.2789   -5.9159    0.9801 O.2       1 <0>        -0.5098
     14 C11         2.3451   -8.0818    1.0621 C.3       1 <0>        -0.1250
     15 H2          1.6581   -8.3866    1.8515 H         1 <0>         0.1382
     16 C12         2.0563   -8.8484   -0.2493 C.3       1 <0>        -0.1433
     17 C13         3.4251   -9.0933   -0.8451 C.2       1 <0>         0.5123
     18 O2          3.6346   -9.4131   -1.9961 O.2       1 <0>        -0.5010
     19 N2          4.3753   -8.9045    0.0867 N.am      1 <0>        -0.5513
     20 C14         3.7879   -8.5328    1.3804 C.3       1 <0>         0.1079
     21 C15         5.7480   -9.0441   -0.1460 C.ar      1 <0>         0.1571
     22 C16         6.2025   -9.4996   -1.3769 C.ar      1 <0>        -0.1561
     23 C17         7.5578   -9.6363   -1.6034 C.ar      1 <0>        -0.0883
     24 C18         8.4624   -9.3207   -0.6059 C.ar      1 <0>        -0.1050
     25 C19         8.0132   -8.8675    0.6206 C.ar      1 <0>        -0.0594
     26 C20         6.6590   -8.7222    0.8512 C.ar      1 <0>        -0.1497
     27 C21         9.0023   -8.5252    1.7048 C.3       1 <0>        -0.1193
     28 C22         9.9407   -9.4716   -0.8563 C.3       1 <0>        -0.1180
     29 N3         -0.4667   -2.6885   -0.1251 N.4       1 <0>        -0.3816
     30 C23        -1.8659   -2.2853   -0.3196 C.3       1 <0>        -0.0477
     31 C24         0.0582   -2.0619    1.0955 C.3       1 <0>        -0.0563
     32 H3         -1.4883   -7.3513   -5.2243 H         1 <0>         0.0846
     33 H4         -3.1771   -7.0942   -4.7243 H         1 <0>         0.0772
     34 H5         -2.3281   -5.8456   -5.6670 H         1 <0>         0.0759
     35 H6         -2.7017   -7.4049   -2.3617 H         1 <0>         0.1387
     36 H7         -1.9243   -6.3570   -0.2735 H         1 <0>         0.1336
     37 H8          0.0950   -3.3550   -2.5319 H         1 <0>         0.1190
     38 H9         -0.6755   -4.4077   -4.6202 H         1 <0>         0.1365
     39 H10         1.6767   -4.2971   -0.5804 H         1 <0>         0.0893
     40 H11         1.4209   -4.0494    1.1635 H         1 <0>         0.0980
     41 H12         0.3200   -6.5532    0.3784 H         1 <0>         0.4076
     42 H13         1.5581   -9.7943   -0.0365 H         1 <0>         0.1276
     43 H14         1.4509   -8.2402   -0.9214 H         1 <0>         0.1073
     44 H15         4.3492   -7.7129    1.8285 H         1 <0>         0.1067
     45 H16         3.7753   -9.3926    2.0501 H         1 <0>         0.0972
     46 H17         5.4966   -9.7469   -2.1560 H         1 <0>         0.1527
     47 H18         7.9118   -9.9905   -2.5603 H         1 <0>         0.1280
     48 H19         6.3090   -8.3632    1.8078 H         1 <0>         0.1244
     49 H20         9.2816   -7.4747    1.6235 H         1 <0>         0.0730
     50 H21         8.5499   -8.7064    2.6798 H         1 <0>         0.0663
     51 H22         9.8910   -9.1469    1.5954 H         1 <0>         0.0749
     52 H23        10.3378   -8.5402   -1.2598 H         1 <0>         0.0707
     53 H24        10.4459   -9.7063    0.0806 H         1 <0>         0.0713
     54 H25        10.1078  -10.2776   -1.5709 H         1 <0>         0.0668
     55 H26        -2.4588   -2.6056    0.5371 H         1 <0>         0.1247
     56 H27        -1.9216   -1.2009   -0.4150 H         1 <0>         0.1289
     57 H28        -2.2554   -2.7502   -1.2252 H         1 <0>         0.1252
     58 H29         1.1270   -2.2607    1.1752 H         1 <0>         0.1273
     59 H30        -0.1089   -0.9856    1.0522 H         1 <0>         0.1317
     60 H31        -0.4539   -2.4744    1.9648 H         1 <0>         0.1265
     61 H32         0.0821   -2.3920   -0.9181 H         1 <0>         0.4250
@<TRIPOS>BOND
     1    1    2 1
     2    1   32 1
     3    1   33 1
     4    1   34 1
     5    2    7 ar
     6    2    3 ar
     7    3    4 ar
     8    3   35 1
     9    4    5 ar
    10    4   36 1
    11    5    6 ar
    12    5    8 1
    13    6    7 ar
    14    6   37 1
    15    7   38 1
    16    8    9 1
    17    8   10 1
    18    8   29 1
    19   10   11 1
    20   10   39 1
    21   10   40 1
    22   11   12 am
    23   11   41 1
    24   12   13 2
    25   12   14 1
    26   14   15 1
    27   14   20 1
    28   14   16 1
    29   16   17 1
    30   16   42 1
    31   16   43 1
    32   17   18 2
    33   17   19 am
    34   19   20 1
    35   19   21 1
    36   20   44 1
    37   20   45 1
    38   21   26 ar
    39   21   22 ar
    40   22   23 ar
    41   22   46 1
    42   23   24 ar
    43   23   47 1
    44   24   25 ar
    45   24   28 1
    46   25   26 ar
    47   25   27 1
    48   26   48 1
    49   27   49 1
    50   27   50 1
    51   27   51 1
    52   28   52 1
    53   28   53 1
    54   28   54 1
    55   29   30 1
    56   29   31 1
    57   29   61 1
    58   30   55 1
    59   30   56 1
    60   30   57 1
    61   31   58 1
    62   31   59 1
    63   31   60 1
@<TRIPOS>MOLECULE
ZINC67010581
   53    54     0     0     0
SMALL
USER_CHARGES

@<TRIPOS>ATOM
      1 C1         -0.0187    1.5258    0.0104 C.3       1 <0>        -0.1817
      2 C2          0.0021   -0.0041    0.0020 C.3       1 <0>         0.0803
      3 H1         -1.0205   -0.3814    0.0098 H         1 <0>         0.1518
      4 C3          0.7074   -0.4901   -1.2379 C.ar      1 <0>        -0.1630
      5 C4          2.0891   -0.5108   -1.2839 C.ar      1 <0>        -0.0688
      6 C5          2.7360   -0.9565   -2.4211 C.ar      1 <0>        -0.1206
      7 C6          2.0015   -1.3821   -3.5123 C.ar      1 <0>         0.0070
      8 C7          0.6203   -1.3622   -3.4660 C.ar      1 <0>        -0.6664
      9 C8         -0.0268   -0.9204   -2.3269 C.ar      1 <0>         0.0091
     10 S1         -0.3158   -1.9041   -4.8569 S.o2      1 <0>         2.6866
     11 O1         -1.5860   -1.2741   -4.7620 O.2       1 <0>        -0.9432
     12 O2          0.5242   -1.7577   -5.9937 O.2       1 <0>        -0.9400
     13 N1         -0.5778   -3.5283   -4.6681 N.pl3     1 <0>        -1.0020
     14 C9         -1.7685   -4.0005   -3.9572 C.3       1 <0>         0.0892
     15 C10         0.3812   -4.4931   -5.2120 C.3       1 <0>         0.0772
     16 N2          0.7126   -0.4907    1.1921 N.4       1 <0>        -0.5070
     17 C11        -0.0398   -0.1189    2.3978 C.3       1 <0>         0.0786
     18 C12         0.6890   -0.6181    3.6187 C.2       1 <0>        -0.0063
     19 C13         1.5392    0.1802    4.3138 C.2       1 <0>        -0.2168
     20 S2          2.0664   -0.9411    5.5995 S.3       1 <0>         0.1932
     21 C14         1.1647   -2.2799    5.1224 C.2       1 <0>         0.0858
     22 N3          0.5261   -1.8480    4.0637 N.2       1 <0>        -0.5167
     23 C15         1.1028   -3.6431    5.7619 C.3       1 <0>         0.0180
     24 C16         1.5597   -4.7002    4.7545 C.3       1 <0>        -0.1365
     25 C17         2.0206   -3.6746    6.9856 C.3       1 <0>        -0.1600
     26 C18        -0.3346   -3.9386    6.1947 C.3       1 <0>        -0.1382
     27 H2          1.0039    1.9031    0.0027 H         1 <0>         0.0843
     28 H3         -0.5459    1.8868   -0.8726 H         1 <0>         0.1115
     29 H4         -0.5289    1.8773    0.9072 H         1 <0>         0.0891
     30 H5          2.6628   -0.1783   -0.4315 H         1 <0>         0.1281
     31 H6          3.8153   -0.9720   -2.4573 H         1 <0>         0.1479
     32 H7          2.5070   -1.7297   -4.4012 H         1 <0>         0.1537
     33 H8         -1.1061   -0.9084   -2.2892 H         1 <0>         0.1512
     34 H9         -2.5850   -4.1364   -4.6664 H         1 <0>         0.0686
     35 H10        -1.5482   -4.9505   -3.4703 H         1 <0>         0.0784
     36 H11        -2.0583   -3.2658   -3.2059 H         1 <0>         0.0688
     37 H12         1.1402   -4.7135   -4.4614 H         1 <0>         0.0573
     38 H13        -0.1405   -5.4113   -5.4817 H         1 <0>         0.0855
     39 H14         0.8574   -4.0722   -6.0976 H         1 <0>         0.0879
     40 H15         0.7982   -1.4950    1.1455 H         1 <0>         0.4329
     41 H16        -0.1324    0.9660    2.4481 H         1 <0>         0.1487
     42 H17        -1.0328   -0.5668    2.3589 H         1 <0>         0.1471
     43 H18         1.8190    1.2084    4.1379 H         1 <0>         0.2060
     44 H19         2.5837   -4.4896    4.4461 H         1 <0>         0.0581
     45 H20         1.5149   -5.6862    5.2170 H         1 <0>         0.0769
     46 H21         0.9058   -4.6778    3.8826 H         1 <0>         0.0648
     47 H22         1.6952   -2.9215    7.7033 H         1 <0>         0.0667
     48 H23         1.9759   -4.6606    7.4481 H         1 <0>         0.0859
     49 H24         3.0447   -3.4640    6.6773 H         1 <0>         0.0657
     50 H25        -0.9884   -3.9162    5.3229 H         1 <0>         0.0665
     51 H26        -0.3794   -4.9246    6.6572 H         1 <0>         0.0766
     52 H27        -0.6600   -3.1856    6.9124 H         1 <0>         0.0600
     53 H28         1.6317   -0.0761    1.2281 H         1 <0>         0.4222
@<TRIPOS>BOND
     1    1    2 1
     2    1   27 1
     3    1   28 1
     4    1   29 1
     5    2    3 1
     6    2    4 1
     7    2   16 1
     8    4    9 ar
     9    4    5 ar
    10    5    6 ar
    11    5   30 1
    12    6    7 ar
    13    6   31 1
    14    7    8 ar
    15    7   32 1
    16    8    9 ar
    17    8   10 1
    18    9   33 1
    19   10   11 2
    20   10   12 2
    21   10   13 1
    22   13   14 1
    23   13   15 1
    24   14   34 1
    25   14   35 1
    26   14   36 1
    27   15   37 1
    28   15   38 1
    29   15   39 1
    30   16   17 1
    31   16   40 1
    32   16   53 1
    33   17   18 1
    34   17   41 1
    35   17   42 1
    36   18   22 1
    37   18   19 2
    38   19   20 1
    39   19   43 1
    40   20   21 1
    41   21   22 2
    42   21   23 1
    43   23   24 1
    44   23   25 1
    45   23   26 1
    46   24   44 1
    47   24   45 1
    48   24   46 1
    49   25   47 1
    50   25   48 1
    51   25   49 1
    52   26   50 1
    53   26   51 1
    54   26   52 1
@<TRIPOS>MOLECULE
ZINC05758592
   57    61     0     0     0
SMALL
USER_CHARGES
4-[[3-(2-aminoethyl)-1H-indol-2-yl]-(1H-indol-3-yl)methyl]-2-methoxy-phenol
@<TRIPOS>ATOM
      1 C1          6.3244    2.1937    3.8295 C.3       1 <0>         0.0243
      2 O1          6.2326    3.5882    4.1275 O.3       1 <0>        -0.3024
      3 C2          5.5515    4.3650    3.2431 C.ar      1 <0>         0.1139
      4 C3          4.9843    3.7973    2.1136 C.ar      1 <0>        -0.1844
      5 C4          4.2920    4.5883    1.2158 C.ar      1 <0>        -0.0485
      6 C5          4.1685    5.9471    1.4391 C.ar      1 <0>        -0.1408
      7 C6          4.7271    6.5189    2.5670 C.ar      1 <0>        -0.0972
      8 C7          5.4224    5.7317    3.4708 C.ar      1 <0>         0.0826
      9 O2          5.9777    6.2937    4.5778 O.3       1 <0>        -0.4839
     10 C8          3.6757    3.9692   -0.0122 C.3       1 <0>         0.0937
     11 H1          3.8791    2.8984   -0.0202 H         1 <0>         0.1055
     12 C9          2.1862    4.1975    0.0037 C.2       1 <0>        -0.1770
     13 C10         1.5605    5.3850    0.0161 C.2       1 <0>         0.0715
     14 N1          0.2050    5.1982    0.0281 N.pl3     1 <0>        -0.5863
     15 H2         -0.4554    5.9086    0.0379 H         1 <0>         0.4224
     16 C11        -0.0819    3.8515    0.0235 C.ar      1 <0>         0.0998
     17 C12         1.1465    3.1655    0.0081 C.ar      1 <0>        -0.0939
     18 C13         1.1647    1.7697    0.0004 C.ar      1 <0>        -0.0880
     19 C14        -0.0126    1.0758    0.0080 C.ar      1 <0>        -0.1369
     20 C15        -1.2269    1.7478    0.0174 C.ar      1 <0>        -0.0971
     21 C16        -1.2679    3.1250    0.0310 C.ar      1 <0>        -0.1180
     22 C17         4.2678    4.6022   -1.2450 C.2       1 <0>         0.1365
     23 C18         4.9408    3.9439   -2.2019 C.2       1 <0>        -0.1958
     24 C19         5.3352    4.9343   -3.2066 C.ar      1 <0>        -0.0933
     25 C20         6.0399    4.8680   -4.4102 C.ar      1 <0>        -0.0834
     26 C21         6.2473    6.0054   -5.1382 C.ar      1 <0>        -0.1325
     27 C22         5.7626    7.2271   -4.6910 C.ar      1 <0>        -0.0930
     28 C23         5.0645    7.3151   -3.5067 C.ar      1 <0>        -0.1224
     29 C24         4.8424    6.1697   -2.7488 C.ar      1 <0>         0.1000
     30 N2          4.1940    5.9323   -1.5577 N.pl3     1 <0>        -0.5808
     31 H3          3.7529    6.6077   -1.0190 H         1 <0>         0.4128
     32 C25         5.2343    2.4661   -2.2363 C.3       1 <0>        -0.0631
     33 C26         4.0994    1.7374   -2.9587 C.3       1 <0>        -0.0085
     34 H4          6.8917    1.6912    4.6130 H         1 <0>         0.1057
     35 H5          5.3229    1.7669    3.7756 H         1 <0>         0.0567
     36 H6          6.8287    2.0591    2.8726 H         1 <0>         0.0545
     37 H7          5.0828    2.7368    1.9347 H         1 <0>         0.1330
     38 H8          3.6309    6.5625    0.7329 H         1 <0>         0.1124
     39 H9          4.6257    7.5799    2.7412 H         1 <0>         0.1404
     40 H10         6.8853    6.6015    4.4494 H         1 <0>         0.3920
     41 H11         2.0539    6.3457    0.0162 H         1 <0>         0.1594
     42 H12         2.1059    1.2401   -0.0110 H         1 <0>         0.1126
     43 H13         0.0021   -0.0041    0.0020 H         1 <0>         0.1240
     44 H14        -2.1490    1.1855    0.0184 H         1 <0>         0.1300
     45 H15        -2.2179    3.6387    0.0431 H         1 <0>         0.1252
     46 H16         6.4199    3.9212   -4.7643 H         1 <0>         0.1181
     47 H17         6.7924    5.9537   -6.0691 H         1 <0>         0.1263
     48 H18         5.9343    8.1175   -5.2777 H         1 <0>         0.1306
     49 H19         4.6915    8.2701   -3.1674 H         1 <0>         0.1238
     50 H20         6.1715    2.2941   -2.7656 H         1 <0>         0.0946
     51 H21         5.3180    2.0885   -1.2172 H         1 <0>         0.0890
     52 H22         3.1622    1.9094   -2.4293 H         1 <0>         0.1358
     53 H23         4.0158    2.1150   -3.9777 H         1 <0>         0.1341
     54 H24         4.5315   -0.0645   -2.0615 H         1 <0>         0.4349
     55 H25         3.6500   -0.2070   -3.4646 H         1 <0>         0.4400
     56 N3          4.4070    0.2970   -3.0057 N.4       1 <0>        -0.6480
     57 H26         5.2745    0.1543   -3.5362 H         1 <0>         0.4391
@<TRIPOS>BOND
     1    1    2 1
     2    1   34 1
     3    1   35 1
     4    1   36 1
     5    2    3 1
     6    3    8 ar
     7    3    4 ar
     8    4    5 ar
     9    4   37 1
    10    5    6 ar
    11    5   10 1
    12    6    7 ar
    13    6   38 1
    14    7    8 ar
    15    7   39 1
    16    8    9 1
    17    9   40 1
    18   10   11 1
    19   10   12 1
    20   10   22 1
    21   12   17 1
    22   12   13 2
    23   13   14 1
    24   13   41 1
    25   14   15 1
    26   14   16 1
    27   16   21 ar
    28   16   17 ar
    29   17   18 ar
    30   18   19 ar
    31   18   42 1
    32   19   20 ar
    33   19   43 1
    34   20   21 ar
    35   20   44 1
    36   21   45 1
    37   22   30 1
    38   22   23 2
    39   23   24 1
    40   23   32 1
    41   24   29 ar
    42   24   25 ar
    43   25   26 ar
    44   25   46 1
    45   26   27 ar
    46   26   47 1
    47   27   28 ar
    48   27   48 1
    49   28   29 ar
    50   28   49 1
    51   29   30 1
    52   30   31 1
    53   32   33 1
    54   32   50 1
    55   32   51 1
    56   33   52 1
    57   33   53 1
    58   33   56 1
    59   54   56 1
    60   55   56 1
    61   56   57 1
@<TRIPOS>MOLECULE
ZINC24808734
   53    55     0     0     0
SMALL
USER_CHARGES
2-[[(1R)-1-(2,4-dichlorophenyl)ethyl]amino]-N-[(4R)-4-ethyl-2,5-dioxo-4-phenyl-imidazolidin-1-yl]acetamide
@<TRIPOS>ATOM
      1 C1          0.8169    7.7636   -0.7347 C.3       1 <0>        -0.1587
      2 C2          0.2250    8.5147   -1.9290 C.3       1 <0>        -0.1217
      3 C3         -1.0429    7.8013   -2.4026 C.3       1 <0>         0.1765
      4 C4         -0.7323    6.3738   -2.8071 C.2       1 <0>         0.5389
      5 O1          0.0139    6.0088   -3.6901 O.2       1 <0>        -0.4390
      6 N1         -1.4574    5.5948   -1.9802 N.am      1 <0>        -0.3766
      7 C5         -2.1794    6.3242   -1.1219 C.2       1 <0>         0.7204
      8 O2         -2.9155    5.8458   -0.2814 O.2       1 <0>        -0.5281
      9 N2         -1.9965    7.6463   -1.2906 N.am      1 <0>        -0.7138
     10 N3         -1.4596    4.1944   -2.0188 N.am      1 <0>        -0.4962
     11 C6         -0.7994    3.4933   -1.0758 C.2       1 <0>         0.5105
     12 O3         -0.2034    4.0747   -0.1940 O.2       1 <0>        -0.5058
     13 C7         -0.8017    1.9868   -1.1173 C.3       1 <0>        -0.0132
     14 N4         -0.0178    1.4648    0.0101 N.4       1 <0>        -0.5311
     15 C8          0.0021   -0.0041    0.0020 C.3       1 <0>         0.0855
     16 H1          0.0295   -0.3324   -1.0475 H         1 <0>         0.1499
     17 C9         -1.2464   -0.5349    0.7094 C.3       1 <0>        -0.1821
     18 C10         1.2330   -0.4937    0.7204 C.ar      1 <0>        -0.1292
     19 C11         1.8417    0.3044    1.6710 C.ar      1 <0>        -0.1045
     20 C12         2.9673   -0.1463    2.3343 C.ar      1 <0>        -0.0869
     21 C13         3.4922   -1.3922    2.0391 C.ar      1 <0>        -0.0059
     22 C14         2.8869   -2.1888    1.0841 C.ar      1 <0>        -0.0875
     23 C15         1.7569   -1.7394    0.4245 C.ar      1 <0>        -0.0027
     24 Cl1         0.9968   -2.7383   -0.7747 Cl        1 <0>        -0.0300
     25 Cl2         4.9099   -1.9555    2.8677 Cl        1 <0>        -0.0234
     26 C16        -1.6752    8.5509   -3.5469 C.ar      1 <0>        -0.1126
     27 C17        -0.8823    9.2535   -4.4350 C.ar      1 <0>        -0.0893
     28 C18        -1.4619    9.9371   -5.4874 C.ar      1 <0>        -0.1143
     29 C19        -2.8351    9.9264   -5.6460 C.ar      1 <0>        -0.0990
     30 C20        -3.6283    9.2285   -4.7547 C.ar      1 <0>        -0.1164
     31 C21        -3.0484    8.5405   -3.7053 C.ar      1 <0>        -0.1000
     32 H2          1.7285    8.2765   -0.3942 H         1 <0>         0.0745
     33 H3          1.0654    6.7350   -1.0350 H         1 <0>         0.0481
     34 H4          0.0824    7.7393    0.0838 H         1 <0>         0.0635
     35 H5         -0.0235    9.5433   -1.6287 H         1 <0>         0.1006
     36 H6          0.9595    8.5390   -2.7475 H         1 <0>         0.0961
     37 H7         -2.4015    8.5355   -0.7854 H         1 <0>         0.4822
     38 H8         -2.0001    3.6671   -2.8187 H         1 <0>         0.4653
     39 H9         -1.8361    1.6196   -1.0459 H         1 <0>         0.1709
     40 H10        -0.3559    1.6453   -2.0632 H         1 <0>         0.1701
     41 H11         1.0166    1.8320   -0.0614 H         1 <0>         0.4592
     42 H12        -1.2315   -1.6348    0.7034 H         1 <0>         0.1122
     43 H13        -2.1448   -0.1774    0.1850 H         1 <0>         0.0910
     44 H14        -1.2604   -0.1741    1.7484 H         1 <0>         0.0911
     45 H15         1.4350    1.2786    1.8986 H         1 <0>         0.1413
     46 H16         3.4399    0.4758    3.0800 H         1 <0>         0.1550
     47 H17         3.2965   -3.1611    0.8532 H         1 <0>         0.1594
     48 H18         0.1902    9.2652   -4.3087 H         1 <0>         0.1314
     49 H19        -0.8421   10.4827   -6.1836 H         1 <0>         0.1324
     50 H20        -3.2881   10.4636   -6.4661 H         1 <0>         0.1304
     51 H21        -4.7012    9.2204   -4.8784 H         1 <0>         0.1296
     52 H22        -3.6682    7.9953   -3.0089 H         1 <0>         0.1225
     53 H23        -0.4635    1.8063    0.9560 H         1 <0>         0.4593
@<TRIPOS>BOND
     1    1    2 1
     2    1   32 1
     3    1   33 1
     4    1   34 1
     5    2    3 1
     6    2   35 1
     7    2   36 1
     8    3    9 1
     9    3    4 1
    10    3   26 1
    11    4    5 2
    12    4    6 am
    13    6    7 am
    14    6   10 1
    15    7    8 2
    16    7    9 am
    17    9   37 1
    18   10   11 am
    19   10   38 1
    20   11   12 2
    21   11   13 1
    22   13   14 1
    23   13   39 1
    24   13   40 1
    25   14   15 1
    26   14   41 1
    27   14   53 1
    28   15   16 1
    29   15   17 1
    30   15   18 1
    31   17   42 1
    32   17   43 1
    33   17   44 1
    34   18   23 ar
    35   18   19 ar
    36   19   20 ar
    37   19   45 1
    38   20   21 ar
    39   20   46 1
    40   21   22 ar
    41   21   25 1
    42   22   23 ar
    43   22   47 1
    44   23   24 1
    45   26   31 ar
    46   26   27 ar
    47   27   28 ar
    48   27   48 1
    49   28   29 ar
    50   28   49 1
    51   29   30 ar
    52   29   50 1
    53   30   31 ar
    54   30   51 1
    55   31   52 1
@<TRIPOS>MOLECULE
ZINC39916085
   67    72     0     0     0
SMALL
USER_CHARGES

@<TRIPOS>ATOM
      1 C1         -0.3654    1.8412   -2.3241 C.3       1 <0>        -0.1468
      2 C2         -0.2679    0.3156   -2.2618 C.3       1 <0>        -0.0511
      3 C3         -1.5705   -0.2603   -1.7019 C.3       1 <0>        -0.1025
      4 C4         -1.4530   -1.7583   -1.5805 C.2       1 <0>         0.3175
      5 C5         -0.2582   -2.3512   -1.3548 C.2       1 <0>        -0.3733
      6 C6         -0.1328   -3.8602   -1.2457 C.3       1 <0>         0.2080
      7 H1         -0.0837   -4.1501   -0.1961 H         1 <0>         0.0923
      8 N1         -1.3050   -4.4603   -1.8667 N.3       1 <0>        -0.3832
      9 C7         -2.5217   -3.8847   -1.2172 C.3       1 <0>         0.4445
     10 H2         -2.4386   -3.9236   -0.1311 H         1 <0>         0.0826
     11 N2         -2.6054   -2.5059   -1.6912 N.pl3     1 <0>        -0.6849
     12 N3         -3.5967   -4.7656   -1.6892 N.3       1 <0>        -0.6556
     13 C8         -2.9494   -6.0817   -1.9284 C.3       1 <0>         0.2634
     14 H3         -3.1023   -6.3916   -2.9621 H         1 <0>         0.1058
     15 N4         -1.4966   -5.8890   -1.6617 N.3       1 <0>        -0.4971
     16 S1         -3.6318   -7.3259   -0.7983 S.3       1 <0>        -0.1959
     17 C9         -5.2890   -7.6562   -1.4582 C.3       1 <0>         0.0343
     18 C10        -5.1699   -8.3296   -2.8011 C.ar      1 <0>        -0.0940
     19 C11        -5.8381   -7.8127   -3.8952 C.ar      1 <0>        -0.1045
     20 C12        -5.7289   -8.4305   -5.1270 C.ar      1 <0>        -0.1176
     21 C13        -4.9510   -9.5649   -5.2648 C.ar      1 <0>        -0.1117
     22 C14        -4.2820  -10.0813   -4.1708 C.ar      1 <0>        -0.1189
     23 C15        -4.3879   -9.4610   -2.9400 C.ar      1 <0>        -0.0980
     24 C16        -6.0373   -8.5565   -0.5093 C.ar      1 <0>        -0.0730
     25 C17        -5.4590   -9.7338   -0.0726 C.ar      1 <0>        -0.1013
     26 C18        -6.1454  -10.5596    0.7978 C.ar      1 <0>        -0.1161
     27 C19        -7.4099  -10.2081    1.2319 C.ar      1 <0>        -0.1081
     28 C20        -7.9878   -9.0305    0.7959 C.ar      1 <0>        -0.1154
     29 C21        -7.2996   -8.2025   -0.0711 C.ar      1 <0>        -0.1008
     30 C22         1.1128   -4.3197   -1.9588 C.2       1 <0>         0.0408
     31 C23         2.1836   -4.8941   -1.4133 C.2       1 <0>        -0.1886
     32 C24         3.1675   -5.1826   -2.4576 C.2       1 <0>         0.3244
     33 N5          2.7384   -4.8069   -3.6163 N.pl3     1 <0>        -0.5467
     34 C25         1.3998   -4.2288   -3.4414 C.3       1 <0>         0.0476
     35 C26         0.9126   -1.5893   -1.2197 C.2       1 <0>         0.4187
     36 O1          1.9694   -2.1507   -1.0074 O.2       1 <0>        -0.5015
     37 C27         0.8818   -0.0893   -1.3331 C.3       1 <0>        -0.1601
     38 C28        -0.0161   -0.2410   -3.6645 C.3       1 <0>        -0.1507
     39 H4          0.5699    2.2497   -2.7068 H         1 <0>         0.0666
     40 H5         -1.1838    2.1263   -2.9852 H         1 <0>         0.0651
     41 H6         -0.5517    2.2345   -1.3248 H         1 <0>         0.0643
     42 H7         -1.7639    0.1692   -0.7189 H         1 <0>         0.1117
     43 H8         -2.3937   -0.0143   -2.3727 H         1 <0>         0.0985
     44 H9         -3.4232   -2.1383   -2.0614 H         1 <0>         0.4247
     45 H10        -4.3296   -4.8430   -1.0000 H         1 <0>         0.3725
     46 H11        -0.9363   -6.4253   -2.3072 H         1 <0>         0.3654
     47 H12        -5.8296   -6.7163   -1.5698 H         1 <0>         0.1049
     48 H13        -6.4459   -6.9265   -3.7876 H         1 <0>         0.1221
     49 H14        -6.2516   -8.0271   -5.9817 H         1 <0>         0.1253
     50 H15        -4.8663  -10.0479   -6.2270 H         1 <0>         0.1245
     51 H16        -3.6746  -10.9677   -4.2784 H         1 <0>         0.1252
     52 H17        -3.8622   -9.8623   -2.0861 H         1 <0>         0.1287
     53 H18        -4.4711  -10.0084   -0.4117 H         1 <0>         0.1260
     54 H19        -5.6939  -11.4797    1.1384 H         1 <0>         0.1267
     55 H20        -7.9464  -10.8537    1.9114 H         1 <0>         0.1268
     56 H21        -8.9758   -8.7560    1.1348 H         1 <0>         0.1279
     57 H22        -7.7496   -7.2806   -0.4089 H         1 <0>         0.1235
     58 H23         2.3069   -5.1128   -0.3629 H         1 <0>         0.1880
     59 H24         4.1262   -5.6480   -2.2823 H         1 <0>         0.2248
     60 H25         0.6626   -4.8014   -4.0042 H         1 <0>         0.1645
     61 H26         1.3959   -3.1875   -3.7634 H         1 <0>         0.1636
     62 H27         1.8264    0.2649   -1.7459 H         1 <0>         0.0990
     63 H28         0.7257    0.3481   -0.3470 H         1 <0>         0.1055
     64 H29         0.9170    0.1656   -4.0546 H         1 <0>         0.0638
     65 H30         0.0529   -1.3278   -3.6171 H         1 <0>         0.0525
     66 H31        -0.8386    0.0426   -4.3210 H         1 <0>         0.0654
     67 H32         3.2156   -4.8946   -4.4562 H         1 <0>         0.4598
@<TRIPOS>BOND
     1    1    2 1
     2    1   39 1
     3    1   40 1
     4    1   41 1
     5    2   37 1
     6    2    3 1
     7    2   38 1
     8    3    4 1
     9    3   42 1
    10    3   43 1
    11    4   11 1
    12    4    5 2
    13    5    6 1
    14    5   35 1
    15    6    7 1
    16    6    8 1
    17    6   30 1
    18    8   15 1
    19    8    9 1
    20    9   10 1
    21    9   11 1
    22    9   12 1
    23   11   44 1
    24   12   13 1
    25   12   45 1
    26   13   14 1
    27   13   15 1
    28   13   16 1
    29   15   46 1
    30   16   17 1
    31   17   18 1
    32   17   24 1
    33   17   47 1
    34   18   23 ar
    35   18   19 ar
    36   19   20 ar
    37   19   48 1
    38   20   21 ar
    39   20   49 1
    40   21   22 ar
    41   21   50 1
    42   22   23 ar
    43   22   51 1
    44   23   52 1
    45   24   29 ar
    46   24   25 ar
    47   25   26 ar
    48   25   53 1
    49   26   27 ar
    50   26   54 1
    51   27   28 ar
    52   27   55 1
    53   28   29 ar
    54   28   56 1
    55   29   57 1
    56   30   34 1
    57   30   31 2
    58   31   32 1
    59   31   58 1
    60   32   33 2
    61   32   59 1
    62   33   34 1
    63   33   67 1
    64   34   60 1
    65   34   61 1
    66   35   36 2
    67   35   37 1
    68   37   62 1
    69   37   63 1
    70   38   64 1
    71   38   65 1
    72   38   66 1
@<TRIPOS>MOLECULE
ZINC40783322
   55    59     0     0     0
SMALL
USER_CHARGES

@<TRIPOS>ATOM
      1 C1          0.0010    1.4850   -0.0475 C.ar      1 <0>        -0.0818
      2 C2          1.1775    2.2113   -0.0666 C.ar      1 <0>        -0.1004
      3 C3          2.3969    1.5550   -0.0893 C.ar      1 <0>         0.0727
      4 C4          2.4344    0.1624   -0.0924 C.ar      1 <0>         0.0405
      5 C5          1.2520   -0.5586   -0.0734 C.ar      1 <0>        -0.0796
      6 C6          0.0381    0.1034   -0.0507 C.ar      1 <0>        -0.1560
      7 C7         -1.2471   -0.6834   -0.0299 C.3       1 <0>         0.0508
      8 N1         -1.6886   -0.9365   -1.4079 N.4       1 <0>        -0.3797
      9 C8         -2.0128    0.3394   -2.0583 C.3       1 <0>        -0.0290
     10 C9         -2.3630    0.0876   -3.5286 C.3       1 <0>         0.1247
     11 N2         -3.4387   -0.9141   -3.5868 N.pl3     1 <0>        -0.6538
     12 C10        -3.2664   -2.1614   -2.8260 C.3       1 <0>         0.1230
     13 C11        -2.8735   -1.8034   -1.3889 C.3       1 <0>        -0.0226
     14 C12        -4.5854   -0.6884   -4.3387 C.ar      1 <0>         0.3465
     15 C13        -4.6093   -0.9875   -5.7025 C.ar      1 <0>         0.0863
     16 C14        -5.7868   -0.7418   -6.4105 C.ar      1 <0>         0.3802
     17 N3         -6.8344   -0.2355   -5.7637 N.ar      1 <0>        -0.5221
     18 C15        -6.7699    0.0326   -4.4755 C.ar      1 <0>         0.2993
     19 N4         -5.6795   -0.1890   -3.7692 N.ar      1 <0>        -0.5214
     20 N5         -5.8643   -1.0212   -7.7703 N.pl3     1 <0>        -0.6449
     21 C16        -7.0032   -0.6560   -8.4955 C.ar      1 <0>         0.1766
     22 C17        -7.8052    0.3877   -8.0525 C.ar      1 <0>        -0.1062
     23 C18        -8.9293    0.7462   -8.7704 C.ar      1 <0>        -0.0786
     24 C19        -9.2574    0.0668   -9.9305 C.ar      1 <0>        -0.0452
     25 C20        -8.4608   -0.9736  -10.3751 C.ar      1 <0>        -0.0761
     26 C21        -7.3315   -1.3332   -9.6640 C.ar      1 <0>        -0.0663
     27 Cl1        -6.3279   -2.6335  -10.2261 Cl        1 <0>        -0.0550
     28 Cl2       -10.6715    0.5203  -10.8296 Cl        1 <0>        -0.0508
     29 N6         -3.4796   -1.5205   -6.3440 N.pl3     1 <0>        -0.8604
     30 O1          3.7389   -0.2387   -0.1162 O.3       1 <0>        -0.3004
     31 C22         4.4884    0.9155   -0.5397 C.3       1 <0>         0.2112
     32 O2          3.6780    2.0258   -0.1110 O.3       1 <0>        -0.2977
     33 H1         -0.9489    1.9984   -0.0257 H         1 <0>         0.1476
     34 H2          1.1455    3.2908   -0.0641 H         1 <0>         0.1501
     35 H3          1.2780   -1.6383   -0.0758 H         1 <0>         0.1443
     36 H4         -1.0835   -1.6330    0.4795 H         1 <0>         0.1404
     37 H5         -2.0126   -0.1149    0.4982 H         1 <0>         0.1407
     38 H6         -2.8642    0.7978   -1.5552 H         1 <0>         0.1365
     39 H7         -1.1529    1.0066   -1.9986 H         1 <0>         0.1379
     40 H8         -2.7017    1.0160   -3.9886 H         1 <0>         0.1150
     41 H9         -1.4851   -0.2866   -4.0553 H         1 <0>         0.0817
     42 H10        -4.2024   -2.7200   -2.8216 H         1 <0>         0.1165
     43 H11        -2.4798   -2.7627   -3.2818 H         1 <0>         0.0827
     44 H12        -2.6479   -2.7153   -0.8360 H         1 <0>         0.1388
     45 H13        -3.6989   -1.2802   -0.9061 H         1 <0>         0.1372
     46 H14        -7.6385    0.4432   -3.9822 H         1 <0>         0.2034
     47 H15        -5.1285   -1.4693   -8.2161 H         1 <0>         0.4183
     48 H16        -7.5502    0.9184   -7.1470 H         1 <0>         0.1661
     49 H17        -9.5532    1.5576   -8.4257 H         1 <0>         0.1456
     50 H18        -8.7194   -1.5024  -11.2806 H         1 <0>         0.1495
     51 H19        -2.6930   -1.7538   -5.8266 H         1 <0>         0.4038
     52 H20        -3.4859   -1.6552   -7.3046 H         1 <0>         0.3992
     53 H21         5.4620    0.9405   -0.0503 H         1 <0>         0.1444
     54 H22         4.6032    0.9210   -1.6236 H         1 <0>         0.0964
     55 H23        -0.9476   -1.3928   -1.9187 H         1 <0>         0.4204
@<TRIPOS>BOND
     1    1    6 ar
     2    1    2 ar
     3    1   33 1
     4    2    3 ar
     5    2   34 1
     6    3   32 1
     7    3    4 ar
     8    4    5 ar
     9    4   30 1
    10    5    6 ar
    11    5   35 1
    12    6    7 1
    13    7    8 1
    14    7   36 1
    15    7   37 1
    16    8   13 1
    17    8    9 1
    18    8   55 1
    19    9   10 1
    20    9   38 1
    21    9   39 1
    22   10   11 1
    23   10   40 1
    24   10   41 1
    25   11   12 1
    26   11   14 1
    27   12   13 1
    28   12   42 1
    29   12   43 1
    30   13   44 1
    31   13   45 1
    32   14   19 ar
    33   14   15 ar
    34   15   16 ar
    35   15   29 1
    36   16   17 ar
    37   16   20 1
    38   17   18 ar
    39   18   19 ar
    40   18   46 1
    41   20   21 1
    42   20   47 1
    43   21   26 ar
    44   21   22 ar
    45   22   23 ar
    46   22   48 1
    47   23   24 ar
    48   23   49 1
    49   24   25 ar
    50   24   28 1
    51   25   26 ar
    52   25   50 1
    53   26   27 1
    54   29   51 1
    55   29   52 1
    56   30   31 1
    57   31   32 1
    58   31   53 1
    59   31   54 1
@<TRIPOS>MOLECULE
ZINC22874288
   67    71     0     0     0
SMALL
USER_CHARGES

@<TRIPOS>ATOM
      1 C1         -0.0946    1.5461    0.0157 C.3       1 <0>        -0.1442
      2 C2         -0.0580    0.0166    0.0114 C.3       1 <0>        -0.0802
      3 C3          0.6619   -0.4652   -1.2218 C.ar      1 <0>        -0.1142
      4 C4         -0.0561   -0.8010   -2.3491 C.ar      1 <0>        -0.0574
      5 C5          0.6096   -1.2471   -3.4926 C.ar      1 <0>        -0.0836
      6 C6          2.0077   -1.3512   -3.4876 C.ar      1 <0>         0.1794
      7 C7          2.7181   -1.0113   -2.3500 C.ar      1 <0>        -0.1474
      8 C8          2.0479   -0.5639   -1.2203 C.ar      1 <0>         0.1663
      9 O1          2.7491   -0.2258   -0.1071 O.3       1 <0>        -0.4851
     10 C9          4.2211   -1.1215   -2.3397 C.3       1 <0>         0.1105
     11 N1          4.8082    0.1482   -2.7882 N.3       1 <0>        -0.5274
     12 C10         4.4914    0.4054   -4.2001 C.3       1 <0>         0.0177
     13 C11         5.0689    1.7618   -4.6105 C.3       1 <0>        -0.0028
     14 N2          6.5241    1.7552   -4.4107 N.4       1 <0>        -0.3875
     15 C12         6.8242    1.5217   -2.9920 C.3       1 <0>        -0.0021
     16 C13         6.2613    0.1634   -2.5681 C.3       1 <0>         0.0264
     17 C14         7.0804    3.0512   -4.8218 C.3       1 <0>        -0.0458
     18 O2          2.6625   -1.7847   -4.5955 O.3       1 <0>        -0.4513
     19 C15        -0.1555   -1.6081   -4.7015 C.2       1 <0>         0.1762
     20 C16        -0.2589   -2.8758   -5.2695 C.2       1 <0>        -0.1515
     21 C17        -1.0852   -2.7561   -6.4050 C.2       1 <0>         0.1062
     22 N3         -1.4556   -1.5098   -6.5180 N.2       1 <0>        -0.2733
     23 N4         -0.8993   -0.7671   -5.4705 N.pl3     1 <0>        -0.4606
     24 H1         -1.0211    0.1833   -5.3198 H         1 <0>         0.4447
     25 C18        -1.4749   -3.8780   -7.3326 C.3       1 <0>        -0.0854
     26 C19         0.3773   -4.1113   -4.7756 C.2       1 <0>         0.3589
     27 N5          1.6480   -4.2373   -4.4722 N.2       1 <0>        -0.4531
     28 C20         1.8925   -5.5031   -4.0517 C.ar      1 <0>         0.0463
     29 C21         3.0460   -6.1639   -3.6174 C.ar      1 <0>        -0.0675
     30 C22         2.9767   -7.4873   -3.2463 C.ar      1 <0>        -0.1280
     31 C23         1.7710   -8.1720   -3.3001 C.ar      1 <0>        -0.1017
     32 C24         0.6240   -7.5358   -3.7264 C.ar      1 <0>        -0.1096
     33 C25         0.6738   -6.2017   -4.1037 C.ar      1 <0>         0.0484
     34 N6         -0.2700   -5.2989   -4.5588 N.pl3     1 <0>        -0.4880
     35 C26        -1.6949   -5.5641   -4.7721 C.3       1 <0>         0.0750
     36 H2          0.9241    1.9339    0.0149 H         1 <0>         0.0595
     37 H3         -0.6186    1.8995   -0.8724 H         1 <0>         0.0522
     38 H4         -0.6153    1.8946    0.9076 H         1 <0>         0.0619
     39 H5          0.4660   -0.3368    0.8994 H         1 <0>         0.0769
     40 H6         -1.0767   -0.3712    0.0122 H         1 <0>         0.0737
     41 H7         -1.1330   -0.7195   -2.3481 H         1 <0>         0.1337
     42 H8          2.8926   -0.9600    0.5055 H         1 <0>         0.3945
     43 H9          4.5623   -1.3424   -1.3283 H         1 <0>         0.0962
     44 H10         4.5312   -1.9224   -3.0109 H         1 <0>         0.0685
     45 H11         4.9280   -0.3782   -4.8194 H         1 <0>         0.0681
     46 H12         3.4097    0.4151   -4.3342 H         1 <0>         0.1118
     47 H13         4.8473    1.9481   -5.6614 H         1 <0>         0.1352
     48 H14         4.6220    2.5466   -4.0003 H         1 <0>         0.1373
     49 H15         7.9040    1.5301   -2.8429 H         1 <0>         0.1363
     50 H16         6.3683    2.3078   -2.3900 H         1 <0>         0.1377
     51 H17         6.4709   -0.0036   -1.5116 H         1 <0>         0.1249
     52 H18         6.7271   -0.6242   -3.1605 H         1 <0>         0.0619
     53 H19         6.6347    3.8446   -4.2218 H         1 <0>         0.1228
     54 H20         8.1602    3.0465   -4.6736 H         1 <0>         0.1248
     55 H21         6.8589    3.2240   -5.8750 H         1 <0>         0.1239
     56 H22         2.9152   -1.0776   -5.2049 H         1 <0>         0.3677
     57 H23        -2.4402   -4.2825   -7.0281 H         1 <0>         0.0851
     58 H24        -1.5450   -3.4988   -8.3520 H         1 <0>         0.0851
     59 H25        -0.7212   -4.6643   -7.2885 H         1 <0>         0.0774
     60 H26         3.9880   -5.6376   -3.5736 H         1 <0>         0.1231
     61 H27         3.8678   -7.9970   -2.9110 H         1 <0>         0.1284
     62 H28         1.7306   -9.2106   -3.0064 H         1 <0>         0.1304
     63 H29        -0.3109   -8.0749   -3.7662 H         1 <0>         0.1211
     64 H30        -1.8394   -5.9995   -5.7609 H         1 <0>         0.0785
     65 H31        -2.0527   -6.2596   -4.0130 H         1 <0>         0.0841
     66 H32        -2.2528   -4.6304   -4.7013 H         1 <0>         0.0864
     67 H33         6.9364    1.0211   -4.9668 H         1 <0>         0.4230
@<TRIPOS>BOND
     1    1    2 1
     2    1   36 1
     3    1   37 1
     4    1   38 1
     5    2    3 1
     6    2   39 1
     7    2   40 1
     8    3    8 ar
     9    3    4 ar
    10    4    5 ar
    11    4   41 1
    12    5    6 ar
    13    5   19 1
    14    6    7 ar
    15    6   18 1
    16    7    8 ar
    17    7   10 1
    18    8    9 1
    19    9   42 1
    20   10   11 1
    21   10   43 1
    22   10   44 1
    23   11   16 1
    24   11   12 1
    25   12   13 1
    26   12   45 1
    27   12   46 1
    28   13   14 1
    29   13   47 1
    30   13   48 1
    31   14   15 1
    32   14   17 1
    33   14   67 1
    34   15   16 1
    35   15   49 1
    36   15   50 1
    37   16   51 1
    38   16   52 1
    39   17   53 1
    40   17   54 1
    41   17   55 1
    42   18   56 1
    43   19   23 1
    44   19   20 2
    45   20   21 1
    46   20   26 1
    47   21   22 2
    48   21   25 1
    49   22   23 1
    50   23   24 1
    51   25   57 1
    52   25   58 1
    53   25   59 1
    54   26   34 1
    55   26   27 2
    56   27   28 1
    57   28   33 ar
    58   28   29 ar
    59   29   30 ar
    60   29   60 1
    61   30   31 ar
    62   30   61 1
    63   31   32 ar
    64   31   62 1
    65   32   33 ar
    66   32   63 1
    67   33   34 1
    68   34   35 1
    69   35   64 1
    70   35   65 1
    71   35   66 1
@<TRIPOS>MOLECULE
ZINC64349217
   66    70     0     0     0
SMALL
USER_CHARGES

@<TRIPOS>ATOM
      1 C1          0.2943    1.4551   -1.2134 C.3       1 <0>        -0.1216
      2 C2          0.2732   -0.0375   -1.0067 C.ar      1 <0>        -0.0791
      3 C3          0.7565   -0.8777   -1.9933 C.ar      1 <0>        -0.1081
      4 C4          0.7385   -2.2458   -1.8069 C.ar      1 <0>        -0.1077
      5 C5          0.2348   -2.7779   -0.6270 C.ar      1 <0>         0.1137
      6 C6         -0.2492   -1.9317    0.3617 C.ar      1 <0>        -0.1019
      7 C7         -0.2240   -0.5638    0.1711 C.ar      1 <0>        -0.1046
      8 C8         -0.7967   -2.5048    1.6435 C.3       1 <0>        -0.1180
      9 N1          0.2148   -4.1638   -0.4353 N.am      1 <0>        -0.6608
     10 C9          0.0064   -4.9861   -1.4826 C.2       1 <0>         0.4961
     11 O1         -0.0740   -4.5313   -2.6041 O.2       1 <0>        -0.5019
     12 C10        -0.1269   -6.4706   -1.2602 C.3       1 <0>         0.1351
     13 H1          0.7857   -6.8528   -0.8029 H         1 <0>         0.1491
     14 C11        -1.3141   -6.7431   -0.3344 C.3       1 <0>        -0.1013
     15 C12        -2.5862   -6.2867   -1.0011 C.2       1 <0>         0.0581
     16 C13        -3.4367   -7.0417   -1.7332 C.ar      1 <0>        -0.1587
     17 C14        -3.4316   -8.4592   -2.1143 C.ar      1 <0>        -0.0097
     18 C15        -4.4437   -8.9381   -2.8728 C.ar      1 <0>        -0.1497
     19 C16        -5.4945   -8.1166   -3.3035 C.ar      1 <0>         0.0566
     20 C17        -5.5686   -6.8048   -2.9940 C.ar      1 <0>        -0.2104
     21 C18        -4.5579   -6.1955   -2.2004 C.ar      1 <0>         0.3284
     22 N2         -4.4065   -4.9652   -1.7736 N.pl3     1 <0>        -0.5808
     23 C19        -3.1736   -4.8932   -0.9815 C.3       1 <0>         0.0576
     24 N3         -0.3462   -7.1391   -2.5452 N.am      1 <0>        -0.7223
     25 C20         0.0774   -8.4056   -2.7269 C.2       1 <0>         0.5285
     26 O2          0.6402   -8.9918   -1.8266 O.2       1 <0>        -0.5043
     27 C21        -0.1482   -9.0933   -4.0487 C.3       1 <0>         0.0737
     28 H2         -1.1376   -8.8397   -4.4292 H         1 <0>         0.1054
     29 C22         0.9173   -8.6451   -5.0494 C.3       1 <0>        -0.1061
     30 C23         0.8505   -9.4995   -6.2892 C.ar      1 <0>        -0.0851
     31 C24         1.4724   -9.0428   -7.4415 C.ar      1 <0>        -0.1143
     32 C25         1.4382   -9.7960   -8.5977 C.ar      1 <0>        -0.1138
     33 C26         0.7813  -11.0125   -8.6068 C.ar      1 <0>        -0.1143
     34 C27         0.1610  -11.4674   -7.4609 C.ar      1 <0>        -0.1099
     35 C28         0.1919  -10.7103   -6.2988 C.ar      1 <0>        -0.1226
     36 C29        -0.5092  -11.2434   -5.0769 C.3       1 <0>         0.0976
     37 N4         -0.0451  -10.5506   -3.8718 N.3       1 <0>        -0.6571
     38 H3          1.2380    1.8593   -0.8472 H         1 <0>         0.0765
     39 H4          0.1922    1.6763   -2.2759 H         1 <0>         0.0698
     40 H5         -0.5321    1.9094   -0.6667 H         1 <0>         0.0693
     41 H6          1.1480   -0.4633   -2.9106 H         1 <0>         0.1287
     42 H7          1.1154   -2.9014   -2.5780 H         1 <0>         0.1407
     43 H8         -0.5966    0.0951    0.9415 H         1 <0>         0.1301
     44 H9          0.0081   -2.5980    2.3727 H         1 <0>         0.0787
     45 H10        -1.5685   -1.8432    2.0368 H         1 <0>         0.0757
     46 H11        -1.2256   -3.4876    1.4481 H         1 <0>         0.0561
     47 H12         0.3509   -4.5328    0.4514 H         1 <0>         0.4153
     48 H13        -1.3756   -7.8114   -0.1272 H         1 <0>         0.1328
     49 H14        -1.1783   -6.1990    0.6003 H         1 <0>         0.1242
     50 H15        -2.6314   -9.1099   -1.7940 H         1 <0>         0.1605
     51 H16        -4.4419   -9.9808   -3.1544 H         1 <0>         0.1590
     52 H17        -6.2769   -8.5510   -3.9082 H         1 <0>         0.1612
     53 H18        -6.3997   -6.2148   -3.3512 H         1 <0>         0.1607
     54 H19        -3.3993   -4.5949    0.0423 H         1 <0>         0.1737
     55 H20        -2.4789   -4.1862   -1.4350 H         1 <0>         0.1666
     56 H21        -0.7963   -6.6703   -3.2652 H         1 <0>         0.4103
     57 H22         0.7455   -7.6029   -5.3184 H         1 <0>         0.0864
     58 H23         1.9036   -8.7423   -4.5957 H         1 <0>         0.0861
     59 H24         1.9859   -8.0927   -7.4343 H         1 <0>         0.1224
     60 H25         1.9236   -9.4361   -9.4928 H         1 <0>         0.1261
     61 H26         0.7533  -11.6056   -9.5090 H         1 <0>         0.1266
     62 H27        -0.3517  -12.4179   -7.4690 H         1 <0>         0.1262
     63 H28        -1.5835  -11.0932   -5.1838 H         1 <0>         0.0884
     64 H29        -0.3054  -12.3099   -4.9812 H         1 <0>         0.0973
     65 H30         0.8998  -10.8212   -3.6440 H         1 <0>         0.3588
     66 H31        -5.0106   -4.2268   -1.9490 H         1 <0>         0.4559
@<TRIPOS>BOND
     1    1    2 1
     2    1   38 1
     3    1   39 1
     4    1   40 1
     5    2    7 ar
     6    2    3 ar
     7    3    4 ar
     8    3   41 1
     9    4    5 ar
    10    4   42 1
    11    5    6 ar
    12    5    9 1
    13    6    7 ar
    14    6    8 1
    15    7   43 1
    16    8   44 1
    17    8   45 1
    18    8   46 1
    19    9   10 am
    20    9   47 1
    21   10   11 2
    22   10   12 1
    23   12   13 1
    24   12   14 1
    25   12   24 1
    26   14   15 1
    27   14   48 1
    28   14   49 1
    29   15   23 1
    30   15   16 2
    31   16   21 ar
    32   16   17 ar
    33   17   18 ar
    34   17   50 1
    35   18   19 ar
    36   18   51 1
    37   19   20 ar
    38   19   52 1
    39   20   21 ar
    40   20   53 1
    41   21   22 2
    42   22   23 1
    43   22   66 1
    44   23   54 1
    45   23   55 1
    46   24   25 am
    47   24   56 1
    48   25   26 2
    49   25   27 1
    50   27   28 1
    51   27   37 1
    52   27   29 1
    53   29   30 1
    54   29   57 1
    55   29   58 1
    56   30   35 ar
    57   30   31 ar
    58   31   32 ar
    59   31   59 1
    60   32   33 ar
    61   32   60 1
    62   33   34 ar
    63   33   61 1
    64   34   35 ar
    65   34   62 1
    66   35   36 1
    67   36   37 1
    68   36   63 1
    69   36   64 1
    70   37   65 1
@<TRIPOS>MOLECULE
ZINC10042125
   46    47     0     0     0
SMALL
USER_CHARGES
N-[1-[(5-bromo-2-hydroxy-phenyl)methyleneaminocarbamoyl]-2-methyl-propyl]-2,4-dichloro-benzamide
@<TRIPOS>ATOM
      1 C1          1.5206    7.8531    1.0509 C.3       1 <0>        -0.1388
      2 C2          1.6088    6.3292    1.1545 C.3       1 <0>        -0.0994
      3 C3          0.2047    5.7479    1.3316 C.3       1 <0>        -0.1589
      4 C4          2.2364    5.7667   -0.1225 C.3       1 <0>         0.1423
      5 H1          1.6593    6.0960   -0.9865 H         1 <0>         0.1149
      6 C5          2.2350    4.2609   -0.0618 C.2       1 <0>         0.5357
      7 O1          3.1887    3.6717    0.4018 O.2       1 <0>        -0.4918
      8 N1          1.1742    3.5689   -0.5225 N.am      1 <0>        -0.5816
      9 N2          1.2155    2.1691   -0.5642 N.2       1 <0>        -0.2000
     10 C6          0.1939    1.5027   -1.0079 C.2       1 <0>         0.1048
     11 C7          0.2373    0.0302   -1.0517 C.ar      1 <0>        -0.0804
     12 C8         -0.8621   -0.6910   -1.5230 C.ar      1 <0>        -0.0454
     13 C9         -0.8130   -2.0693   -1.5659 C.ar      1 <0>        -0.1079
     14 C10         0.3186   -2.7412   -1.1333 C.ar      1 <0>        -0.0566
     15 C11         1.4104   -2.0385   -0.6600 C.ar      1 <0>        -0.1458
     16 C12         1.3797   -0.6543   -0.6152 C.ar      1 <0>         0.1647
     17 O2          2.4523    0.0367   -0.1498 O.3       1 <0>        -0.4703
     18 Br1        -2.2989   -3.0450   -2.2108 Br        1 <0>        -0.0393
     19 N3          3.6144    6.2493   -0.2429 N.am      1 <0>        -0.7109
     20 C13         3.8614    7.4494   -0.8044 C.2       1 <0>         0.5612
     21 O3          2.9408    8.1314   -1.2108 O.2       1 <0>        -0.5004
     22 C14         5.2508    7.9360   -0.9258 C.ar      1 <0>        -0.1294
     23 C15         6.3107    7.1549   -0.4599 C.ar      1 <0>        -0.0596
     24 C16         7.6051    7.6143   -0.5759 C.ar      1 <0>        -0.1136
     25 C17         7.8569    8.8485   -1.1535 C.ar      1 <0>         0.0015
     26 C18         6.8117    9.6286   -1.6172 C.ar      1 <0>        -0.1136
     27 C19         5.5108    9.1773   -1.5126 C.ar      1 <0>         0.0270
     28 Cl1         4.2012   10.1526   -2.1019 Cl        1 <0>        -0.0136
     29 Cl2         9.4902    9.4191   -1.2955 Cl        1 <0>        -0.0446
     30 H2          0.9044    8.1239    0.1935 H         1 <0>         0.0664
     31 H3          1.0735    8.2539    1.9607 H         1 <0>         0.0553
     32 H4          2.5209    8.2673    0.9248 H         1 <0>         0.0594
     33 H5          2.2250    6.0584    2.0119 H         1 <0>         0.0826
     34 H6          0.2620    4.6596    1.3527 H         1 <0>         0.0553
     35 H7         -0.2220    6.1075    2.2679 H         1 <0>         0.0705
     36 H8         -0.4262    6.0624    0.5002 H         1 <0>         0.0628
     37 H9          0.3822    4.0400   -0.8252 H         1 <0>         0.3883
     38 H10        -0.6863    2.0274   -1.3491 H         1 <0>         0.1254
     39 H11        -1.7474   -0.1706   -1.8572 H         1 <0>         0.1431
     40 H12         0.3478   -3.8203   -1.1665 H         1 <0>         0.1409
     41 H13         2.2889   -2.5694   -0.3242 H         1 <0>         0.1438
     42 H14         2.4301    0.2027    0.8026 H         1 <0>         0.3974
     43 H15         4.3490    5.7051    0.0814 H         1 <0>         0.4099
     44 H16         6.1165    6.1926   -0.0098 H         1 <0>         0.1466
     45 H17         8.4251    7.0106   -0.2161 H         1 <0>         0.1493
     46 H18         7.0143   10.5896   -2.0663 H         1 <0>         0.1528
@<TRIPOS>BOND
     1    1    2 1
     2    1   30 1
     3    1   31 1
     4    1   32 1
     5    2    3 1
     6    2    4 1
     7    2   33 1
     8    3   34 1
     9    3   35 1
    10    3   36 1
    11    4    5 1
    12    4    6 1
    13    4   19 1
    14    6    7 2
    15    6    8 am
    16    8    9 1
    17    8   37 1
    18    9   10 2
    19   10   11 1
    20   10   38 1
    21   11   16 ar
    22   11   12 ar
    23   12   13 ar
    24   12   39 1
    25   13   14 ar
    26   13   18 1
    27   14   15 ar
    28   14   40 1
    29   15   16 ar
    30   15   41 1
    31   16   17 1
    32   17   42 1
    33   19   20 am
    34   19   43 1
    35   20   21 2
    36   20   22 1
    37   22   27 ar
    38   22   23 ar
    39   23   24 ar
    40   23   44 1
    41   24   25 ar
    42   24   45 1
    43   25   26 ar
    44   25   29 1
    45   26   27 ar
    46   26   46 1
    47   27   28 1
@<TRIPOS>MOLECULE
ZINC14562733
   57    59     0     0     0
SMALL
USER_CHARGES
N-[[4-[(2,4-dimethylphenyl)sulfamoyl]phenyl]carbamothioyl]-2-(o-tolyl)acetamide
@<TRIPOS>ATOM
      1 C1         -5.0510    2.0235    1.4362 C.3       1 <0>        -0.1151
      2 C2         -3.6250    1.6419    1.1331 C.ar      1 <0>        -0.0954
      3 C3         -2.9127    2.3400    0.1748 C.ar      1 <0>        -0.0962
      4 C4         -1.6062    1.9923   -0.1061 C.ar      1 <0>        -0.1658
      5 C5         -1.0071    0.9402    0.5755 C.ar      1 <0>         0.1468
      6 C6         -1.7268    0.2382    1.5337 C.ar      1 <0>        -0.0969
      7 C7         -3.0318    0.5943    1.8132 C.ar      1 <0>        -0.0993
      8 C8         -1.0832   -0.9077    2.2711 C.3       1 <0>        -0.1147
      9 N1          0.3141    0.5856    0.2935 N.pl3     1 <0>        -1.0522
     10 S1          1.4219    1.7556   -0.0888 S.o2      1 <0>         2.6907
     11 O1          2.6807    1.1046   -0.1929 O.2       1 <0>        -0.9452
     12 O2          0.8639    2.5100   -1.1559 O.2       1 <0>        -0.9458
     13 C9          1.5298    2.8425    1.2938 C.ar      1 <0>        -0.6680
     14 C10         0.7019    3.9475    1.3689 C.ar      1 <0>        -0.0090
     15 C11         0.7806    4.7988    2.4537 C.ar      1 <0>        -0.1389
     16 C12         1.7000    4.5498    3.4645 C.ar      1 <0>         0.1787
     17 C13         2.5337    3.4421    3.3834 C.ar      1 <0>        -0.0915
     18 C14         2.4463    2.5918    2.2985 C.ar      1 <0>        -0.0100
     19 N2          1.7856    5.4127    4.5620 N.pl3     1 <0>        -0.6294
     20 C15         2.9908    5.8244    5.0030 C.2       1 <0>         0.5064
     21 S2          4.4198    5.2049    4.2924 S.2       1 <0>        -0.4715
     22 N3          3.0710    6.7240    6.0035 N.am      1 <0>        -0.6421
     23 C16         4.2762    7.1357    6.4445 C.2       1 <0>         0.4822
     24 O3          5.2882    6.6970    5.9412 O.2       1 <0>        -0.3869
     25 C17         4.3658    8.1415    7.5631 C.3       1 <0>        -0.0944
     26 C18         5.8139    8.4305    7.8639 C.ar      1 <0>        -0.0806
     27 C19         6.4594    7.7465    8.8774 C.ar      1 <0>        -0.0994
     28 C20         7.7888    8.0082    9.1501 C.ar      1 <0>        -0.1241
     29 C21         8.4704    8.9613    8.4163 C.ar      1 <0>        -0.1087
     30 C22         7.8237    9.6489    7.4066 C.ar      1 <0>        -0.1189
     31 C23         6.4953    9.3834    7.1304 C.ar      1 <0>        -0.0649
     32 C24         5.7901   10.1334    6.0298 C.3       1 <0>        -0.1175
     33 H1         -5.7232    1.4611    0.7883 H         1 <0>         0.0714
     34 H2         -5.2747    1.7948    2.4782 H         1 <0>         0.0657
     35 H3         -5.1864    3.0909    1.2614 H         1 <0>         0.0669
     36 H4         -3.3790    3.1577   -0.3546 H         1 <0>         0.1294
     37 H5         -1.0508    2.5373   -0.8549 H         1 <0>         0.1615
     38 H6         -3.5908    0.0513    2.5608 H         1 <0>         0.1263
     39 H7         -0.5988   -0.5331    3.1729 H         1 <0>         0.0736
     40 H8         -1.8451   -1.6376    2.5444 H         1 <0>         0.0711
     41 H9         -0.3400   -1.3810    1.6294 H         1 <0>         0.0644
     42 H10         0.5818   -0.3465    0.3177 H         1 <0>         0.4266
     43 H11        -0.0100    4.1428    0.5806 H         1 <0>         0.1462
     44 H12         0.1306    5.6591    2.5140 H         1 <0>         0.1367
     45 H13         3.2494    3.2455    4.1679 H         1 <0>         0.1563
     46 H14         3.0941    1.7300    2.2350 H         1 <0>         0.1474
     47 H15         0.9777    5.7147    5.0058 H         1 <0>         0.4110
     48 H16         2.2613    7.0750    6.4061 H         1 <0>         0.4118
     49 H17         3.8659    9.0629    7.2643 H         1 <0>         0.1093
     50 H18         3.8832    7.7386    8.4535 H         1 <0>         0.1082
     51 H19         5.9257    7.0051    9.4535 H         1 <0>         0.1205
     52 H20         8.2940    7.4712    9.9393 H         1 <0>         0.1234
     53 H21         9.5080    9.1689    8.6323 H         1 <0>         0.1234
     54 H22         8.3560   10.3937    6.8337 H         1 <0>         0.1235
     55 H23         5.3360   11.0361    6.4385 H         1 <0>         0.0727
     56 H24         6.5091   10.4060    5.2574 H         1 <0>         0.0709
     57 H25         5.0150    9.5005    5.5977 H         1 <0>         0.0594
@<TRIPOS>BOND
     1    1    2 1
     2    1   33 1
     3    1   34 1
     4    1   35 1
     5    2    7 ar
     6    2    3 ar
     7    3    4 ar
     8    3   36 1
     9    4    5 ar
    10    4   37 1
    11    5    6 ar
    12    5    9 1
    13    6    7 ar
    14    6    8 1
    15    7   38 1
    16    8   39 1
    17    8   40 1
    18    8   41 1
    19    9   10 1
    20    9   42 1
    21   10   11 2
    22   10   12 2
    23   10   13 1
    24   13   18 ar
    25   13   14 ar
    26   14   15 ar
    27   14   43 1
    28   15   16 ar
    29   15   44 1
    30   16   17 ar
    31   16   19 1
    32   17   18 ar
    33   17   45 1
    34   18   46 1
    35   19   20 1
    36   19   47 1
    37   20   21 2
    38   20   22 1
    39   22   23 am
    40   22   48 1
    41   23   24 2
    42   23   25 1
    43   25   26 1
    44   25   49 1
    45   25   50 1
    46   26   31 ar
    47   26   27 ar
    48   27   28 ar
    49   27   51 1
    50   28   29 ar
    51   28   52 1
    52   29   30 ar
    53   29   53 1
    54   30   31 ar
    55   30   54 1
    56   31   32 1
    57   32   55 1
    58   32   56 1
    59   32   57 1
@<TRIPOS>MOLECULE
ZINC20117166
   64    67     0     0     0
SMALL
USER_CHARGES
(1R,5S)-3-isopentylsulfanyl-1,5-bis(p-tolyl)-2,4,8,10-tetrazaspiro[5.5]undec-3-ene-7,9,11-trione
@<TRIPOS>ATOM
      1 C1         -5.8671   12.5501   -3.0898 C.3       1 <0>        -0.1224
      2 C2         -5.2536   11.1739   -3.0593 C.ar      1 <0>        -0.0628
      3 C3         -4.6016   10.6829   -4.1749 C.ar      1 <0>        -0.1195
      4 C4         -4.0393    9.4204   -4.1470 C.ar      1 <0>        -0.0883
      5 C5         -4.1290    8.6489   -3.0035 C.ar      1 <0>        -0.1357
      6 C6         -4.7856    9.1378   -1.8896 C.ar      1 <0>        -0.0848
      7 C7         -5.3434   10.4024   -1.9158 C.ar      1 <0>        -0.1131
      8 C8         -3.5164    7.2724   -2.9733 C.3       1 <0>         0.2004
      9 H1         -2.7297    7.2203   -3.7404 H         1 <0>         0.1161
     10 C9         -4.6007    6.2178   -3.1953 C.3       1 <0>        -0.1866
     11 C10        -3.9244    4.8542   -3.1566 C.3       1 <0>         0.1919
     12 H2         -3.2525    4.7419   -4.0203 H         1 <0>         0.1200
     13 N1         -3.0933    4.7162   -1.9656 N.pl3     1 <0>        -0.6304
     14 C11        -2.6325    5.7239   -1.2960 C.cat     1 <0>         0.5061
     15 N2         -2.9163    7.0232   -1.6517 N.pl3     1 <0>        -0.6460
     16 S1         -1.6196    5.4239    0.1143 S.3       1 <0>         0.0430
     17 C12        -1.5951    3.6141    0.1043 C.3       1 <0>        -0.1551
     18 C13        -0.7496    3.1091    1.2752 C.3       1 <0>        -0.1004
     19 C14        -0.7288    1.5792    1.2668 C.3       1 <0>        -0.0904
     20 C15        -0.0127    1.0858    0.0080 C.3       1 <0>        -0.1569
     21 C16         0.0111    1.0724    2.5063 C.3       1 <0>        -0.1521
     22 C17        -4.9805    3.7792   -3.1504 C.ar      1 <0>        -0.1399
     23 C18        -5.6053    3.4309   -1.9676 C.ar      1 <0>        -0.0838
     24 C19        -6.5778    2.4485   -1.9628 C.ar      1 <0>        -0.1130
     25 C20        -6.9177    1.8067   -3.1390 C.ar      1 <0>        -0.0608
     26 C21        -6.2888    2.1510   -4.3209 C.ar      1 <0>        -0.1188
     27 C22        -5.3204    3.1374   -4.3267 C.ar      1 <0>        -0.0882
     28 C23        -7.9742    0.7321   -3.1329 C.3       1 <0>        -0.1228
     29 C24        -5.5687    6.2975   -2.0366 C.2       1 <0>         0.5342
     30 O1         -5.1986    6.1444   -0.8924 O.3       1 <0>        -0.5612
     31 N3         -6.8649    6.5464   -2.3309 N.2       1 <0>        -0.6791
     32 C25        -7.2807    6.7169   -3.5912 C.2       1 <0>         0.6667
     33 O2         -8.4625    6.9377   -3.7658 O.2       1 <0>        -0.5682
     34 N4         -6.4970    6.6628   -4.6744 N.am      1 <0>        -0.6961
     35 C26        -5.1694    6.4232   -4.5811 C.2       1 <0>         0.5613
     36 O3         -4.4652    6.3747   -5.5667 O.2       1 <0>        -0.5183
     37 H3         -5.6948   13.0065   -4.0757 H         1 <0>         0.0679
     38 H4         -5.4054   13.1747   -2.3108 H         1 <0>         0.0737
     39 H5         -6.9488   12.4735   -2.9051 H         1 <0>         0.0757
     40 H6         -4.5318   11.2855   -5.0684 H         1 <0>         0.1280
     41 H7         -3.5301    9.0367   -5.0188 H         1 <0>         0.1263
     42 H8         -4.8595    8.5334   -0.9977 H         1 <0>         0.1340
     43 H9         -5.8531   10.7859   -1.0443 H         1 <0>         0.1282
     44 H10        -2.7056    7.8650   -0.9758 H         1 <0>         0.4702
     45 H11        -2.6223    3.2330    0.2025 H         1 <0>         0.1131
     46 H12        -1.1609    3.2585   -0.8418 H         1 <0>         0.1109
     47 H13         0.2775    3.4903    1.1770 H         1 <0>         0.0844
     48 H14        -1.1838    3.4647    2.2213 H         1 <0>         0.0862
     49 H15        -1.7607    1.1983    1.2746 H         1 <0>         0.0781
     50 H16         0.0022   -0.0141    0.0020 H         1 <0>         0.0629
     51 H17         1.0193    1.4666    0.0002 H         1 <0>         0.0604
     52 H18        -0.5448    1.4502   -0.8831 H         1 <0>         0.0524
     53 H19         0.0260   -0.0275    2.5002 H         1 <0>         0.0621
     54 H20        -0.5038    1.4271    3.4113 H         1 <0>         0.0595
     55 H21         1.0431    1.4532    2.4985 H         1 <0>         0.0586
     56 H22        -5.3366    3.9292   -1.0478 H         1 <0>         0.1353
     57 H23        -7.0694    2.1797   -1.0395 H         1 <0>         0.1278
     58 H24        -6.5544    1.6496   -5.2399 H         1 <0>         0.1286
     59 H25        -4.8291    3.4064   -5.2500 H         1 <0>         0.1257
     60 H26        -8.1059    0.3416   -4.1528 H         1 <0>         0.0684
     61 H27        -8.9251    1.1548   -2.7765 H         1 <0>         0.0764
     62 H28        -7.6627   -0.0845   -2.4650 H         1 <0>         0.0735
     63 H29        -6.9294    6.8152   -5.6743 H         1 <0>         0.4284
     64 H30        -2.8626    3.6900   -1.6435 H         1 <0>         0.4588
@<TRIPOS>BOND
     1    1    2 1
     2    1   37 1
     3    1   38 1
     4    1   39 1
     5    2    7 ar
     6    2    3 ar
     7    3    4 ar
     8    3   40 1
     9    4    5 ar
    10    4   41 1
    11    5    6 ar
    12    5    8 1
    13    6    7 ar
    14    6   42 1
    15    7   43 1
    16    8    9 1
    17    8   15 1
    18    8   10 1
    19   10   35 1
    20   10   11 1
    21   10   29 1
    22   11   12 1
    23   11   13 1
    24   11   22 1
    25   13   14 2
    26   13   64 1
    27   14   15 1
    28   14   16 1
    29   15   44 1
    30   16   17 1
    31   17   18 1
    32   17   45 1
    33   17   46 1
    34   18   19 1
    35   18   47 1
    36   18   48 1
    37   19   20 1
    38   19   21 1
    39   19   49 1
    40   20   50 1
    41   20   51 1
    42   20   52 1
    43   21   53 1
    44   21   54 1
    45   21   55 1
    46   22   27 ar
    47   22   23 ar
    48   23   24 ar
    49   23   56 1
    50   24   25 ar
    51   24   57 1
    52   25   26 ar
    53   25   28 1
    54   26   27 ar
    55   26   58 1
    56   27   59 1
    57   28   60 1
    58   28   61 1
    59   28   62 1
    60   29   30 1
    61   29   31 2
    62   31   32 1
    63   32   33 2
    64   32   34 am
    65   34   35 am
    66   34   63 1
    67   35   36 2
@<TRIPOS>MOLECULE
ZINC35451130
   61    64     0     0     0
SMALL
USER_CHARGES

@<TRIPOS>ATOM
      1 C1         -0.0187    1.5258    0.0104 C.3       1 <0>        -0.1549
      2 C2          0.0021   -0.0041    0.0020 C.3       1 <0>        -0.1162
      3 C3         -1.4333   -0.5336    0.0129 C.3       1 <0>        -0.1100
      4 C4         -1.4126   -2.0635    0.0045 C.3       1 <0>        -0.0961
      5 S1         -3.1144   -2.6914    0.0173 S.3       1 <0>        -0.0009
      6 C5         -2.9226   -4.4429    0.0061 C.2       1 <0>         0.4010
      7 N1         -1.7104   -4.9591   -0.0028 N.2       1 <0>        -0.5628
      8 C6         -1.5244   -6.2835   -0.0105 C.2       1 <0>         0.4240
      9 C7         -2.6173   -7.1327   -0.0053 C.2       1 <0>        -0.2963
     10 C8         -3.9027   -6.5789    0.0023 C.2       1 <0>         0.5473
     11 O1         -4.8895   -7.2976    0.0043 O.2       1 <0>        -0.5173
     12 N2         -4.0307   -5.2352    0.0124 N.am      1 <0>        -0.6195
     13 C9         -2.4328   -8.6209   -0.0025 C.3       1 <0>         0.1002
     14 H1         -3.1538   -9.0710   -0.6850 H         1 <0>         0.0959
     15 C10        -1.0396   -9.0023   -0.4347 C.2       1 <0>        -0.2633
     16 C11        -0.0341   -8.1020   -0.4282 C.2       1 <0>         0.2210
     17 N3         -0.2484   -6.8115   -0.0269 N.pl3     1 <0>        -0.6229
     18 C12         1.3575   -8.4885   -0.8677 C.3       1 <0>        -0.0862
     19 C13         1.6062   -9.9641   -0.5480 C.3       1 <0>        -0.0526
     20 C14         0.5437  -10.8010   -1.2684 C.3       1 <0>        -0.1593
     21 C15        -0.8199  -10.3298   -0.8438 C.2       1 <0>         0.4025
     22 O2         -1.7502  -11.1114   -0.8546 O.2       1 <0>        -0.4588
     23 C16         1.5024  -10.1887    0.9619 C.3       1 <0>        -0.1541
     24 C17         2.9988  -10.3691   -1.0353 C.3       1 <0>        -0.1418
     25 C18        -2.6772   -9.1456    1.3889 C.ar      1 <0>        -0.0818
     26 C19        -1.8989   -8.6994    2.4409 C.ar      1 <0>        -0.0797
     27 C20        -2.1191   -9.1776    3.7191 C.ar      1 <0>        -0.1985
     28 C21        -3.1220  -10.1059    3.9483 C.ar      1 <0>         0.0991
     29 C22        -3.9056  -10.5547    2.8896 C.ar      1 <0>         0.0747
     30 C23        -3.6828  -10.0677    1.6116 C.ar      1 <0>        -0.0737
     31 O3         -4.8911  -11.4657    3.1095 O.3       1 <0>        -0.4854
     32 O4         -3.3396  -10.5777    5.2051 O.3       1 <0>        -0.3086
     33 C24        -2.4965  -10.0729    6.2426 C.3       1 <0>         0.0263
     34 H2          1.0039    1.9031    0.0027 H         1 <0>         0.0586
     35 H3         -0.5459    1.8868   -0.8726 H         1 <0>         0.0565
     36 H4         -0.5289    1.8773    0.9072 H         1 <0>         0.0564
     37 H5          0.5123   -0.3556   -0.8948 H         1 <0>         0.0667
     38 H6          0.5293   -0.3651    0.8851 H         1 <0>         0.0666
     39 H7         -1.9435   -0.1821    0.9097 H         1 <0>         0.0766
     40 H8         -1.9605   -0.1726   -0.8702 H         1 <0>         0.0767
     41 H9         -0.9024   -2.4150   -0.8923 H         1 <0>         0.1025
     42 H10        -0.8854   -2.4246    0.8875 H         1 <0>         0.1022
     43 H11         0.5025   -6.2625    0.2481 H         1 <0>         0.4207
     44 H12         1.4566   -8.3281   -1.9412 H         1 <0>         0.1029
     45 H13         2.0880   -7.8748   -0.3405 H         1 <0>         0.0912
     46 H14         0.6526  -10.6797   -2.3461 H         1 <0>         0.1014
     47 H15         0.6655  -11.8514   -1.0038 H         1 <0>         0.0991
     48 H16         0.5062   -9.9077    1.3034 H         1 <0>         0.0633
     49 H17         1.6801  -11.2405    1.1858 H         1 <0>         0.0636
     50 H18         2.2471   -9.5777    1.4721 H         1 <0>         0.0602
     51 H19         3.7506   -9.7591   -0.5346 H         1 <0>         0.0616
     52 H20         3.1724  -11.4205   -0.8060 H         1 <0>         0.0650
     53 H21         3.0654  -10.2164   -2.1125 H         1 <0>         0.0609
     54 H22        -1.1169   -7.9759    2.2635 H         1 <0>         0.1140
     55 H23        -1.5092   -8.8280    4.5390 H         1 <0>         0.1284
     56 H24        -4.2921  -10.4115    0.7888 H         1 <0>         0.1370
     57 H25        -5.7496  -11.0734    3.3196 H         1 <0>         0.3852
     58 H26        -2.7757  -10.5297    7.1921 H         1 <0>         0.1006
     59 H27        -1.4577  -10.3126    6.0155 H         1 <0>         0.0544
     60 H28        -2.6131   -8.9914    6.3115 H         1 <0>         0.0531
     61 H29        -4.9133   -4.8330    0.0205 H         1 <0>         0.4235
@<TRIPOS>BOND
     1    1    2 1
     2    1   34 1
     3    1   35 1
     4    1   36 1
     5    2    3 1
     6    2   37 1
     7    2   38 1
     8    3    4 1
     9    3   39 1
    10    3   40 1
    11    4    5 1
    12    4   41 1
    13    4   42 1
    14    5    6 1
    15    6   12 1
    16    6    7 2
    17    7    8 1
    18    8   17 1
    19    8    9 2
    20    9   10 1
    21    9   13 1
    22   10   11 2
    23   10   12 am
    24   12   61 1
    25   13   14 1
    26   13   15 1
    27   13   25 1
    28   15   21 1
    29   15   16 2
    30   16   17 1
    31   16   18 1
    32   17   43 1
    33   18   19 1
    34   18   44 1
    35   18   45 1
    36   19   20 1
    37   19   23 1
    38   19   24 1
    39   20   21 1
    40   20   46 1
    41   20   47 1
    42   21   22 2
    43   23   48 1
    44   23   49 1
    45   23   50 1
    46   24   51 1
    47   24   52 1
    48   24   53 1
    49   25   30 ar
    50   25   26 ar
    51   26   27 ar
    52   26   54 1
    53   27   28 ar
    54   27   55 1
    55   28   29 ar
    56   28   32 1
    57   29   30 ar
    58   29   31 1
    59   30   56 1
    60   31   57 1
    61   32   33 1
    62   33   58 1
    63   33   59 1
    64   33   60 1
@<TRIPOS>MOLECULE
ZINC62038745
   51    54     0     0     0
SMALL
USER_CHARGES

@<TRIPOS>ATOM
      1 C1          0.0133    1.5015    0.0940 C.3       1 <0>        -0.0692
      2 C2          0.0295   -0.0053    0.0746 C.2       1 <0>        -0.1381
      3 C3         -1.0231   -0.8578    0.0686 C.2       1 <0>        -0.0240
      4 C4         -0.7629   -2.2928    0.0484 C.2       1 <0>        -0.2239
      5 C5         -1.7193   -3.4235    0.0378 C.2       1 <0>         0.5462
      6 O1         -2.9223   -3.2134    0.0461 O.2       1 <0>        -0.4750
      7 N1         -1.2535   -4.6756    0.0187 N.2       1 <0>        -0.5890
      8 C6          0.0344   -4.9482    0.0088 C.2       1 <0>         0.4037
      9 N2          0.9701   -3.9572    0.0180 N.pl3     1 <0>        -0.5607
     10 C7          0.5859   -2.6509    0.0371 C.2       1 <0>         0.0775
     11 S1          1.4388   -1.0970    0.0460 S.3       1 <0>         0.1438
     12 S2          0.5597   -6.6299   -0.0164 S.3       1 <0>         0.0827
     13 C8         -0.9896   -7.5735   -0.0216 C.3       1 <0>        -0.1014
     14 H1         -1.6024   -7.2705    0.8274 H         1 <0>         0.1364
     15 C9         -1.7486   -7.3007   -1.3217 C.3       1 <0>        -0.1487
     16 C10        -0.6817   -9.0452    0.0810 C.2       1 <0>         0.5394
     17 O2          0.4222   -9.4555   -0.2093 O.2       1 <0>        -0.5036
     18 N3         -1.6330   -9.9054    0.4952 N.am      1 <0>        -0.6558
     19 C11        -1.3772  -11.2833    0.5012 C.ar      1 <0>         0.1024
     20 C12        -0.1098  -11.7496    0.7947 C.ar      1 <0>        -0.0549
     21 C13         0.1411  -13.1269    0.7995 C.ar      1 <0>        -0.1835
     22 C14        -0.8933  -14.0243    0.5069 C.ar      1 <0>        -0.0525
     23 C15        -2.1531  -13.5516    0.2156 C.ar      1 <0>        -0.1398
     24 C16        -2.4041  -12.1854    0.2163 C.ar      1 <0>         0.1212
     25 O3         -3.6496  -11.7258   -0.0662 O.3       1 <0>        -0.4922
     26 C17         1.4858  -13.6293    1.1101 C.2       1 <0>         0.3848
     27 O4          1.7014  -14.8229    1.1138 O.2       1 <0>        -0.4556
     28 C18        -2.4131   -0.3421    0.0828 C.ar      1 <0>        -0.0393
     29 C19        -3.2382   -0.5861    1.1797 C.ar      1 <0>        -0.0459
     30 C20        -4.5309   -0.1037    1.1885 C.ar      1 <0>        -0.1500
     31 C21        -5.0094    0.6216    0.1095 C.ar      1 <0>         0.1039
     32 C22        -4.1932    0.8662   -0.9830 C.ar      1 <0>        -0.1541
     33 C23        -2.8971    0.3932   -0.9982 C.ar      1 <0>        -0.0736
     34 F1         -6.2759    1.0916    0.1224 F         1 <0>        -0.1395
     35 H2          1.0369    1.8760    0.0886 H         1 <0>         0.0780
     36 H3         -0.5133    1.8706   -0.7861 H         1 <0>         0.0869
     37 H4         -0.4956    1.8478    0.9936 H         1 <0>         0.0872
     38 H5         -2.6795   -7.8677   -1.3248 H         1 <0>         0.0778
     39 H6         -1.9713   -6.2362   -1.3959 H         1 <0>         0.0977
     40 H7         -1.1358   -7.6037   -2.1706 H         1 <0>         0.0736
     41 H8         -2.4947   -9.5708    0.7892 H         1 <0>         0.4217
     42 H9          0.6848  -11.0536    1.0194 H         1 <0>         0.1546
     43 H10        -0.7027  -15.0873    0.5095 H         1 <0>         0.1416
     44 H11        -2.9497  -14.2452   -0.0098 H         1 <0>         0.1425
     45 H12        -3.8030  -11.5579   -1.0061 H         1 <0>         0.3971
     46 H13         2.2826  -12.9359    1.3352 H         1 <0>         0.1096
     47 H14        -2.8663   -1.1520    2.0210 H         1 <0>         0.1258
     48 H15        -5.1709   -0.2922    2.0378 H         1 <0>         0.1360
     49 H16        -4.5707    1.4315   -1.8222 H         1 <0>         0.1370
     50 H17        -2.2601    0.5884   -1.8482 H         1 <0>         0.1309
     51 H18         1.9133   -4.1833    0.0110 H         1 <0>         0.4305
@<TRIPOS>BOND
     1    1    2 1
     2    1   35 1
     3    1   36 1
     4    1   37 1
     5    2   11 1
     6    2    3 2
     7    3    4 1
     8    3   28 1
     9    4   10 2
    10    4    5 1
    11    5    6 2
    12    5    7 1
    13    7    8 2
    14    8    9 1
    15    8   12 1
    16    9   10 1
    17    9   51 1
    18   10   11 1
    19   12   13 1
    20   13   14 1
    21   13   15 1
    22   13   16 1
    23   15   38 1
    24   15   39 1
    25   15   40 1
    26   16   17 2
    27   16   18 am
    28   18   19 1
    29   18   41 1
    30   19   24 ar
    31   19   20 ar
    32   20   21 ar
    33   20   42 1
    34   21   22 ar
    35   21   26 1
    36   22   23 ar
    37   22   43 1
    38   23   24 ar
    39   23   44 1
    40   24   25 1
    41   25   45 1
    42   26   27 2
    43   26   46 1
    44   28   33 ar
    45   28   29 ar
    46   29   30 ar
    47   29   47 1
    48   30   31 ar
    49   30   48 1
    50   31   32 ar
    51   31   34 1
    52   32   33 ar
    53   32   49 1
    54   33   50 1
@<TRIPOS>MOLECULE
ZINC02713171
   52    55     0     0     0
SMALL
USER_CHARGES
N-(4-chlorophenyl)-2-[[8-[(4-fluorophenyl)methyl]-5-oxo-2,4,8-triazabicyclo[4.4.0]deca-2,11-dien-3-yl]sulfanyl]acetamide
@<TRIPOS>ATOM
      1 C1          5.4404    1.3174    0.0594 C.ar      1 <0>        -0.0599
      2 C2          6.4160    2.1072    0.6377 C.ar      1 <0>        -0.1491
      3 C3          6.7330    1.9462    1.9759 C.ar      1 <0>         0.1417
      4 C4          6.0684    0.9975    2.7344 C.ar      1 <0>        -0.1525
      5 C5          5.0895    0.2125    2.1553 C.ar      1 <0>        -0.0614
      6 C6          4.7738    0.3742    0.8191 C.ar      1 <0>        -0.1804
      7 C7          3.7065   -0.4828    0.1886 C.3       1 <0>         0.0543
      8 C8          1.3773   -0.5032   -0.4809 C.3       1 <0>         0.0013
      9 C9          0.0015   -0.0043   -0.0381 C.3       1 <0>        -0.1029
     10 C10        -0.0187    1.5025   -0.0203 C.2       1 <0>         0.2227
     11 C11         1.1282    2.2331   -0.0276 C.2       1 <0>        -0.3254
     12 C12         1.0412    3.6396   -0.0045 C.2       1 <0>         0.5480
     13 O1          2.0521    4.3228   -0.0072 O.2       1 <0>        -0.5111
     14 N1         -0.1767    4.2186    0.0211 N.am      1 <0>        -0.6107
     15 H1         -0.2574    5.1851    0.0377 H         1 <0>         0.4341
     16 C13        -1.2923    3.4374    0.0231 C.2       1 <0>         0.3761
     17 N2         -1.2009    2.1235    0.0087 N.2       1 <0>        -0.5533
     18 S1         -2.8823    4.1961    0.0525 S.3       1 <0>         0.1365
     19 C14        -3.9337    2.7228    0.0439 C.3       1 <0>        -0.1532
     20 C15        -5.3819    3.1390    0.0668 C.2       1 <0>         0.5296
     21 O2         -5.6744    4.3160    0.0869 O.2       1 <0>        -0.4997
     22 N3         -6.3521    2.2035    0.0649 N.am      1 <0>        -0.6592
     23 C16        -7.6933    2.5859    0.1837 C.ar      1 <0>         0.1358
     24 C17        -8.5877    1.7798    0.8756 C.ar      1 <0>        -0.1256
     25 C18        -9.9095    2.1617    0.9955 C.ar      1 <0>        -0.0907
     26 C19       -10.3452    3.3414    0.4179 C.ar      1 <0>        -0.0424
     27 C20        -9.4571    4.1439   -0.2765 C.ar      1 <0>        -0.0906
     28 C21        -8.1331    3.7691   -0.3949 C.ar      1 <0>        -0.1057
     29 Cl1       -12.0087    3.8156    0.5654 Cl        1 <0>        -0.0593
     30 C22         2.4892    1.5930   -0.0616 C.3       1 <0>         0.0809
     31 F1          7.6898    2.7145    2.5411 F         1 <0>        -0.1221
     32 H2          5.1958    1.4399   -0.9854 H         1 <0>         0.1416
     33 H3          6.9338    2.8468    0.0451 H         1 <0>         0.1500
     34 H4          6.3146    0.8713    3.7784 H         1 <0>         0.1493
     35 H5          4.5707   -0.5272    2.7468 H         1 <0>         0.1422
     36 H6          3.6753   -1.4508    0.6887 H         1 <0>         0.1423
     37 H7          3.9332   -0.6268   -0.8678 H         1 <0>         0.1413
     38 H8          1.4449   -1.5796   -0.3227 H         1 <0>         0.1469
     39 H9          1.5260   -0.2782   -1.5370 H         1 <0>         0.1384
     40 H10        -0.2154   -0.3809    0.9616 H         1 <0>         0.1220
     41 H11        -0.7560   -0.3682   -0.7323 H         1 <0>         0.1409
     42 H12        -3.7370    2.1413   -0.8568 H         1 <0>         0.1411
     43 H13        -3.7162    2.1160    0.9229 H         1 <0>         0.1412
     44 H14        -6.1209    1.2652   -0.0189 H         1 <0>         0.4171
     45 H15        -8.2490    0.8570    1.3230 H         1 <0>         0.1374
     46 H16       -10.6045    1.5373    1.5372 H         1 <0>         0.1417
     47 H17        -9.7996    5.0643   -0.7260 H         1 <0>         0.1408
     48 H18        -7.4403    4.3960   -0.9366 H         1 <0>         0.1481
     49 H19         3.1495    2.1149    0.6310 H         1 <0>         0.1411
     50 H20         2.8955    1.6664   -1.0703 H         1 <0>         0.1369
     51 N4          2.3922    0.1810    0.3450 N.4       1 <0>        -0.3947
     52 H21         2.1096    0.1342    1.3310 H         1 <0>         0.4288
@<TRIPOS>BOND
     1    1    6 ar
     2    1    2 ar
     3    1   32 1
     4    2    3 ar
     5    2   33 1
     6    3    4 ar
     7    3   31 1
     8    4    5 ar
     9    4   34 1
    10    5    6 ar
    11    5   35 1
    12    6    7 1
    13    7   36 1
    14    7   37 1
    15    7   51 1
    16    8    9 1
    17    8   38 1
    18    8   39 1
    19    8   51 1
    20    9   10 1
    21    9   40 1
    22    9   41 1
    23   10   17 1
    24   10   11 2
    25   11   12 1
    26   11   30 1
    27   12   13 2
    28   12   14 am
    29   14   15 1
    30   14   16 1
    31   16   17 2
    32   16   18 1
    33   18   19 1
    34   19   20 1
    35   19   42 1
    36   19   43 1
    37   20   21 2
    38   20   22 am
    39   22   23 1
    40   22   44 1
    41   23   28 ar
    42   23   24 ar
    43   24   25 ar
    44   24   45 1
    45   25   26 ar
    46   25   46 1
    47   26   27 ar
    48   26   29 1
    49   27   28 ar
    50   27   47 1
    51   28   48 1
    52   30   49 1
    53   30   50 1
    54   30   51 1
    55   51   52 1
@<TRIPOS>MOLECULE
ZINC15446453
   58    60     0     0     0
SMALL
USER_CHARGES
2-[methyl-[2-oxo-2-[[2-(trifluoromethyl)phenyl]amino]ethyl]amino]-N-[(S)-p-tolyl-(2-thienyl)methyl]acetamide
@<TRIPOS>ATOM
      1 C1         -6.7859   -5.9738    4.0333 C.3       1 <0>        -0.1240
      2 C2         -5.6068   -5.5120    3.2163 C.ar      1 <0>        -0.0667
      3 C3         -4.3509   -6.0372    3.4569 C.ar      1 <0>        -0.1131
      4 C4         -3.2695   -5.6139    2.7072 C.ar      1 <0>        -0.0914
      5 C5         -3.4437   -4.6650    1.7171 C.ar      1 <0>        -0.1151
      6 C6         -4.6986   -4.1356    1.4803 C.ar      1 <0>        -0.1050
      7 C7         -5.7810   -4.5628    2.2265 C.ar      1 <0>        -0.1143
      8 C8         -2.2647   -4.2032    0.9001 C.3       1 <0>         0.2852
      9 H1         -1.3416   -4.4312    1.4331 H         1 <0>         0.1234
     10 C9         -2.2657   -4.9131   -0.4292 C.2       1 <0>        -0.1732
     11 C10        -1.5322   -5.9814   -0.8269 C.2       1 <0>        -0.1256
     12 C11        -1.7036   -6.4728   -2.1075 C.2       1 <0>        -0.1584
     13 C12        -2.5922   -5.8653   -2.9312 C.2       1 <0>        -0.1564
     14 S1         -3.2275   -4.5605   -1.8913 S.3       1 <0>         0.0365
     15 N1         -2.3581   -2.7575    0.6817 N.am      1 <0>        -0.6981
     16 C13        -1.2433   -2.0387    0.4429 C.2       1 <0>         0.5050
     17 O1         -0.1629   -2.5886    0.4087 O.2       1 <0>        -0.5132
     18 C14        -1.3394   -0.5516    0.2182 C.3       1 <0>        -0.0289
     19 C15         0.5637   -0.5126   -1.2781 C.3       1 <0>        -0.0607
     20 C16        -0.0173    1.4643   -0.0067 C.3       1 <0>        -0.0260
     21 C17         1.3964    1.9864   -0.0061 C.2       1 <0>         0.5070
     22 O2          2.3291    1.2111   -0.0151 O.2       1 <0>        -0.4987
     23 N2          1.6242    3.3147    0.0044 N.am      1 <0>        -0.6531
     24 C18         2.9334    3.7992    0.1001 C.ar      1 <0>         0.1721
     25 C19         3.9765    3.1101   -0.5050 C.ar      1 <0>        -0.1168
     26 C20         5.2668    3.5935   -0.4128 C.ar      1 <0>        -0.0658
     27 C21         5.5223    4.7572    0.2897 C.ar      1 <0>        -0.1161
     28 C22         4.4868    5.4427    0.8975 C.ar      1 <0>        -0.0512
     29 C23         3.1933    4.9669    0.8049 C.ar      1 <0>        -0.2005
     30 C24         2.0654    5.7142    1.4687 C.3       1 <0>         0.5084
     31 F1          2.5723    6.8486    2.1116 F         1 <0>        -0.1646
     32 F2          1.1319    6.1040    0.5023 F         1 <0>        -0.1785
     33 F3          1.4450    4.8838    2.4082 F         1 <0>        -0.1767
     34 H2         -6.8890   -5.3392    4.9134 H         1 <0>         0.0766
     35 H3         -7.6923   -5.9103    3.4312 H         1 <0>         0.0713
     36 H4         -6.6291   -7.0062    4.3461 H         1 <0>         0.0718
     37 H5         -4.2148   -6.7785    4.2304 H         1 <0>         0.1303
     38 H6         -2.2883   -6.0242    2.8951 H         1 <0>         0.1274
     39 H7         -4.8339   -3.3911    0.7098 H         1 <0>         0.1172
     40 H8         -6.7621   -4.1522    2.0388 H         1 <0>         0.1286
     41 H9         -0.8266   -6.4435   -0.1524 H         1 <0>         0.1354
     42 H10        -1.1346   -7.3252   -2.4481 H         1 <0>         0.1399
     43 H11        -2.8490   -6.1074   -3.9519 H         1 <0>         0.1898
     44 H12        -3.2222   -2.3178    0.7090 H         1 <0>         0.4119
     45 H13        -1.7742   -0.0785    1.0986 H         1 <0>         0.1635
     46 H14        -1.9702   -0.3551   -0.6487 H         1 <0>         0.1669
     47 H15         1.5843   -0.1479   -1.3948 H         1 <0>         0.1376
     48 H16         0.5671   -1.6025   -1.2607 H         1 <0>         0.1404
     49 H17        -0.0442   -0.1645   -2.1132 H         1 <0>         0.1214
     50 H18        -0.5385    1.8279   -0.8922 H         1 <0>         0.1703
     51 H19        -0.5337    1.8130    0.8876 H         1 <0>         0.1668
     52 H20         0.8807    3.9348   -0.0545 H         1 <0>         0.4214
     53 H21         3.7783    2.1989   -1.0499 H         1 <0>         0.1505
     54 H22         6.0778    3.0599   -0.8859 H         1 <0>         0.1440
     55 H23         6.5328    5.1310    0.3638 H         1 <0>         0.1456
     56 H24         4.6896    6.3509    1.4457 H         1 <0>         0.1502
     57 N3          0.0201   -0.0132    0.0024 N.4       1 <0>        -0.3694
     58 H25         0.6284   -0.3268    0.7678 H         1 <0>         0.4448
@<TRIPOS>BOND
     1    1    2 1
     2    1   34 1
     3    1   35 1
     4    1   36 1
     5    2    7 ar
     6    2    3 ar
     7    3    4 ar
     8    3   37 1
     9    4    5 ar
    10    4   38 1
    11    5    6 ar
    12    5    8 1
    13    6    7 ar
    14    6   39 1
    15    7   40 1
    16    8    9 1
    17    8   10 1
    18    8   15 1
    19   10   14 1
    20   10   11 2
    21   11   12 1
    22   11   41 1
    23   12   13 2
    24   12   42 1
    25   13   14 1
    26   13   43 1
    27   15   16 am
    28   15   44 1
    29   16   17 2
    30   16   18 1
    31   18   45 1
    32   18   46 1
    33   18   57 1
    34   19   47 1
    35   19   48 1
    36   19   49 1
    37   19   57 1
    38   20   21 1
    39   20   50 1
    40   20   51 1
    41   20   57 1
    42   21   22 2
    43   21   23 am
    44   23   24 1
    45   23   52 1
    46   24   29 ar
    47   24   25 ar
    48   25   26 ar
    49   25   53 1
    50   26   27 ar
    51   26   54 1
    52   27   28 ar
    53   27   55 1
    54   28   29 ar
    55   28   56 1
    56   29   30 1
    57   30   31 1
    58   30   32 1
    59   30   33 1
    60   57   58 1
@<TRIPOS>MOLECULE
ZINC35746964
   66    69     0     0     0
SMALL
USER_CHARGES

@<TRIPOS>ATOM
      1 C1          0.3304    2.4185    1.5950 C.3       1 <0>        -0.1167
      2 C2          0.2967    0.9323    1.3478 C.ar      1 <0>        -0.0891
      3 C3          0.2673    0.4485    0.0519 C.ar      1 <0>        -0.1040
      4 C4          0.2358   -0.9143   -0.1828 C.ar      1 <0>        -0.1147
      5 C5          0.2337   -1.7997    0.8760 C.ar      1 <0>        -0.0486
      6 C6          0.2637   -1.3181    2.1838 C.ar      1 <0>        -0.0477
      7 C7          0.3010    0.0567    2.4140 C.ar      1 <0>        -0.0972
      8 C8          0.2610   -2.2639    3.3252 C.2       1 <0>        -0.0168
      9 C9         -0.7863   -2.3066    4.1838 C.2       1 <0>        -0.1576
     10 S1         -0.3155   -3.5735    5.3460 S.3       1 <0>         0.1959
     11 C10         1.2605   -4.0119    4.6591 C.2       1 <0>         0.0642
     12 C11         1.3826   -3.1700    3.5417 C.2       1 <0>        -0.1970
     13 C12         2.5869   -3.3183    2.7823 C.2       1 <0>         0.5525
     14 O1          2.7863   -2.6284    1.7972 O.2       1 <0>        -0.4718
     15 N1          3.4960   -4.2308    3.1727 N.am      1 <0>        -0.6240
     16 H1          4.3141   -4.3354    2.6621 H         1 <0>         0.4262
     17 C13         3.2908   -5.0073    4.2673 C.2       1 <0>         0.3591
     18 N2          2.2065   -4.8885    4.9857 N.2       1 <0>        -0.4876
     19 C14         4.3370   -6.0158    4.6665 C.3       1 <0>         0.0450
     20 N3          3.8940   -6.7301    5.8713 N.4       1 <0>        -0.3622
     21 C15         2.6937   -7.5177    5.5601 C.3       1 <0>         0.0251
     22 C16         3.0116   -8.5083    4.4699 C.ar      1 <0>        -0.1537
     23 C17         2.8615   -8.1484    3.1437 C.ar      1 <0>        -0.1042
     24 C18         3.1531   -9.0571    2.1436 C.ar      1 <0>        -0.1083
     25 C19         3.5953  -10.3256    2.4697 C.ar      1 <0>        -0.0838
     26 C20         3.7463  -10.6852    3.7959 C.ar      1 <0>        -0.1075
     27 C21         3.4588   -9.7751    4.7959 C.ar      1 <0>        -0.0995
     28 C22         4.9631   -7.6272    6.3296 C.3       1 <0>        -0.0582
     29 C23         4.5571   -8.2672    7.6587 C.3       1 <0>         0.0851
     30 H2          3.6234   -8.8142    7.5284 H         1 <0>         0.1242
     31 C24         5.6534   -9.2313    8.1165 C.3       1 <0>        -0.1449
     32 C25         5.1940   -9.9636    9.3788 C.3       1 <0>        -0.0888
     33 C26         6.2738  -10.9133    9.8297 C.2       1 <0>        -0.1737
     34 C27         6.7424  -10.8402   11.0508 C.2       1 <0>        -0.1755
     35 O2          4.3782   -7.2472    8.6435 O.3       1 <0>        -0.5498
     36 C28         0.1984   -3.2841    0.6187 C.3       1 <0>        -0.1132
     37 H3          1.3658    2.7570    1.6342 H         1 <0>         0.0712
     38 H4         -0.1898    2.9331    0.7871 H         1 <0>         0.0696
     39 H5         -0.1605    2.6404    2.5426 H         1 <0>         0.0669
     40 H6          0.2685    1.1376   -0.7797 H         1 <0>         0.1250
     41 H7          0.2126   -1.2862   -1.1964 H         1 <0>         0.1243
     42 H8          0.3288    0.4354    3.4251 H         1 <0>         0.1213
     43 H9         -1.6897   -1.7150    4.1679 H         1 <0>         0.2073
     44 H10         4.4831   -6.7285    3.8548 H         1 <0>         0.1650
     45 H11         5.2762   -5.5027    4.8731 H         1 <0>         0.1664
     46 H12         2.3680   -8.0519    6.4527 H         1 <0>         0.1417
     47 H13         1.8987   -6.8515    5.2251 H         1 <0>         0.1572
     48 H14         2.5160   -7.1574    2.8889 H         1 <0>         0.1214
     49 H15         3.0352   -8.7761    1.1075 H         1 <0>         0.1359
     50 H16         3.8225  -11.0357    1.6884 H         1 <0>         0.1373
     51 H17         4.0915  -11.6763    4.0507 H         1 <0>         0.1381
     52 H18         3.5803  -10.0548    5.8319 H         1 <0>         0.1322
     53 H19         5.1267   -8.4071    5.5859 H         1 <0>         0.1461
     54 H20         5.8820   -7.0572    6.4666 H         1 <0>         0.1390
     55 H21         5.8519   -9.9568    7.3275 H         1 <0>         0.0852
     56 H22         6.5631   -8.6711    8.3322 H         1 <0>         0.0814
     57 H23         4.9955   -9.2382   10.1678 H         1 <0>         0.0782
     58 H24         4.2842  -10.5239    9.1631 H         1 <0>         0.0746
     59 H25         6.6613  -11.6542    9.1460 H         1 <0>         0.1099
     60 H26         7.5162  -11.5208   11.3739 H         1 <0>         0.1016
     61 H27         6.3549  -10.0993   11.7345 H         1 <0>         0.0985
     62 H28         5.1707   -6.7192    8.8114 H         1 <0>         0.3892
     63 H29         1.2172   -3.6637    0.5406 H         1 <0>         0.0685
     64 H30        -0.3133   -3.7834    1.4414 H         1 <0>         0.0568
     65 H31        -0.3342   -3.4790   -0.3122 H         1 <0>         0.0681
     66 H32         3.6798   -6.0635    6.5979 H         1 <0>         0.4406
@<TRIPOS>BOND
     1    1    2 1
     2    1   37 1
     3    1   38 1
     4    1   39 1
     5    2    7 ar
     6    2    3 ar
     7    3    4 ar
     8    3   40 1
     9    4    5 ar
    10    4   41 1
    11    5    6 ar
    12    5   36 1
    13    6    7 ar
    14    6    8 1
    15    7   42 1
    16    8   12 1
    17    8    9 2
    18    9   10 1
    19    9   43 1
    20   10   11 1
    21   11   18 1
    22   11   12 2
    23   12   13 1
    24   13   14 2
    25   13   15 am
    26   15   16 1
    27   15   17 1
    28   17   18 2
    29   17   19 1
    30   19   20 1
    31   19   44 1
    32   19   45 1
    33   20   21 1
    34   20   28 1
    35   20   66 1
    36   21   22 1
    37   21   46 1
    38   21   47 1
    39   22   27 ar
    40   22   23 ar
    41   23   24 ar
    42   23   48 1
    43   24   25 ar
    44   24   49 1
    45   25   26 ar
    46   25   50 1
    47   26   27 ar
    48   26   51 1
    49   27   52 1
    50   28   29 1
    51   28   53 1
    52   28   54 1
    53   29   30 1
    54   29   31 1
    55   29   35 1
    56   31   32 1
    57   31   55 1
    58   31   56 1
    59   32   33 1
    60   32   57 1
    61   32   58 1
    62   33   34 2
    63   33   59 1
    64   34   60 1
    65   34   61 1
    66   35   62 1
    67   36   63 1
    68   36   64 1
    69   36   65 1
@<TRIPOS>MOLECULE
ZINC39923405
   59    63     0     0     0
SMALL
USER_CHARGES

@<TRIPOS>ATOM
      1 C1         -0.0184    1.5028    0.0103 C.3       1 <0>        -0.1203
      2 C2          0.0021   -0.0041    0.0020 C.ar      1 <0>        -0.0747
      3 C3          0.0057   -0.6887   -1.1989 C.ar      1 <0>        -0.1211
      4 C4          0.0245   -2.0709   -1.2065 C.ar      1 <0>        -0.0939
      5 C5          0.0400   -2.7685   -0.0132 C.ar      1 <0>        -0.1251
      6 C6          0.0373   -2.0839    1.1877 C.ar      1 <0>        -0.0996
      7 C7          0.0229   -0.7016    1.1953 C.ar      1 <0>        -0.1218
      8 C8          0.0595   -4.2753   -0.0215 C.3       1 <0>         0.1913
      9 N1          1.4468   -4.7457   -0.0317 N.pl3     1 <0>        -0.6166
     10 C9          2.2291   -5.0005   -1.1667 C.ar      1 <0>         0.1190
     11 C10         1.9239   -4.8849   -2.5177 C.ar      1 <0>        -0.1279
     12 C11         2.8720   -5.1986   -3.4725 C.ar      1 <0>        -0.1165
     13 C12         4.1283   -5.6287   -3.0880 C.ar      1 <0>        -0.1185
     14 C13         4.4410   -5.7467   -1.7474 C.ar      1 <0>        -0.1283
     15 C14         3.4940   -5.4331   -0.7797 C.ar      1 <0>         0.1110
     16 N2          3.5744   -5.4734    0.6192 N.pl3     1 <0>        -0.7347
     17 C15         2.2770   -5.0314    1.1445 C.3       1 <0>         0.4271
     18 H1          2.3993   -4.1309    1.7464 H         1 <0>         0.1188
     19 S1          1.5248   -6.3511    2.1361 S.3       1 <0>        -0.2225
     20 C16         1.4524   -7.7651    1.0021 C.3       1 <0>        -0.1068
     21 C17         0.8393   -8.9458    1.7100 C.2       1 <0>         0.5466
     22 O1          0.4861   -8.8435    2.8655 O.2       1 <0>        -0.4498
     23 N3          0.6835  -10.1155    1.0588 N.am      1 <0>        -0.5540
     24 N4          0.1136  -11.2131    1.7169 N.2       1 <0>        -0.1248
     25 C18        -0.0377  -12.3494    1.0843 C.2       1 <0>         0.0317
     26 C19        -0.6082  -13.4480    1.7430 C.2       1 <0>         0.1317
     27 C20        -0.8331  -14.7193    1.2204 C.ar      1 <0>        -0.1484
     28 C21        -0.5834  -15.2877   -0.0485 C.ar      1 <0>        -0.0240
     29 C22        -0.9140  -16.5825   -0.2825 C.ar      1 <0>        -0.1412
     30 C23        -1.5005  -17.3792    0.7052 C.ar      1 <0>         0.0410
     31 C24        -1.7686  -16.9014    1.9439 C.ar      1 <0>        -0.1998
     32 C25        -1.4511  -15.5546    2.2651 C.ar      1 <0>         0.3140
     33 N5         -1.6083  -14.8632    3.3742 N.pl3     1 <0>        -0.5894
     34 C26        -1.1021  -13.5022    3.1718 C.3       1 <0>         0.0704
     35 H2          1.0042    1.8801    0.0026 H         1 <0>         0.0729
     36 H3         -0.5455    1.8639   -0.8728 H         1 <0>         0.0688
     37 H4         -0.5286    1.8543    0.9071 H         1 <0>         0.0686
     38 H5         -0.0064   -0.1436   -2.1312 H         1 <0>         0.1234
     39 H6          0.0266   -2.6057   -2.1448 H         1 <0>         0.1193
     40 H7          0.0491   -2.6289    2.1200 H         1 <0>         0.1204
     41 H8          0.0245   -0.1667    2.1335 H         1 <0>         0.1234
     42 H9         -0.4447   -4.6501    0.8693 H         1 <0>         0.0970
     43 H10        -0.4546   -4.6404   -0.9106 H         1 <0>         0.0884
     44 H11         0.9434   -4.5496   -2.8218 H         1 <0>         0.1191
     45 H12         2.6310   -5.1078   -4.5213 H         1 <0>         0.1257
     46 H13         4.8668   -5.8733   -3.8371 H         1 <0>         0.1258
     47 H14         5.4233   -6.0834   -1.4509 H         1 <0>         0.1212
     48 H15         4.3458   -5.7403    1.1431 H         1 <0>         0.4315
     49 H16         0.8443   -7.5052    0.1356 H         1 <0>         0.1199
     50 H17         2.4603   -8.0207    0.6753 H         1 <0>         0.1204
     51 H18         0.9661  -10.1973    0.1345 H         1 <0>         0.4070
     52 H19         0.2769  -12.4405    0.0552 H         1 <0>         0.1598
     53 H20        -0.1315  -14.6938   -0.8292 H         1 <0>         0.1562
     54 H21        -0.7195  -17.0081   -1.2559 H         1 <0>         0.1562
     55 H22        -1.7472  -18.4049    0.4739 H         1 <0>         0.1608
     56 H23        -2.2221  -17.5425    2.6853 H         1 <0>         0.1607
     57 H24        -0.2821  -13.2982    3.8603 H         1 <0>         0.1781
     58 H25        -1.9050  -12.7799    3.3190 H         1 <0>         0.1775
     59 H26        -1.9945  -15.2021    4.1969 H         1 <0>         0.4549
@<TRIPOS>BOND
     1    1    2 1
     2    1   35 1
     3    1   36 1
     4    1   37 1
     5    2    7 ar
     6    2    3 ar
     7    3    4 ar
     8    3   38 1
     9    4    5 ar
    10    4   39 1
    11    5    6 ar
    12    5    8 1
    13    6    7 ar
    14    6   40 1
    15    7   41 1
    16    8    9 1
    17    8   42 1
    18    8   43 1
    19    9   17 1
    20    9   10 1
    21   10   15 ar
    22   10   11 ar
    23   11   12 ar
    24   11   44 1
    25   12   13 ar
    26   12   45 1
    27   13   14 ar
    28   13   46 1
    29   14   15 ar
    30   14   47 1
    31   15   16 1
    32   16   17 1
    33   16   48 1
    34   17   18 1
    35   17   19 1
    36   19   20 1
    37   20   21 1
    38   20   49 1
    39   20   50 1
    40   21   22 2
    41   21   23 am
    42   23   24 1
    43   23   51 1
    44   24   25 2
    45   25   26 1
    46   25   52 1
    47   26   34 1
    48   26   27 2
    49   27   32 ar
    50   27   28 ar
    51   28   29 ar
    52   28   53 1
    53   29   30 ar
    54   29   54 1
    55   30   31 ar
    56   30   55 1
    57   31   32 ar
    58   31   56 1
    59   32   33 2
    60   33   34 1
    61   33   59 1
    62   34   57 1
    63   34   58 1
@<TRIPOS>MOLECULE
ZINC64212969
   57    60     0     0     0
SMALL
USER_CHARGES

@<TRIPOS>ATOM
      1 C1          0.5040    0.4284   -0.1511 C.3       1 <0>        -0.1632
      2 C2          0.1240   -1.0507   -0.2442 C.3       1 <0>         0.1856
      3 H1          0.4819   -1.4590   -1.1894 H         1 <0>         0.1064
      4 C3          0.7538   -1.8042    0.8989 C.ar      1 <0>        -0.1180
      5 C4          0.1695   -1.7738    2.1514 C.ar      1 <0>        -0.0869
      6 C5          0.7459   -2.4647    3.2003 C.ar      1 <0>        -0.1482
      7 C6          1.9091   -3.1875    2.9964 C.ar      1 <0>         0.1116
      8 C7          2.4935   -3.2172    1.7415 C.ar      1 <0>        -0.1456
      9 C8          1.9124   -2.5298    0.6929 C.ar      1 <0>        -0.0724
     10 F1          2.4737   -3.8629    4.0212 F         1 <0>        -0.1319
     11 N1         -1.3330   -1.1859   -0.1743 N.am      1 <0>        -0.7182
     12 C9         -2.0761   -1.0578   -1.2915 C.2       1 <0>         0.5009
     13 O1         -1.5384   -0.8306   -2.3546 O.2       1 <0>        -0.5172
     14 C10        -3.5749   -1.1969   -1.2196 C.3       1 <0>         0.1342
     15 H2         -3.8303   -2.1884   -0.8457 H         1 <0>         0.1489
     16 C11        -4.1410   -0.1344   -0.2753 C.3       1 <0>        -0.1026
     17 C12        -3.8743    1.2358   -0.8432 C.2       1 <0>         0.0604
     18 C13        -4.7102    1.9766   -1.6060 C.ar      1 <0>        -0.1599
     19 C14        -6.0653    1.7372   -2.1168 C.ar      1 <0>        -0.0088
     20 C15        -6.6586    2.6882   -2.8736 C.ar      1 <0>        -0.1494
     21 C16        -6.0131    3.8936   -3.1820 C.ar      1 <0>         0.0579
     22 C17        -4.7683    4.1857   -2.7494 C.ar      1 <0>        -0.2101
     23 C18        -4.0505    3.2577   -1.9455 C.ar      1 <0>         0.3288
     24 N2         -2.8535    3.3069   -1.4133 N.pl3     1 <0>        -0.5823
     25 C19        -2.6205    2.0636   -0.6700 C.3       1 <0>         0.0532
     26 N3         -4.1467   -1.0167   -2.5563 N.am      1 <0>        -0.7198
     27 C20        -5.3134   -1.6110   -2.8758 C.2       1 <0>         0.5612
     28 O2         -5.8913   -2.2965   -2.0549 O.2       1 <0>        -0.4971
     29 C21        -5.8902   -1.4293   -4.2241 C.ar      1 <0>        -0.1426
     30 C22        -5.2264   -0.6474   -5.1714 C.ar      1 <0>        -0.0746
     31 C23        -5.7698   -0.4822   -6.4280 C.ar      1 <0>        -0.1227
     32 C24        -6.9710   -1.0889   -6.7520 C.ar      1 <0>        -0.0694
     33 C25        -7.6350   -1.8645   -5.8195 C.ar      1 <0>        -0.1173
     34 C26        -7.0993   -2.0438   -4.5588 C.ar      1 <0>         0.0174
     35 Cl1        -7.9299   -3.0241   -3.3914 Cl        1 <0>        -0.0218
     36 H3          1.5881    0.5290   -0.2031 H         1 <0>         0.0819
     37 H4          0.0485    0.9733   -0.9779 H         1 <0>         0.0566
     38 H5          0.1462    0.8366    0.7941 H         1 <0>         0.0643
     39 H6         -0.7377   -1.2097    2.3103 H         1 <0>         0.1283
     40 H7          0.2894   -2.4406    4.1788 H         1 <0>         0.1411
     41 H8          3.4010   -3.7804    1.5814 H         1 <0>         0.1429
     42 H9          2.3656   -2.5564   -0.2871 H         1 <0>         0.1375
     43 H10        -1.7630   -1.3676    0.6759 H         1 <0>         0.4058
     44 H11        -5.2158   -0.2800   -0.1671 H         1 <0>         0.1317
     45 H12        -3.6623   -0.2230    0.7000 H         1 <0>         0.1250
     46 H13        -6.5808    0.8152   -1.8918 H         1 <0>         0.1562
     47 H14        -7.6556    2.5141   -3.2504 H         1 <0>         0.1574
     48 H15        -6.5330    4.6182   -3.7912 H         1 <0>         0.1615
     49 H16        -4.3149    5.1291   -3.0154 H         1 <0>         0.1612
     50 H17        -2.4558    2.2797    0.3855 H         1 <0>         0.1746
     51 H18        -1.7616    1.5358   -1.0846 H         1 <0>         0.1682
     52 H19        -3.6857   -0.4698   -3.2114 H         1 <0>         0.4087
     53 H20        -4.2894   -0.1726   -4.9204 H         1 <0>         0.1284
     54 H21        -5.2569    0.1225   -7.1613 H         1 <0>         0.1380
     55 H22        -7.3918   -0.9556   -7.7376 H         1 <0>         0.1425
     56 H23        -8.5723   -2.3345   -6.0787 H         1 <0>         0.1457
     57 H24        -2.2279    4.0439   -1.4941 H         1 <0>         0.4560
@<TRIPOS>BOND
     1    1    2 1
     2    1   36 1
     3    1   37 1
     4    1   38 1
     5    2    3 1
     6    2    4 1
     7    2   11 1
     8    4    9 ar
     9    4    5 ar
    10    5    6 ar
    11    5   39 1
    12    6    7 ar
    13    6   40 1
    14    7    8 ar
    15    7   10 1
    16    8    9 ar
    17    8   41 1
    18    9   42 1
    19   11   12 am
    20   11   43 1
    21   12   13 2
    22   12   14 1
    23   14   15 1
    24   14   16 1
    25   14   26 1
    26   16   17 1
    27   16   44 1
    28   16   45 1
    29   17   25 1
    30   17   18 2
    31   18   23 ar
    32   18   19 ar
    33   19   20 ar
    34   19   46 1
    35   20   21 ar
    36   20   47 1
    37   21   22 ar
    38   21   48 1
    39   22   23 ar
    40   22   49 1
    41   23   24 2
    42   24   25 1
    43   24   57 1
    44   25   50 1
    45   25   51 1
    46   26   27 am
    47   26   52 1
    48   27   28 2
    49   27   29 1
    50   29   34 ar
    51   29   30 ar
    52   30   31 ar
    53   30   53 1
    54   31   32 ar
    55   31   54 1
    56   32   33 ar
    57   32   55 1
    58   33   34 ar
    59   33   56 1
    60   34   35 1
@<TRIPOS>MOLECULE
ZINC14467012
   41    44     0     0     0
SMALL
USER_CHARGES
(3aS,4R,9bR)-4-(3,5-dichloro-2-hydroxy-phenyl)-3a,4,5,9b-tetrahydro-3H-cyclopenta[c]quinoline-8-carboxamide
@<TRIPOS>ATOM
      1 C1          5.0728    0.5657    0.5559 C.ar      1 <0>        -0.0418
      2 C2          4.6473    1.6124   -0.2293 C.ar      1 <0>        -0.1963
      3 C3          3.9528    2.6775    0.3386 C.ar      1 <0>         0.2399
      4 C4          3.6817    2.7016    1.7020 C.ar      1 <0>        -0.1471
      5 C5          4.1088    1.6493    2.4916 C.ar      1 <0>        -0.0115
      6 C6          4.8032    0.5789    1.9273 C.ar      1 <0>        -0.1895
      7 C7          5.2524   -0.5394    2.7780 C.2       1 <0>         0.5669
      8 O1          5.0175   -0.5282    3.9710 O.2       1 <0>        -0.5453
      9 N1          5.9233   -1.5735    2.2330 N.am      1 <0>        -0.8545
     10 C8          2.9414    3.8283    2.3509 C.3       1 <0>        -0.0134
     11 H1          3.4647    4.1358    3.2562 H         1 <0>         0.0953
     12 C9          1.5259    3.4298    2.6955 C.2       1 <0>        -0.1617
     13 C10         0.7110    4.4474    2.5152 C.2       1 <0>        -0.1563
     14 C11         1.4765    5.6626    2.0288 C.3       1 <0>        -0.1068
     15 C12         2.7765    5.0535    1.4264 C.3       1 <0>        -0.0938
     16 H2          3.6321    5.7279    1.4598 H         1 <0>         0.1032
     17 C13         2.4475    4.5895    0.0048 C.3       1 <0>         0.2076
     18 H3          2.3541    5.4562   -0.6496 H         1 <0>         0.1065
     19 N2          3.5292    3.7246   -0.4770 N.pl3     1 <0>        -0.7395
     20 C14         1.1515    3.8205    0.0120 C.ar      1 <0>        -0.0860
     21 C15         1.1593    2.4547    0.2222 C.ar      1 <0>        -0.0773
     22 C16        -0.0298    1.7479    0.2300 C.ar      1 <0>        -0.0317
     23 C17        -1.2294    2.4057    0.0212 C.ar      1 <0>        -0.0939
     24 C18        -1.2421    3.7724   -0.1841 C.ar      1 <0>        -0.0505
     25 C19        -0.0493    4.4831   -0.1917 C.ar      1 <0>         0.1302
     26 O2         -0.0589    5.8267   -0.3982 O.3       1 <0>        -0.4774
     27 Cl1        -2.7475    4.5988   -0.4383 Cl        1 <0>        -0.0441
     28 Cl2        -0.0167    0.0323    0.4949 Cl        1 <0>        -0.0530
     29 H4          5.6112   -0.2605    0.1155 H         1 <0>         0.1272
     30 H5          4.8524    1.6079   -1.2896 H         1 <0>         0.1301
     31 H6          3.9030    1.6561    3.5518 H         1 <0>         0.1356
     32 H7          6.1107   -1.5824    1.2813 H         1 <0>         0.3994
     33 H8          6.2187   -2.3088    2.7924 H         1 <0>         0.4044
     34 H9          1.2264    2.4510    3.0399 H         1 <0>         0.1245
     35 H10        -0.3548    4.4198    2.6875 H         1 <0>         0.1217
     36 H11         1.7129    6.3259    2.8607 H         1 <0>         0.0784
     37 H12         0.9113    6.1946    1.2635 H         1 <0>         0.1019
     38 H13         3.9395    3.8775   -1.3425 H         1 <0>         0.4094
     39 H14         2.0947    1.9386    0.3809 H         1 <0>         0.1531
     40 H15        -2.1563    1.8514    0.0229 H         1 <0>         0.1456
     41 H16         0.0125    6.0823   -1.3281 H         1 <0>         0.3907
@<TRIPOS>BOND
     1    1    6 ar
     2    1    2 ar
     3    1   29 1
     4    2    3 ar
     5    2   30 1
     6    3   19 1
     7    3    4 ar
     8    4    5 ar
     9    4   10 1
    10    5    6 ar
    11    5   31 1
    12    6    7 1
    13    7    8 2
    14    7    9 am
    15    9   32 1
    16    9   33 1
    17   10   11 1
    18   10   15 1
    19   10   12 1
    20   12   13 2
    21   12   34 1
    22   13   14 1
    23   13   35 1
    24   14   15 1
    25   14   36 1
    26   14   37 1
    27   15   16 1
    28   15   17 1
    29   17   18 1
    30   17   19 1
    31   17   20 1
    32   19   38 1
    33   20   25 ar
    34   20   21 ar
    35   21   22 ar
    36   21   39 1
    37   22   23 ar
    38   22   28 1
    39   23   24 ar
    40   23   40 1
    41   24   25 ar
    42   24   27 1
    43   25   26 1
    44   26   41 1
@<TRIPOS>MOLECULE
ZINC35341435
   34    36     0     0     0
SMALL
USER_CHARGES

@<TRIPOS>ATOM
      1 C1          0.3593    1.0654    1.3922 C.ar      1 <0>        -0.1091
      2 C2          1.5046    1.8034    1.1635 C.ar      1 <0>        -0.1222
      3 C3          2.4235    1.3806    0.2122 C.ar      1 <0>         0.1965
      4 C4          2.1884    0.2151   -0.5081 C.ar      1 <0>        -0.1067
      5 C5          1.0416   -0.5194   -0.2757 C.ar      1 <0>        -0.0987
      6 C6          0.1270   -0.0951    0.6738 C.ar      1 <0>         0.0813
      7 F1         -0.9938   -0.8149    0.8995 F         1 <0>        -0.1324
      8 Br1         3.4367   -0.3641   -1.8050 Br        1 <0>        -0.0298
      9 N1          3.5832    2.1263   -0.0212 N.pl3     1 <0>        -0.6806
     10 C7          3.5128    3.5239   -0.1060 C.ar      1 <0>         0.1034
     11 C8          2.2806    4.1598   -0.0772 C.ar      1 <0>        -0.1047
     12 C9          2.2103    5.5373   -0.1608 C.ar      1 <0>        -0.1357
     13 C10         3.3726    6.2891   -0.2742 C.ar      1 <0>         0.1712
     14 C11         4.6086    5.6579   -0.3031 C.ar      1 <0>        -0.1933
     15 C12         4.6822    4.2766   -0.2137 C.ar      1 <0>         0.2038
     16 N2          5.9274    3.6379   -0.2372 N.pl3     1 <0>        -0.8762
     17 N3          3.2954    7.6850   -0.3589 N.am      1 <0>        -0.6621
     18 C13         2.1824    8.3314    0.0335 C.2       1 <0>         0.5214
     19 O1          2.1264    9.5394   -0.0596 O.2       1 <0>        -0.5295
     20 C14         1.0062    7.5724    0.5861 C.3       1 <0>        -0.1382
     21 C15         0.8714    6.2281   -0.1296 C.3       1 <0>        -0.0712
     22 H1         -0.3533    1.3917    2.1352 H         1 <0>         0.1473
     23 H2          1.6849    2.7087    1.7241 H         1 <0>         0.1500
     24 H3          0.8582   -1.4250   -0.8349 H         1 <0>         0.1484
     25 H4          4.4364    1.6765   -0.1245 H         1 <0>         0.4075
     26 H5          1.3751    3.5777    0.0102 H         1 <0>         0.1383
     27 H6          5.5123    6.2427   -0.3914 H         1 <0>         0.1312
     28 H7          5.9777    2.6710   -0.1786 H         1 <0>         0.3941
     29 H8          6.7401    4.1622   -0.3121 H         1 <0>         0.4037
     30 H9          4.0496    8.1892   -0.7024 H         1 <0>         0.4098
     31 H10         1.1541    7.4017    1.6524 H         1 <0>         0.1038
     32 H11         0.0970    8.1549    0.4367 H         1 <0>         0.1085
     33 H12         0.5240    6.3929   -1.1496 H         1 <0>         0.0808
     34 H13         0.1531    5.6040    0.4021 H         1 <0>         0.0894
@<TRIPOS>BOND
     1    1    6 ar
     2    1    2 ar
     3    1   22 1
     4    2    3 ar
     5    2   23 1
     6    3    4 ar
     7    3    9 1
     8    4    5 ar
     9    4    8 1
    10    5    6 ar
    11    5   24 1
    12    6    7 1
    13    9   10 1
    14    9   25 1
    15   10   15 ar
    16   10   11 ar
    17   11   12 ar
    18   11   26 1
    19   12   21 1
    20   12   13 ar
    21   13   14 ar
    22   13   17 1
    23   14   15 ar
    24   14   27 1
    25   15   16 1
    26   16   28 1
    27   16   29 1
    28   17   18 am
    29   17   30 1
    30   18   19 2
    31   18   20 1
    32   20   21 1
    33   20   31 1
    34   20   32 1
    35   21   33 1
    36   21   34 1
@<TRIPOS>MOLECULE
ZINC40756022
   46    48     0     0     0
SMALL
USER_CHARGES

@<TRIPOS>ATOM
      1 C1          0.0662    1.2438   -0.6294 C.ar      1 <0>        -0.0786
      2 C2          1.2515    1.9534   -0.6236 C.ar      1 <0>        -0.1082
      3 C3          2.3818    1.4099   -0.0280 C.ar      1 <0>         0.1917
      4 C4          2.3172    0.1522    0.5610 C.ar      1 <0>        -0.0735
      5 C5          1.1289   -0.5527    0.5521 C.ar      1 <0>        -0.0768
      6 C6          0.0042   -0.0076   -0.0426 C.ar      1 <0>        -0.0533
      7 Cl1        -1.4874   -0.8957   -0.0517 Cl        1 <0>        -0.0613
      8 Cl2         3.7279   -0.5318    1.3064 Cl        1 <0>        -0.0595
      9 N1          3.5833    2.1260   -0.0212 N.pl3     1 <0>        -0.6484
     10 C7          3.5666    3.5128   -0.1190 C.ar      1 <0>         0.3813
     11 C8          4.7588    4.2295   -0.2386 C.ar      1 <0>         0.0101
     12 C9          4.6850    5.6203   -0.3339 C.ar      1 <0>         0.4106
     13 N2          3.4900    6.2058   -0.3074 N.ar      1 <0>        -0.5627
     14 C10         2.3884    5.4919   -0.1932 C.ar      1 <0>         0.3246
     15 N3          2.4135    4.1774   -0.1057 N.ar      1 <0>        -0.5619
     16 N4          5.8414    6.3817   -0.4542 N.pl3     1 <0>        -0.7170
     17 C11         5.7509    7.8405   -0.5534 C.3       1 <0>         0.1418
     18 C12         7.1568    8.4316   -0.6757 C.3       1 <0>        -0.1005
     19 C13         7.0637    9.9322   -0.7778 C.2       1 <0>        -0.1204
     20 C14         7.1952   10.6238    0.3085 C.2       1 <0>        -0.1461
     21 C15         7.1161   12.1213    0.3666 C.3       1 <0>        -0.0917
     22 C16         7.2888   12.7130   -1.0340 C.3       1 <0>        -0.1219
     23 C17         6.3428   11.9773   -1.9915 C.3       1 <0>        -0.1208
     24 C18         6.8303   10.5321   -2.1334 C.3       1 <0>        -0.0832
     25 N5          5.9980    3.5695   -0.2618 N.pl3     1 <0>        -0.8752
     26 H1         -0.8143    1.6683   -1.0887 H         1 <0>         0.1425
     27 H2          1.2990    2.9300   -1.0822 H         1 <0>         0.1700
     28 H3          1.0778   -1.5299    1.0091 H         1 <0>         0.1454
     29 H4          4.4282    1.6551    0.0519 H         1 <0>         0.4161
     30 H5          1.4354    5.9996   -0.1750 H         1 <0>         0.1988
     31 H6          6.7085    5.9472   -0.4724 H         1 <0>         0.4033
     32 H7          5.1660    8.1092   -1.4331 H         1 <0>         0.0681
     33 H8          5.2668    8.2361    0.3395 H         1 <0>         0.0675
     34 H9          7.7417    8.1628    0.2040 H         1 <0>         0.0721
     35 H10         7.6409    8.0360   -1.5686 H         1 <0>         0.0737
     36 H11         7.3725   10.0899    1.2304 H         1 <0>         0.1024
     37 H12         6.1460   12.4166    0.7665 H         1 <0>         0.0744
     38 H13         7.9036   12.4996    1.0183 H         1 <0>         0.0709
     39 H14         7.0402   13.7741   -1.0167 H         1 <0>         0.0652
     40 H15         8.3194   12.5802   -1.3633 H         1 <0>         0.0635
     41 H16         5.3307   11.9882   -1.5869 H         1 <0>         0.0660
     42 H17         6.3562   12.4648   -2.9663 H         1 <0>         0.0656
     43 H18         7.7606   10.5150   -2.7011 H         1 <0>         0.0725
     44 H19         6.0762    9.9487   -2.6617 H         1 <0>         0.0714
     45 H20         6.0338    2.6025   -0.1943 H         1 <0>         0.3948
     46 H21         6.8182    4.0806   -0.3454 H         1 <0>         0.3968
@<TRIPOS>BOND
     1    1    6 ar
     2    1    2 ar
     3    1   26 1
     4    2    3 ar
     5    2   27 1
     6    3    4 ar
     7    3    9 1
     8    4    5 ar
     9    4    8 1
    10    5    6 ar
    11    5   28 1
    12    6    7 1
    13    9   10 1
    14    9   29 1
    15   10   15 ar
    16   10   11 ar
    17   11   12 ar
    18   11   25 1
    19   12   13 ar
    20   12   16 1
    21   13   14 ar
    22   14   15 ar
    23   14   30 1
    24   16   17 1
    25   16   31 1
    26   17   18 1
    27   17   32 1
    28   17   33 1
    29   18   19 1
    30   18   34 1
    31   18   35 1
    32   19   24 1
    33   19   20 2
    34   20   21 1
    35   20   36 1
    36   21   22 1
    37   21   37 1
    38   21   38 1
    39   22   23 1
    40   22   39 1
    41   22   40 1
    42   23   24 1
    43   23   41 1
    44   23   42 1
    45   24   43 1
    46   24   44 1
    47   25   45 1
    48   25   46 1
@<TRIPOS>MOLECULE
ZINC49152274
   31    33     0     0     0
SMALL
USER_CHARGES

@<TRIPOS>ATOM
      1 C1          0.3604    1.0637    1.3942 C.ar      1 <0>        -0.0483
      2 C2          1.5055    1.8018    1.1656 C.ar      1 <0>        -0.1440
      3 C3          2.4234    1.3797    0.2127 C.ar      1 <0>         0.2178
      4 C4          2.1866    0.2149   -0.5084 C.ar      1 <0>        -0.1274
      5 C5          1.0396   -0.5187   -0.2750 C.ar      1 <0>        -0.0340
      6 C6          0.1271   -0.0949    0.6753 C.ar      1 <0>        -0.1129
      7 Br1        -1.4419   -1.1019    0.9918 Br        1 <0>        -0.0349
      8 Br2         3.4327   -0.3641   -1.8075 Br        1 <0>        -0.0299
      9 N1          3.5827    2.1247   -0.0212 N.pl3     1 <0>        -0.6779
     10 C7          3.5126    3.5204   -0.1059 C.ar      1 <0>         0.1548
     11 C8          2.2813    4.1532   -0.0770 C.ar      1 <0>        -0.1594
     12 C9          2.2055    5.5416   -0.1615 C.ar      1 <0>         0.1276
     13 C10         3.3786    6.2771   -0.2741 C.ar      1 <0>        -0.1281
     14 C11         4.6069    5.6531   -0.3025 C.ar      1 <0>        -0.1077
     15 C12         4.6837    4.2704   -0.2135 C.ar      1 <0>         0.1584
     16 N2          5.9309    3.6307   -0.2370 N.pl3     1 <0>        -0.8793
     17 C13         2.9652    7.7295   -0.3437 C.3       1 <0>        -0.1118
     18 C14         1.4545    7.6878   -0.2566 C.2       1 <0>         0.5279
     19 O1          0.7053    8.6415   -0.2762 O.2       1 <0>        -0.5068
     20 N3          1.0993    6.3961   -0.1542 N.am      1 <0>        -0.6574
     21 H1         -0.3514    1.3893    2.1384 H         1 <0>         0.1442
     22 H2          1.6866    2.7064    1.7271 H         1 <0>         0.1488
     23 H3          0.8545   -1.4235   -0.8349 H         1 <0>         0.1462
     24 H4          4.4357    1.6747   -0.1247 H         1 <0>         0.4112
     25 H5          1.3773    3.5688    0.0108 H         1 <0>         0.1361
     26 H6          5.5093    6.2399   -0.3908 H         1 <0>         0.1339
     27 H7          5.9812    2.6637   -0.1784 H         1 <0>         0.3923
     28 H8          6.7436    4.1549   -0.3120 H         1 <0>         0.4037
     29 H9          3.3808    8.2855    0.4967 H         1 <0>         0.1225
     30 H10         3.2810    8.1715   -1.2887 H         1 <0>         0.1225
     31 H11         0.1810    6.0916   -0.0834 H         1 <0>         0.4119
@<TRIPOS>BOND
     1    1    6 ar
     2    1    2 ar
     3    1   21 1
     4    2    3 ar
     5    2   22 1
     6    3    4 ar
     7    3    9 1
     8    4    5 ar
     9    4    8 1
    10    5    6 ar
    11    5   23 1
    12    6    7 1
    13    9   10 1
    14    9   24 1
    15   10   15 ar
    16   10   11 ar
    17   11   12 ar
    18   11   25 1
    19   12   20 1
    20   12   13 ar
    21   13   14 ar
    22   13   17 1
    23   14   15 ar
    24   14   26 1
    25   15   16 1
    26   16   27 1
    27   16   28 1
    28   17   18 1
    29   17   29 1
    30   17   30 1
    31   18   19 2
    32   18   20 am
    33   20   31 1
@<TRIPOS>MOLECULE
ZINC17248158
   49    51     0     0     0
SMALL
USER_CHARGES

@<TRIPOS>ATOM
      1 C1         -0.7005    2.0221    0.3978 C.3       1 <0>        -0.1147
      2 C2         -0.7496    0.5161    0.3760 C.ar      1 <0>        -0.1069
      3 C3         -1.0646   -0.1433   -0.8100 C.ar      1 <0>        -0.0720
      4 C4         -1.1179   -1.5035   -0.8654 C.ar      1 <0>        -0.1167
      5 C5         -0.8516   -2.2549    0.2892 C.ar      1 <0>         0.1783
      6 C6         -0.5307   -1.5820    1.4968 C.ar      1 <0>        -0.1855
      7 C7         -0.4797   -0.1811    1.5156 C.ar      1 <0>        -0.0664
      8 C8         -0.2661   -2.3534    2.6450 C.ar      1 <0>         0.2386
      9 N1         -0.3273   -3.6637    2.5502 N.ar      1 <0>        -0.4934
     10 C9         -0.6325   -4.2674    1.3971 C.ar      1 <0>         0.5117
     11 N2         -0.8904   -3.5922    0.2871 N.ar      1 <0>        -0.5771
     12 N3         -0.6796   -5.6264    1.3624 N.2       1 <0>        -0.4517
     13 C10        -0.9747   -6.2460    0.2396 C.2       1 <0>         0.6312
     14 N4         -1.0646   -5.5393   -0.9287 N.pl3     1 <0>        -0.8463
     15 N5         -1.1924   -7.6031    0.2403 N.pl3     1 <0>        -0.6132
     16 C11        -1.0716   -8.3044    1.3848 C.2       1 <0>         0.4970
     17 S1         -0.7872   -7.4884    2.8628 S.2       1 <0>        -0.4022
     18 N6         -1.1746   -9.6480    1.3659 N.pl3     1 <0>        -0.6252
     19 C12        -1.1792  -10.3661    2.5663 C.ar      1 <0>         0.1219
     20 C13        -1.8696   -9.8764    3.6677 C.ar      1 <0>        -0.0785
     21 C14        -1.8722  -10.5876    4.8513 C.ar      1 <0>        -0.1066
     22 C15        -1.1879  -11.7862    4.9410 C.ar      1 <0>        -0.0787
     23 C16        -0.4997  -12.2764    3.8466 C.ar      1 <0>        -0.0816
     24 C17        -0.4983  -11.5729    2.6579 C.ar      1 <0>        -0.1191
     25 C18         0.2450  -13.5826    3.9491 C.3       1 <0>        -0.1163
     26 C19        -1.1920  -12.5593    6.2346 C.3       1 <0>        -0.1199
     27 C20         0.0802   -1.6916    3.9539 C.3       1 <0>        -0.1112
     28 H1          0.3068    2.3564    0.1497 H         1 <0>         0.0717
     29 H2         -1.4054    2.4192   -0.3327 H         1 <0>         0.0676
     30 H3         -0.9675    2.3800    1.3922 H         1 <0>         0.0679
     31 H4         -1.2703    0.4331   -1.6999 H         1 <0>         0.1295
     32 H5         -1.3639   -2.0003   -1.7923 H         1 <0>         0.1333
     33 H6         -0.2321    0.3420    2.4274 H         1 <0>         0.1336
     34 H7         -0.4846   -4.7767   -1.0801 H         1 <0>         0.4296
     35 H8         -1.4331   -8.0561   -0.5830 H         1 <0>         0.4059
     36 H9         -1.2455  -10.1172    0.5199 H         1 <0>         0.4044
     37 H10        -2.4036   -8.9401    3.5984 H         1 <0>         0.1419
     38 H11        -2.4088  -10.2074    5.7079 H         1 <0>         0.1285
     39 H12         0.0355  -11.9587    1.8020 H         1 <0>         0.1233
     40 H13        -0.4179  -14.4016    3.6698 H         1 <0>         0.0705
     41 H14         1.1035  -13.5650    3.2777 H         1 <0>         0.0645
     42 H15         0.5879  -13.7259    4.9737 H         1 <0>         0.0730
     43 H16        -2.0356  -13.2495    6.2427 H         1 <0>         0.0715
     44 H17        -0.2622  -13.1209    6.3252 H         1 <0>         0.0709
     45 H18        -1.2812  -11.8667    7.0715 H         1 <0>         0.0679
     46 H19        -0.8330   -1.5032    4.5186 H         1 <0>         0.0907
     47 H20         0.7350   -2.3457    4.5297 H         1 <0>         0.0894
     48 H21         0.5889   -0.7473    3.7602 H         1 <0>         0.0827
     49 H22        -1.7084   -5.8009   -1.6054 H         1 <0>         0.3862
@<TRIPOS>BOND
     1    1    2 1
     2    1   28 1
     3    1   29 1
     4    1   30 1
     5    2    7 ar
     6    2    3 ar
     7    3    4 ar
     8    3   31 1
     9    4    5 ar
    10    4   32 1
    11    5   11 ar
    12    5    6 ar
    13    6    7 ar
    14    6    8 ar
    15    7   33 1
    16    8    9 ar
    17    8   27 1
    18    9   10 ar
    19   10   11 ar
    20   10   12 1
    21   12   13 2
    22   13   14 1
    23   13   15 1
    24   14   34 1
    25   14   49 1
    26   15   16 1
    27   15   35 1
    28   16   17 2
    29   16   18 1
    30   18   19 1
    31   18   36 1
    32   19   24 ar
    33   19   20 ar
    34   20   21 ar
    35   20   37 1
    36   21   22 ar
    37   21   38 1
    38   22   23 ar
    39   22   26 1
    40   23   24 ar
    41   23   25 1
    42   24   39 1
    43   25   40 1
    44   25   41 1
    45   25   42 1
    46   26   43 1
    47   26   44 1
    48   26   45 1
    49   27   46 1
    50   27   47 1
    51   27   48 1
@<TRIPOS>MOLECULE
ZINC03364274
   38    39     0     0     0
SMALL
USER_CHARGES
N'-[2-(4-chloro-2-methyl-phenoxy)acetyl]-4-hydroxy-benzohydrazide
@<TRIPOS>ATOM
      1 C1          7.6778   -7.7474   -0.1237 C.3       1 <0>        -0.1097
      2 C2          6.4972   -8.6839   -0.1106 C.ar      1 <0>        -0.0949
      3 C3          6.6991  -10.0507   -0.1142 C.ar      1 <0>        -0.0733
      4 C4          5.6155  -10.9109   -0.1084 C.ar      1 <0>        -0.0648
      5 C5          4.3278  -10.4043   -0.0929 C.ar      1 <0>        -0.0749
      6 C6          4.1220   -9.0385   -0.0835 C.ar      1 <0>        -0.1938
      7 C7          5.2074   -8.1743   -0.0897 C.ar      1 <0>         0.1296
      8 O1          5.0069   -6.8300   -0.0810 O.3       1 <0>        -0.2819
      9 C8          3.6520   -6.3762   -0.0655 C.3       1 <0>         0.0511
     10 C9          3.6269   -4.8695   -0.0577 C.2       1 <0>         0.5184
     11 O2          4.6669   -4.2456   -0.0647 O.2       1 <0>        -0.5103
     12 N1          2.4487   -4.2152   -0.0430 N.am      1 <0>        -0.5181
     13 N2          2.4253   -2.8144   -0.0357 N.am      1 <0>        -0.5171
     14 C10         1.2471   -2.1601   -0.0209 C.2       1 <0>         0.5667
     15 O3          0.2045   -2.7855   -0.0140 O.2       1 <0>        -0.5319
     16 C11         1.2226   -0.6843   -0.0133 C.ar      1 <0>        -0.1443
     17 C12         0.0021   -0.0041    0.0020 C.ar      1 <0>        -0.0338
     18 C13        -0.0166    1.3728    0.0096 C.ar      1 <0>        -0.1530
     19 C14         1.1765    2.0859    0.0020 C.ar      1 <0>         0.1428
     20 C15         2.3926    1.4130   -0.0132 C.ar      1 <0>        -0.1516
     21 C16         2.4198    0.0363   -0.0208 C.ar      1 <0>        -0.0659
     22 O4          1.1539    3.4428    0.0091 O.3       1 <0>        -0.4967
     23 Cl1         5.8716  -12.6278   -0.1202 Cl        1 <0>        -0.0666
     24 H1          7.9774   -7.5260    0.9007 H         1 <0>         0.0740
     25 H2          8.5080   -8.2166   -0.6516 H         1 <0>         0.0696
     26 H3          7.4020   -6.8221   -0.6296 H         1 <0>         0.0770
     27 H4          7.7033  -10.4479   -0.1259 H         1 <0>         0.1425
     28 H5          3.4831  -11.0773   -0.0884 H         1 <0>         0.1383
     29 H6          3.1169   -8.6436   -0.0717 H         1 <0>         0.1387
     30 H7          3.1529   -6.7526    0.8275 H         1 <0>         0.1040
     31 H8          3.1356   -6.7436   -0.9524 H         1 <0>         0.1039
     32 H9          1.6169   -4.7141   -0.0374 H         1 <0>         0.4354
     33 H10         3.2572   -2.3154   -0.0412 H         1 <0>         0.4334
     34 H11        -0.9253   -0.5575    0.0082 H         1 <0>         0.1448
     35 H12        -0.9595    1.8993    0.0169 H         1 <0>         0.1410
     36 H13         3.3174    1.9707   -0.0193 H         1 <0>         0.1401
     37 H14         3.3651   -0.4858   -0.0323 H         1 <0>         0.1323
     38 H15         1.1556    3.8317    0.8944 H         1 <0>         0.3993
@<TRIPOS>BOND
     1    1    2 1
     2    1   24 1
     3    1   25 1
     4    1   26 1
     5    2    7 ar
     6    2    3 ar
     7    3    4 ar
     8    3   27 1
     9    4    5 ar
    10    4   23 1
    11    5    6 ar
    12    5   28 1
    13    6    7 ar
    14    6   29 1
    15    7    8 1
    16    8    9 1
    17    9   10 1
    18    9   30 1
    19    9   31 1
    20   10   11 2
    21   10   12 am
    22   12   13 1
    23   12   32 1
    24   13   14 am
    25   13   33 1
    26   14   15 2
    27   14   16 1
    28   16   21 ar
    29   16   17 ar
    30   17   18 ar
    31   17   34 1
    32   18   19 ar
    33   18   35 1
    34   19   20 ar
    35   19   22 1
    36   20   21 ar
    37   20   36 1
    38   21   37 1
    39   22   38 1
@<TRIPOS>MOLECULE
ZINC17068803
   41    42     0     0     0
SMALL
USER_CHARGES
N-[(3,4-dihydroxyphenyl)methyleneamino]-2,4,6-trimethyl-benzenesulfonamide
@<TRIPOS>ATOM
      1 C1          1.5578    5.1461    5.0256 C.3       1 <0>        -0.1256
      2 C2          1.5101    4.3216    3.7650 C.ar      1 <0>        -0.0149
      3 C3          1.3074    4.9370    2.5439 C.ar      1 <0>        -0.1585
      4 C4          1.2636    4.1807    1.3876 C.ar      1 <0>         0.0480
      5 C5          1.4225    2.8090    1.4525 C.ar      1 <0>        -0.6888
      6 C6          1.6200    2.1931    2.6742 C.ar      1 <0>         0.0295
      7 C7          1.6694    2.9500    3.8298 C.ar      1 <0>        -0.1582
      8 C8          1.7871    0.6971    2.7456 C.3       1 <0>        -0.1418
      9 S1          1.3662    1.8449   -0.0213 S.o2      1 <0>         2.7133
     10 O1          1.9237    0.5781    0.3006 O.2       1 <0>        -0.9441
     11 O2          1.8837    2.6629   -1.0617 O.2       1 <0>        -0.9371
     12 N1         -0.2304    1.5834   -0.3746 N.pl3     1 <0>        -0.9645
     13 N2         -1.0821    2.6699   -0.6133 N.2       1 <0>        -0.2222
     14 C9         -2.3318    2.4648   -0.8954 C.2       1 <0>         0.1270
     15 C10        -3.2283    3.6085   -1.1467 C.ar      1 <0>        -0.0518
     16 C11        -2.7352    4.9136   -1.0758 C.ar      1 <0>        -0.0747
     17 C12        -3.5741    5.9816   -1.3165 C.ar      1 <0>        -0.1335
     18 C13        -4.9102    5.7639   -1.6186 C.ar      1 <0>         0.1004
     19 C14        -5.4102    4.4656   -1.6852 C.ar      1 <0>         0.0782
     20 C15        -4.5741    3.3897   -1.4505 C.ar      1 <0>        -0.0984
     21 O3         -6.7208    4.2561   -1.9817 O.3       1 <0>        -0.4850
     22 O4         -5.7341    6.8206   -1.8497 O.3       1 <0>        -0.4871
     23 C16         1.0422    4.8514    0.0564 C.3       1 <0>        -0.1898
     24 H1          0.5540    5.2326    5.4414 H         1 <0>         0.0794
     25 H2          2.2114    4.6625    5.7515 H         1 <0>         0.0731
     26 H3          1.9426    6.1397    4.7955 H         1 <0>         0.0734
     27 H4          1.1829    6.0086    2.4932 H         1 <0>         0.1313
     28 H5          1.8281    2.4693    4.7838 H         1 <0>         0.1313
     29 H6          2.8232    0.4365    2.5296 H         1 <0>         0.0938
     30 H7          1.5258    0.3496    3.7451 H         1 <0>         0.0720
     31 H8          1.1331    0.2231    2.0136 H         1 <0>         0.0876
     32 H9         -0.5750    0.6778   -0.4202 H         1 <0>         0.4033
     33 H10        -2.7155    1.4565   -0.9461 H         1 <0>         0.1310
     34 H11        -1.6963    5.0861   -0.8364 H         1 <0>         0.1421
     35 H12        -3.1908    6.9900   -1.2651 H         1 <0>         0.1400
     36 H13        -4.9605    2.3825   -1.5023 H         1 <0>         0.1415
     37 H14        -7.2996    4.2279   -1.2076 H         1 <0>         0.3895
     38 H15        -6.1719    7.1589   -1.0566 H         1 <0>         0.3915
     39 H16        -0.0096    4.7739   -0.2190 H         1 <0>         0.0923
     40 H17         1.3225    5.9023    0.1280 H         1 <0>         0.0749
     41 H18         1.6535    4.3632   -0.7026 H         1 <0>         0.1315
@<TRIPOS>BOND
     1    1    2 1
     2    1   24 1
     3    1   25 1
     4    1   26 1
     5    2    7 ar
     6    2    3 ar
     7    3    4 ar
     8    3   27 1
     9    4    5 ar
    10    4   23 1
    11    5    6 ar
    12    5    9 1
    13    6    7 ar
    14    6    8 1
    15    7   28 1
    16    8   29 1
    17    8   30 1
    18    8   31 1
    19    9   10 2
    20    9   11 2
    21    9   12 1
    22   12   13 1
    23   12   32 1
    24   13   14 2
    25   14   15 1
    26   14   33 1
    27   15   20 ar
    28   15   16 ar
    29   16   17 ar
    30   16   34 1
    31   17   18 ar
    32   17   35 1
    33   18   19 ar
    34   18   22 1
    35   19   20 ar
    36   19   21 1
    37   20   36 1
    38   21   37 1
    39   22   38 1
    40   23   39 1
    41   23   40 1
    42   23   41 1
@<TRIPOS>MOLECULE
ZINC41223705
   27    28     0     0     0
SMALL
USER_CHARGES

@<TRIPOS>ATOM
      1 C1         -0.0164    1.3607    0.0095 C.2       1 <0>        -0.1611
      2 C2          1.3251    1.7838   -0.0010 C.2       1 <0>        -0.1564
      3 C3          2.0916    0.6724   -0.0143 C.2       1 <0>        -0.0161
      4 O1          1.2897   -0.4046   -0.0124 O.3       1 <0>        -0.1402
      5 C4          0.0021   -0.0041    0.0020 C.2       1 <0>         0.0462
      6 C5         -1.1722   -0.8810    0.0085 C.2       1 <0>         0.1231
      7 N1         -1.0194   -2.1730    0.0001 N.2       1 <0>        -0.2029
      8 N2         -2.1419   -3.0112    0.0063 N.am      1 <0>        -0.5842
      9 C6         -1.9836   -4.3496   -0.0024 C.2       1 <0>         0.5318
     10 O2         -0.8689   -4.8285   -0.0156 O.2       1 <0>        -0.4712
     11 C7         -3.1911   -5.2513    0.0043 C.3       1 <0>        -0.0571
     12 C8         -2.7435   -6.6902   -0.0077 C.2       1 <0>         0.1213
     13 C9         -3.1613   -7.5687    0.9350 C.2       1 <0>        -0.2661
     14 S1         -2.3228   -9.0525    0.4031 S.3       1 <0>         0.0821
     15 C10        -1.5412   -8.4094   -0.9415 C.2       1 <0>         0.3267
     16 N3         -1.9306   -7.1522   -0.9415 N.2       1 <0>        -0.5706
     17 N4         -0.6968   -9.0495   -1.8350 N.pl3     1 <0>        -0.8033
     18 Br1         3.9822    0.6382   -0.0331 Br        1 <0>         0.0590
     19 H1         -0.8916    1.9933    0.0253 H         1 <0>         0.1677
     20 H2          1.6758    2.8053    0.0008 H         1 <0>         0.1668
     21 H3         -2.1645   -0.4547    0.0203 H         1 <0>         0.1541
     22 H4         -3.0331   -2.6283    0.0169 H         1 <0>         0.3893
     23 H5         -3.7811   -5.0617    0.9010 H         1 <0>         0.1170
     24 H6         -3.7981   -5.0522   -0.8788 H         1 <0>         0.1152
     25 H7         -3.8200   -7.4141    1.7768 H         1 <0>         0.1946
     26 H8         -0.4936   -9.9911   -1.7207 H         1 <0>         0.4192
     27 H9         -0.3090   -8.5560   -2.5745 H         1 <0>         0.4152
@<TRIPOS>BOND
     1    1    5 2
     2    1    2 1
     3    1   19 1
     4    2    3 2
     5    2   20 1
     6    3    4 1
     7    3   18 1
     8    4    5 1
     9    5    6 1
    10    6    7 2
    11    6   21 1
    12    7    8 1
    13    8    9 am
    14    8   22 1
    15    9   10 2
    16    9   11 1
    17   11   12 1
    18   11   23 1
    19   11   24 1
    20   12   16 1
    21   12   13 2
    22   13   14 1
    23   13   25 1
    24   14   15 1
    25   15   16 2
    26   15   17 1
    27   17   26 1
    28   17   27 1
@<TRIPOS>MOLECULE
ZINC16901624
   36    38     0     0     0
SMALL
USER_CHARGES

@<TRIPOS>ATOM
      1 C1          0.7746    0.0429   -1.1504 C.ar      1 <0>        -0.0808
      2 C2          1.9604    0.7502   -1.1580 C.ar      1 <0>        -0.1339
      3 C3          2.3801    1.4135   -0.0141 C.ar      1 <0>         0.1220
      4 C4          1.6084    1.3669    1.1378 C.ar      1 <0>        -0.1336
      5 C5          0.4224    0.6598    1.1464 C.ar      1 <0>        -0.0807
      6 C6          0.0021   -0.0041    0.0020 C.ar      1 <0>         0.0942
      7 N1         -1.2035   -0.7225    0.0101 N.am      1 <0>        -0.5274
      8 C7         -2.3992   -0.1300    0.1176 C.2       1 <0>         0.5273
      9 O1         -2.5849    1.0638    0.2179 O.2       1 <0>        -0.4607
     10 C8         -3.4822   -1.1864    0.0936 C.3       1 <0>        -0.1605
     11 C9         -2.6968   -2.5061   -0.0479 C.3       1 <0>         0.1261
     12 H1         -2.8733   -3.1518    0.8124 H         1 <0>         0.1389
     13 C10        -1.2528   -2.0562   -0.0947 C.2       1 <0>         0.5057
     14 O2         -0.2926   -2.7878   -0.2066 O.2       1 <0>        -0.4471
     15 N2         -3.0619   -3.1928   -1.2894 N.pl3     1 <0>        -0.7201
     16 C11        -2.9089   -4.5809   -1.3928 C.ar      1 <0>         0.1919
     17 C12        -2.4172   -5.3081   -0.3188 C.ar      1 <0>        -0.1577
     18 C13        -2.2668   -6.6782   -0.4228 C.ar      1 <0>        -0.0677
     19 C14        -2.6054   -7.3272   -1.5968 C.ar      1 <0>        -0.0679
     20 C15        -3.0965   -6.6079   -2.6720 C.ar      1 <0>        -0.0905
     21 C16        -3.2556   -5.2355   -2.5726 C.ar      1 <0>         0.0514
     22 O3         -3.7438   -4.5279   -3.6266 O.3       1 <0>        -0.4881
     23 Cl1        -2.4131   -9.0480   -1.7214 Cl        1 <0>        -0.0678
     24 O4          3.5482    2.1090   -0.0219 O.3       1 <0>        -0.4960
     25 H2          0.4459   -0.4701   -2.0421 H         1 <0>         0.1298
     26 H3          2.5615    0.7867   -2.0546 H         1 <0>         0.1396
     27 H4          1.9355    1.8834    2.0281 H         1 <0>         0.1403
     28 H5         -0.1779    0.6229    2.0434 H         1 <0>         0.1324
     29 H6         -4.0495   -1.1755    1.0243 H         1 <0>         0.1390
     30 H7         -4.1426   -1.0395   -0.7610 H         1 <0>         0.1326
     31 H8         -3.4096   -2.6860   -2.0398 H         1 <0>         0.4127
     32 H9         -2.1515   -4.8037    0.5985 H         1 <0>         0.1348
     33 H10        -1.8838   -7.2433    0.4141 H         1 <0>         0.1382
     34 H11        -3.3600   -7.1171   -3.5872 H         1 <0>         0.1414
     35 H12        -3.0635   -4.2098   -4.2357 H         1 <0>         0.3858
     36 H13         3.4531    3.0346   -0.2852 H         1 <0>         0.3963
@<TRIPOS>BOND
     1    1    6 ar
     2    1    2 ar
     3    1   25 1
     4    2    3 ar
     5    2   26 1
     6    3    4 ar
     7    3   24 1
     8    4    5 ar
     9    4   27 1
    10    5    6 ar
    11    5   28 1
    12    6    7 1
    13    7   13 am
    14    7    8 am
    15    8    9 2
    16    8   10 1
    17   10   11 1
    18   10   29 1
    19   10   30 1
    20   11   12 1
    21   11   13 1
    22   11   15 1
    23   13   14 2
    24   15   16 1
    25   15   31 1
    26   16   21 ar
    27   16   17 ar
    28   17   18 ar
    29   17   32 1
    30   18   19 ar
    31   18   33 1
    32   19   20 ar
    33   19   23 1
    34   20   21 ar
    35   20   34 1
    36   21   22 1
    37   22   35 1
    38   24   36 1
@<TRIPOS>MOLECULE
ZINC63813064
   47    49     0     0     0
SMALL
USER_CHARGES

@<TRIPOS>ATOM
      1 C1         -0.0187    1.5258    0.0104 C.3       1 <0>        -0.1670
      2 C2          0.0021   -0.0041    0.0020 C.3       1 <0>         0.1358
      3 N1         -1.3723   -0.5112    0.0124 N.pl3     1 <0>        -0.3713
      4 C3         -1.9115   -1.3782   -0.8836 C.2       1 <0>         0.0129
      5 C4         -3.2018   -1.5923   -0.5209 C.2       1 <0>         0.0185
      6 C5         -3.4564   -0.8331    0.6303 C.2       1 <0>         0.0519
      7 N2         -2.3616   -0.1926    0.9515 N.2       1 <0>        -0.2816
      8 N3         -4.1218   -2.4281   -1.1834 N.am      1 <0>        -0.6581
      9 C6         -5.3793   -2.5512   -0.7145 C.2       1 <0>         0.7070
     10 O1         -5.7197   -1.9406    0.2804 O.2       1 <0>        -0.5767
     11 N4         -6.2596   -3.3509   -1.3485 N.am      1 <0>        -0.7395
     12 C7         -7.6266   -3.4847   -0.8388 C.3       1 <0>         0.1849
     13 C8         -8.4015   -4.4292   -1.7211 C.ar      1 <0>        -0.1205
     14 C9         -9.2579   -3.9337   -2.6801 C.ar      1 <0>        -0.0734
     15 C10        -9.9772   -4.7930   -3.4989 C.ar      1 <0>        -0.1153
     16 C11        -9.8477   -6.1472   -3.3680 C.ar      1 <0>        -0.0605
     17 C12        -8.9854   -6.6709   -2.4033 C.ar      1 <0>        -0.0995
     18 C13        -8.2503   -5.8040   -1.5740 C.ar      1 <0>         0.1125
     19 N5         -7.4914   -6.5900   -0.7361 N.pl3     1 <0>        -0.5895
     20 H1         -6.8875   -6.2563   -0.0543 H         1 <0>         0.4141
     21 C14        -7.7159   -7.9120   -1.0085 C.2       1 <0>         0.0782
     22 C15        -8.6135   -8.0291   -1.9997 C.2       1 <0>        -0.1715
     23 C16        -9.1296   -9.3140   -2.5945 C.3       1 <0>        -0.0777
     24 C17        -7.0608   -9.0658   -0.2939 C.3       1 <0>        -0.0953
     25 C18       -10.9087   -4.2283   -4.5403 C.3       1 <0>        -0.1102
     26 H2          1.0039    1.9031    0.0027 H         1 <0>         0.0759
     27 H3         -0.5459    1.8868   -0.8726 H         1 <0>         0.0605
     28 H4         -0.5289    1.8773    0.9072 H         1 <0>         0.0715
     29 H5          0.5123   -0.3556   -0.8948 H         1 <0>         0.0953
     30 H6          0.5293   -0.3651    0.8851 H         1 <0>         0.0849
     31 H7         -1.4055   -1.8172   -1.7308 H         1 <0>         0.1749
     32 H8         -4.3944   -0.7886    1.1636 H         1 <0>         0.2063
     33 H9         -3.8502   -2.9152   -1.9771 H         1 <0>         0.4054
     34 H10        -5.9881   -3.8380   -2.1422 H         1 <0>         0.3982
     35 H11        -7.5986   -3.8774    0.1776 H         1 <0>         0.0697
     36 H12        -8.1112   -2.5083   -0.8379 H         1 <0>         0.0810
     37 H13        -9.3708   -2.8659   -2.7956 H         1 <0>         0.1278
     38 H14       -10.4109   -6.8098   -4.0085 H         1 <0>         0.1223
     39 H15        -8.4859   -9.6163   -3.4205 H         1 <0>         0.0626
     40 H16        -9.1315  -10.0925   -1.8316 H         1 <0>         0.0628
     41 H17       -10.1447   -9.1625   -2.9616 H         1 <0>         0.0634
     42 H18        -7.6693   -9.3553    0.5629 H         1 <0>         0.0782
     43 H19        -6.9689   -9.9108   -0.9763 H         1 <0>         0.0855
     44 H20        -6.0704   -8.7660    0.0486 H         1 <0>         0.0679
     45 H21       -10.3653   -4.0844   -5.4741 H         1 <0>         0.0674
     46 H22       -11.7342   -4.9212   -4.7033 H         1 <0>         0.0650
     47 H23       -11.3003   -3.2710   -4.1966 H         1 <0>         0.0653
@<TRIPOS>BOND
     1    1    2 1
     2    1   26 1
     3    1   27 1
     4    1   28 1
     5    2    3 1
     6    2   29 1
     7    2   30 1
     8    3    7 1
     9    3    4 1
    10    4    5 2
    11    4   31 1
    12    5    6 1
    13    5    8 1
    14    6    7 2
    15    6   32 1
    16    8    9 am
    17    8   33 1
    18    9   10 2
    19    9   11 am
    20   11   12 1
    21   11   34 1
    22   12   13 1
    23   12   35 1
    24   12   36 1
    25   13   18 ar
    26   13   14 ar
    27   14   15 ar
    28   14   37 1
    29   15   16 ar
    30   15   25 1
    31   16   17 ar
    32   16   38 1
    33   17   22 1
    34   17   18 ar
    35   18   19 1
    36   19   20 1
    37   19   21 1
    38   21   22 2
    39   21   24 1
    40   22   23 1
    41   23   39 1
    42   23   40 1
    43   23   41 1
    44   24   42 1
    45   24   43 1
    46   24   44 1
    47   25   45 1
    48   25   46 1
    49   25   47 1
@<TRIPOS>MOLECULE
ZINC09769526
   39    42     0     0     0
SMALL
USER_CHARGES
5-[cyclopropylamino-(1-oxo-2H-isoquinolin-3-yl)-methylene]-2-thioxo-hexahydropyrimidine-4,6-dione
@<TRIPOS>ATOM
      1 C1          1.0495    2.6123    2.0180 C.ar      1 <0>        -0.0816
      2 C2          1.7715    2.5918    0.8324 C.ar      1 <0>        -0.1298
      3 C3          1.2866    1.9314   -0.2770 C.ar      1 <0>        -0.0495
      4 C4          0.0587    1.2781   -0.2068 C.ar      1 <0>        -0.1424
      5 C5         -0.6779    1.2979    1.0007 C.ar      1 <0>         0.0035
      6 C6         -0.1673    1.9729    2.1118 C.ar      1 <0>        -0.1191
      7 C7         -1.9634    0.6037    1.0455 C.2       1 <0>        -0.1394
      8 C8         -2.4146   -0.0380   -0.0659 C.2       1 <0>         0.1403
      9 N1         -1.6947   -0.0559   -1.2420 N.am      1 <0>        -0.6196
     10 H1         -2.0582   -0.5269   -2.0081 H         1 <0>         0.4136
     11 C9         -0.5055    0.5657   -1.3624 C.2       1 <0>         0.5559
     12 O1          0.1020    0.5289   -2.4167 O.2       1 <0>        -0.5195
     13 C10        -3.7065   -0.7329   -0.0115 C.2       1 <0>         0.1795
     14 C11        -4.8892   -0.0001    0.1321 C.3       1 <0>        -0.1434
     15 C12        -6.1860   -0.6670    0.3229 C.2       1 <0>         0.5358
     16 O2         -6.2645   -1.8810    0.3611 O.2       1 <0>        -0.4149
     17 N2         -7.2855    0.1023    0.4598 N.am      1 <0>        -0.6180
     18 C13        -7.2140    1.4402    0.4142 C.2       1 <0>         0.5310
     19 S1         -8.6616    2.3371    0.5898 S.2       1 <0>        -0.4655
     20 N3         -6.0674    2.1120    0.2376 N.am      1 <0>        -0.6130
     21 C14        -4.8900    1.4700    0.0924 C.2       1 <0>         0.5464
     22 O3         -3.8555    2.0911   -0.0668 O.2       1 <0>        -0.4225
     23 N4         -3.7537   -2.0971   -0.1012 N.2       1 <0>        -0.3957
     24 C15        -2.5113   -2.8730   -0.1256 C.3       1 <0>        -0.0475
     25 C16        -2.4358   -4.0555   -1.0935 C.3       1 <0>        -0.1455
     26 C17        -2.5620   -4.3050    0.4107 C.3       1 <0>        -0.1405
     27 H2          1.4460    3.1348    2.8761 H         1 <0>         0.1322
     28 H3          2.7239    3.0983    0.7784 H         1 <0>         0.1333
     29 H4          1.8557    1.9211   -1.1949 H         1 <0>         0.1392
     30 H5         -0.7223    1.9931    3.0380 H         1 <0>         0.1337
     31 H6         -2.5494    0.6001    1.9527 H         1 <0>         0.1421
     32 H7         -8.1480   -0.3222    0.5900 H         1 <0>         0.4551
     33 H8         -6.0848    3.0816    0.2142 H         1 <0>         0.4557
     34 H9         -4.7623   -0.3080    1.0750 H         1 <0>         0.1756
     35 H10        -1.5979   -2.3034    0.0458 H         1 <0>         0.1041
     36 H11        -3.3105   -4.2562   -1.7121 H         1 <0>         0.1076
     37 H12        -1.4726   -4.2641   -1.5592 H         1 <0>         0.1073
     38 H13        -1.6819   -4.6777    0.9347 H         1 <0>         0.1069
     39 H14        -3.5197   -4.6697    0.7821 H         1 <0>         0.1087
@<TRIPOS>BOND
     1    1    6 ar
     2    1    2 ar
     3    1   27 1
     4    2    3 ar
     5    2   28 1
     6    3    4 ar
     7    3   29 1
     8    4   11 1
     9    4    5 ar
    10    5    6 ar
    11    5    7 1
    12    6   30 1
    13    7    8 2
    14    7   31 1
    15    8    9 1
    16    8   13 1
    17    9   10 1
    18    9   11 am
    19   11   12 2
    20   13   14 1
    21   13   23 2
    22   14   21 1
    23   14   15 1
    24   14   34 1
    25   15   16 2
    26   15   17 am
    27   17   18 1
    28   17   32 1
    29   18   19 2
    30   18   20 1
    31   20   21 am
    32   20   33 1
    33   21   22 2
    34   23   24 1
    35   24   26 1
    36   24   25 1
    37   24   35 1
    38   25   26 1
    39   25   36 1
    40   25   37 1
    41   26   38 1
    42   26   39 1
@<TRIPOS>MOLECULE
ZINC34779519
   45    46     0     0     0
SMALL
USER_CHARGES

@<TRIPOS>ATOM
      1 C1         -0.0187    1.5258    0.0104 C.3       1 <0>        -0.1473
      2 C2          0.0021   -0.0041    0.0020 C.3       1 <0>        -0.1371
      3 C3          0.7421   -0.5109    1.2415 C.3       1 <0>         0.1079
      4 N1          0.7619   -1.9757    1.2335 N.am      1 <0>        -0.5515
      5 C4         -0.2438   -2.6465    1.8222 C.2       1 <0>         0.5795
      6 O1         -1.1576   -2.0443    2.3541 O.2       1 <0>        -0.4861
      7 C5         -0.2258   -4.1297    1.8147 C.2       1 <0>        -0.2718
      8 C6         -1.1601   -5.0183    2.3616 C.2       1 <0>         0.0650
      9 C7         -0.9092   -6.3522    2.2173 C.2       1 <0>        -0.2883
     10 S1          0.6293   -6.3665    1.3192 S.3       1 <0>         0.2838
     11 C8          0.8732   -4.7198    1.1741 C.2       1 <0>         0.0762
     12 N2          1.8507   -3.9554    0.6022 N.am      1 <0>        -0.4901
     13 C9          1.7812   -2.6116    0.6337 C.2       1 <0>         0.7084
     14 O2          2.6639   -1.9586    0.1116 O.2       1 <0>        -0.5194
     15 C10         2.9847   -4.6062   -0.0587 C.3       1 <0>         0.1068
     16 C11         2.6522   -4.8349   -1.5346 C.3       1 <0>        -0.1143
     17 C12         3.8797   -5.3997   -2.2523 C.3       1 <0>        -0.1446
     18 C13         1.4933   -5.8273   -1.6485 C.3       1 <0>        -0.1603
     19 C14        -1.7061   -7.4887    2.6849 C.2       1 <0>         0.6152
     20 O3         -2.7440   -7.2960    3.2910 O.2       1 <0>        -0.5036
     21 N3         -1.2902   -8.7479    2.4442 N.am      1 <0>        -0.5744
     22 N4         -2.0334   -9.8078    2.8803 N.3       1 <0>        -0.5974
     23 C15        -2.3893   -4.5229    3.0789 C.3       1 <0>        -0.1192
     24 H1          1.0039    1.9031    0.0027 H         1 <0>         0.0593
     25 H2         -0.5459    1.8868   -0.8726 H         1 <0>         0.0621
     26 H3         -0.5289    1.8773    0.9072 H         1 <0>         0.0598
     27 H4         -1.0205   -0.3814    0.0098 H         1 <0>         0.0686
     28 H5          0.5123   -0.3556   -0.8948 H         1 <0>         0.0674
     29 H6          1.7647   -0.1336    1.2338 H         1 <0>         0.1021
     30 H7          0.2319   -0.1594    2.1383 H         1 <0>         0.1033
     31 H8          3.8658   -3.9696    0.0208 H         1 <0>         0.1139
     32 H9          3.1841   -5.5643    0.4214 H         1 <0>         0.0962
     33 H10         2.3664   -3.8884   -1.9935 H         1 <0>         0.0827
     34 H11         4.1654   -6.3461   -1.7934 H         1 <0>         0.0607
     35 H12         3.6428   -5.5625   -3.3037 H         1 <0>         0.0661
     36 H13         4.7053   -4.6926   -2.1712 H         1 <0>         0.0623
     37 H14         0.6188   -5.4250   -1.1371 H         1 <0>         0.0510
     38 H15         1.2564   -5.9902   -2.6999 H         1 <0>         0.0691
     39 H16         1.7791   -6.7738   -1.1895 H         1 <0>         0.0638
     40 H17        -0.4631   -8.9015    1.9612 H         1 <0>         0.3973
     41 H18        -1.5986  -10.6826    2.6278 H         1 <0>         0.3616
     42 H19        -2.1888   -9.7553    3.8758 H         1 <0>         0.3509
     43 H20        -3.2040   -4.4047    2.3645 H         1 <0>         0.0846
     44 H21        -2.6787   -5.2434    3.8439 H         1 <0>         0.0942
     45 H22        -2.1744   -3.5624    3.5472 H         1 <0>         0.0857
@<TRIPOS>BOND
     1    1    2 1
     2    1   24 1
     3    1   25 1
     4    1   26 1
     5    2    3 1
     6    2   27 1
     7    2   28 1
     8    3    4 1
     9    3   29 1
    10    3   30 1
    11    4   13 am
    12    4    5 am
    13    5    6 2
    14    5    7 1
    15    7   11 2
    16    7    8 1
    17    8    9 2
    18    8   23 1
    19    9   10 1
    20    9   19 1
    21   10   11 1
    22   11   12 1
    23   12   13 am
    24   12   15 1
    25   13   14 2
    26   15   16 1
    27   15   31 1
    28   15   32 1
    29   16   17 1
    30   16   18 1
    31   16   33 1
    32   17   34 1
    33   17   35 1
    34   17   36 1
    35   18   37 1
    36   18   38 1
    37   18   39 1
    38   19   20 2
    39   19   21 am
    40   21   22 1
    41   21   40 1
    42   22   41 1
    43   22   42 1
    44   23   43 1
    45   23   44 1
    46   23   45 1
@<TRIPOS>MOLECULE
ZINC54066119
   44    45     0     0     0
SMALL
USER_CHARGES

@<TRIPOS>ATOM
      1 C1         -0.0184    1.5028    0.0103 C.3       1 <0>        -0.1272
      2 C2          0.0021   -0.0041    0.0020 C.ar      1 <0>        -0.0701
      3 C3          0.0057   -0.6888   -1.1991 C.ar      1 <0>        -0.1128
      4 C4          0.0245   -2.0707   -1.2067 C.ar      1 <0>        -0.1136
      5 C5          0.0400   -2.7685   -0.0132 C.ar      1 <0>        -0.1190
      6 C6          0.0373   -2.0840    1.1875 C.ar      1 <0>        -0.1164
      7 C7          0.0229   -0.7015    1.1951 C.ar      1 <0>        -0.0947
      8 C8          0.0252    0.0449    2.5043 C.3       1 <0>         0.2000
      9 H1          0.6013    0.9641    2.3974 H         1 <0>         0.1050
     10 C9         -1.4129    0.3873    2.8987 C.3       1 <0>        -0.1621
     11 N1          0.6303   -0.7926    3.5429 N.am      1 <0>        -0.7388
     12 C10         1.1994   -0.2212    4.6227 C.2       1 <0>         0.7155
     13 O1          1.2107    0.9894    4.7349 O.2       1 <0>        -0.5620
     14 N2          1.7560   -0.9918    5.5781 N.am      1 <0>        -0.5313
     15 N3          1.7430   -2.3867    5.4489 N.am      1 <0>        -0.5288
     16 C11         2.2996   -3.1573    6.4043 C.2       1 <0>         0.5313
     17 O2          2.8118   -2.6431    7.3760 O.2       1 <0>        -0.5118
     18 C12         2.2856   -4.6578    6.2653 C.3       1 <0>        -0.1117
     19 H2          2.8023   -4.9475    5.3503 H         1 <0>         0.1316
     20 C13         0.8335   -5.1619    6.2235 C.3       1 <0>        -0.1228
     21 C14         0.8031   -6.6988    6.4039 C.3       1 <0>        -0.5789
     22 S1          2.3153   -7.0185    7.4007 S.o2      1 <0>         2.3734
     23 O3          3.2065   -7.8252    6.6429 O.2       1 <0>        -0.9286
     24 O4          1.9306   -7.4355    8.7035 O.2       1 <0>        -0.9286
     25 C15         2.9877   -5.3057    7.4928 C.3       1 <0>        -0.5590
     26 H3          1.0042    1.8801    0.0026 H         1 <0>         0.0754
     27 H4         -0.5455    1.8639   -0.8728 H         1 <0>         0.0716
     28 H5         -0.5286    1.8543    0.9071 H         1 <0>         0.0726
     29 H6         -0.0064   -0.1437   -2.1314 H         1 <0>         0.1262
     30 H7          0.0266   -2.6056   -2.1449 H         1 <0>         0.1249
     31 H8          0.0540   -3.8484   -0.0191 H         1 <0>         0.1247
     32 H9          0.0491   -2.6290    2.1199 H         1 <0>         0.1132
     33 H10        -1.4112    0.9271    3.8457 H         1 <0>         0.0688
     34 H11        -1.8630    1.0104    2.1260 H         1 <0>         0.0731
     35 H12        -1.9889   -0.5319    3.0056 H         1 <0>         0.0599
     36 H13         0.6212   -1.7585    3.4534 H         1 <0>         0.3889
     37 H14         2.1657   -0.5805    6.3553 H         1 <0>         0.4458
     38 H15         1.3334   -2.7980    4.6717 H         1 <0>         0.4189
     39 H16         0.2641   -4.6921    7.0255 H         1 <0>         0.0977
     40 H17         0.3874   -4.9013    5.2637 H         1 <0>         0.1025
     41 H18        -0.0903   -7.0066    6.9473 H         1 <0>         0.1480
     42 H19         0.8625   -7.2025    5.4391 H         1 <0>         0.1451
     43 H20         4.0713   -5.3010    7.3750 H         1 <0>         0.1504
     44 H21         2.6919   -4.8153    8.4202 H         1 <0>         0.1535
@<TRIPOS>BOND
     1    1    2 1
     2    1   26 1
     3    1   27 1
     4    1   28 1
     5    2    7 ar
     6    2    3 ar
     7    3    4 ar
     8    3   29 1
     9    4    5 ar
    10    4   30 1
    11    5    6 ar
    12    5   31 1
    13    6    7 ar
    14    6   32 1
    15    7    8 1
    16    8    9 1
    17    8   10 1
    18    8   11 1
    19   10   33 1
    20   10   34 1
    21   10   35 1
    22   11   12 am
    23   11   36 1
    24   12   13 2
    25   12   14 am
    26   14   15 1
    27   14   37 1
    28   15   16 am
    29   15   38 1
    30   16   17 2
    31   16   18 1
    32   18   19 1
    33   18   25 1
    34   18   20 1
    35   20   21 1
    36   20   39 1
    37   20   40 1
    38   21   22 1
    39   21   41 1
    40   21   42 1
    41   22   23 2
    42   22   24 2
    43   22   25 1
    44   25   43 1
    45   25   44 1
@<TRIPOS>MOLECULE
ZINC64283182
   41    44     0     0     0
SMALL
USER_CHARGES

@<TRIPOS>ATOM
      1 C1         -0.4951    1.7394    0.0988 C.3       1 <0>        -0.1731
      2 C2         -0.3217    0.2459   -0.0032 C.2       1 <0>         0.5186
      3 O1          0.7872   -0.2285   -0.1302 O.2       1 <0>        -0.5283
      4 N1         -1.3989   -0.5626    0.0467 N.am      1 <0>        -0.7292
      5 C3         -1.2302   -2.0145   -0.0524 C.3       1 <0>         0.4197
      6 H1         -0.4011   -2.3538    0.5685 H         1 <0>         0.1376
      7 N2         -2.4731   -2.7158    0.2962 N.pl3     1 <0>        -0.7389
      8 C4         -3.0712   -3.4987   -0.6930 C.ar      1 <0>         0.1630
      9 C5         -4.2576   -4.2392   -0.5432 C.ar      1 <0>        -0.1317
     10 C6         -4.7703   -4.9836   -1.5788 C.ar      1 <0>        -0.0749
     11 C7         -4.1323   -5.0293   -2.8118 C.ar      1 <0>         0.1182
     12 C8         -2.9574   -4.3054   -2.9861 C.ar      1 <0>        -0.0617
     13 C9         -2.4502   -3.5629   -1.9445 C.ar      1 <0>        -0.1171
     14 S1         -1.0040   -2.5358   -1.7998 S.3       1 <0>        -0.1271
     15 N3         -4.6619   -5.7905   -3.8600 N.am      1 <0>        -0.6455
     16 C10        -5.9966   -5.9326   -3.9822 C.2       1 <0>         0.5978
     17 O2         -6.7436   -5.3226   -3.2409 O.2       1 <0>        -0.5034
     18 C11        -6.5499   -6.8251   -5.0119 C.2       1 <0>         0.0182
     19 N4         -5.8927   -7.5488   -5.8751 N.2       1 <0>        -0.2309
     20 N5         -6.6304   -8.2338   -6.6576 N.2       1 <0>        -0.3071
     21 C12        -7.9056   -8.0919   -6.4592 C.2       1 <0>         0.1527
     22 C13        -8.0143   -7.1130   -5.3013 C.3       1 <0>        -0.1471
     23 C14        -9.0314   -8.7564   -7.2089 C.3       1 <0>        -0.1144
     24 C15        -9.1388  -10.2799   -7.1173 C.3       1 <0>        -0.1503
     25 C16        -8.6625   -9.6232   -8.4145 C.3       1 <0>        -0.1528
     26 H2          0.4797    2.2233    0.0392 H         1 <0>         0.0979
     27 H3         -1.1248    2.0888   -0.7195 H         1 <0>         0.0923
     28 H4         -0.9658    1.9864    1.0504 H         1 <0>         0.0913
     29 H5         -2.2858   -0.1831    0.1483 H         1 <0>         0.4060
     30 H6         -2.8634   -2.6381    1.1808 H         1 <0>         0.4153
     31 H7         -4.7758   -4.2228    0.4043 H         1 <0>         0.1299
     32 H8         -5.6831   -5.5418   -1.4314 H         1 <0>         0.1419
     33 H9         -2.4443   -4.3266   -3.9362 H         1 <0>         0.1370
     34 H10        -4.0684   -6.2159   -4.4985 H         1 <0>         0.4224
     35 H11        -8.4997   -7.5741   -4.4411 H         1 <0>         0.1545
     36 H12        -8.5386   -6.2070   -5.6051 H         1 <0>         0.1532
     37 H13        -9.9601   -8.1884   -7.2628 H         1 <0>         0.1370
     38 H14        -8.3952  -10.8015   -6.5147 H         1 <0>         0.1006
     39 H15       -10.1384  -10.7145   -7.1107 H         1 <0>         0.1104
     40 H16        -9.3487   -9.6258   -9.2614 H         1 <0>         0.1080
     41 H17        -7.6056   -9.7128   -8.6654 H         1 <0>         0.1100
@<TRIPOS>BOND
     1    1    2 1
     2    1   26 1
     3    1   27 1
     4    1   28 1
     5    2    3 2
     6    2    4 am
     7    4    5 1
     8    4   29 1
     9    5    6 1
    10    5   14 1
    11    5    7 1
    12    7    8 1
    13    7   30 1
    14    8   13 ar
    15    8    9 ar
    16    9   10 ar
    17    9   31 1
    18   10   11 ar
    19   10   32 1
    20   11   12 ar
    21   11   15 1
    22   12   13 ar
    23   12   33 1
    24   13   14 1
    25   15   16 am
    26   15   34 1
    27   16   17 2
    28   16   18 1
    29   18   22 1
    30   18   19 2
    31   19   20 1
    32   20   21 2
    33   21   22 1
    34   21   23 1
    35   22   35 1
    36   22   36 1
    37   23   25 1
    38   23   24 1
    39   23   37 1
    40   24   25 1
    41   24   38 1
    42   24   39 1
    43   25   40 1
    44   25   41 1
@<TRIPOS>MOLECULE
ZINC66783859
   43    45     0     0     0
SMALL
USER_CHARGES

@<TRIPOS>ATOM
      1 C1          0.0595    1.5042    0.0109 C.3       1 <0>        -0.1172
      2 C2          0.0800   -0.0027    0.0026 C.ar      1 <0>        -0.0918
      3 C3          0.0989   -0.6862   -1.2005 C.ar      1 <0>        -0.0892
      4 C4          0.1178   -2.0693   -1.2170 C.ar      1 <0>        -0.1196
      5 C5          0.1178   -2.7765   -0.0322 C.ar      1 <0>        -0.0914
      6 C6          0.0992   -2.0933    1.1846 C.ar      1 <0>        -0.1264
      7 C7          0.0855   -0.6975    1.1942 C.ar      1 <0>        -0.0551
      8 C8          0.0992   -2.8446    2.4579 C.2       1 <0>         0.5636
      9 O1          0.0830   -2.2469    3.5162 O.2       1 <0>        -0.5347
     10 N1          0.1172   -4.1922    2.4453 N.am      1 <0>        -0.5170
     11 N2          0.1172   -4.9041    3.6519 N.am      1 <0>        -0.5181
     12 C9          0.1351   -6.2517    3.6393 C.2       1 <0>         0.5625
     13 O2          0.1513   -6.8494    2.5810 O.2       1 <0>        -0.5242
     14 C10         0.1351   -7.0030    4.9128 C.ar      1 <0>        -0.0990
     15 C11         0.1107   -6.3189    6.1296 C.ar      1 <0>        -0.1134
     16 C12         0.1102   -7.0225    7.3165 C.ar      1 <0>        -0.0918
     17 C13         0.1344   -8.4048    7.3062 C.ar      1 <0>        -0.1308
     18 C14         0.1588   -9.0949    6.1005 C.ar      1 <0>         0.1852
     19 C15         0.1537   -8.3975    4.9024 C.ar      1 <0>        -0.0922
     20 N3          0.1837  -10.4944    6.0955 N.am      1 <0>        -0.5721
     21 C16         0.3001  -11.3488    7.2867 C.3       1 <0>         0.0843
     22 C17         0.2778  -12.7807    6.7177 C.3       1 <0>         0.0912
     23 N4          0.1511  -12.5811    5.2663 N.am      1 <0>        -0.7345
     24 C18         0.0994  -11.2683    5.0055 C.2       1 <0>         0.6973
     25 O3         -0.0100  -10.8196    3.8807 O.2       1 <0>        -0.5574
     26 H1          1.0821    1.8814    0.0163 H         1 <0>         0.0746
     27 H2         -0.4564    1.8655   -0.8787 H         1 <0>         0.0704
     28 H3         -0.4620    1.8555    0.9013 H         1 <0>         0.0705
     29 H4          0.0986   -0.1374   -2.1307 H         1 <0>         0.1303
     30 H5          0.1322   -2.5968   -2.1593 H         1 <0>         0.1332
     31 H6          0.1318   -3.8563   -0.0464 H         1 <0>         0.1272
     32 H7          0.0749   -0.1628    2.1325 H         1 <0>         0.1388
     33 H8          0.1301   -4.6692    1.6007 H         1 <0>         0.4329
     34 H9          0.1042   -4.4271    4.4964 H         1 <0>         0.4326
     35 H10         0.0925   -5.2392    6.1418 H         1 <0>         0.1292
     36 H11         0.0913   -6.4916    8.2568 H         1 <0>         0.1388
     37 H12         0.1346   -8.9500    8.2384 H         1 <0>         0.1330
     38 H13         0.1682   -8.9321    3.9642 H         1 <0>         0.1750
     39 H14         1.2400  -11.1574    7.8044 H         1 <0>         0.0945
     40 H15        -0.5456  -11.1897    7.9558 H         1 <0>         0.0938
     41 H16         1.2066  -13.3004    6.9528 H         1 <0>         0.0908
     42 H17        -0.5790  -13.3327    7.1042 H         1 <0>         0.0904
     43 H18         0.1077  -13.2880    4.6034 H         1 <0>         0.4359
@<TRIPOS>BOND
     1    1    2 1
     2    1   26 1
     3    1   27 1
     4    1   28 1
     5    2    7 ar
     6    2    3 ar
     7    3    4 ar
     8    3   29 1
     9    4    5 ar
    10    4   30 1
    11    5    6 ar
    12    5   31 1
    13    6    7 ar
    14    6    8 1
    15    7   32 1
    16    8    9 2
    17    8   10 am
    18   10   11 1
    19   10   33 1
    20   11   12 am
    21   11   34 1
    22   12   13 2
    23   12   14 1
    24   14   19 ar
    25   14   15 ar
    26   15   16 ar
    27   15   35 1
    28   16   17 ar
    29   16   36 1
    30   17   18 ar
    31   17   37 1
    32   18   19 ar
    33   18   20 1
    34   19   38 1
    35   20   24 am
    36   20   21 1
    37   21   22 1
    38   21   39 1
    39   21   40 1
    40   22   23 1
    41   22   41 1
    42   22   42 1
    43   23   24 am
    44   23   43 1
    45   24   25 2
@<TRIPOS>MOLECULE
ZINC00851455
   57    61     0     0     0
SMALL
USER_CHARGES
(4-hydroxy-5-methoxy-2-nitro-phenyl)-dimethyl-BLAHone
@<TRIPOS>ATOM
      1 C1         -3.6770    0.0466    3.2439 C.3       1 <0>        -0.1491
      2 C2         -3.9655    1.0535    2.1303 C.3       1 <0>        -0.0592
      3 C3         -2.7901    1.1055    1.1517 C.3       1 <0>        -0.0969
      4 C4         -2.6022   -0.2299    0.4811 C.2       1 <0>         0.0926
      5 C5         -3.6765   -1.0330    0.2439 C.2       1 <0>        -0.2881
      6 C6         -3.5141   -2.3505   -0.4733 C.3       1 <0>         0.2407
      7 H1         -4.2364   -3.0683   -0.0743 H         1 <0>         0.1375
      8 N1         -2.1618   -2.8748   -0.2885 N.pl3     1 <0>        -0.6962
      9 C7         -1.0888   -2.0077   -0.1820 C.ar      1 <0>         0.2727
     10 C8         -1.3057   -0.6479    0.0938 C.ar      1 <0>        -0.1912
     11 C9         -0.1635    0.2598    0.0312 C.ar      1 <0>         0.0294
     12 C10        -0.2926    1.6503    0.0592 C.ar      1 <0>        -0.1429
     13 C11         0.8168    2.4462    0.0623 C.ar      1 <0>        -0.0891
     14 C12         2.0929    1.8941    0.0271 C.ar      1 <0>        -0.1383
     15 C13         2.2612    0.5440   -0.0339 C.ar      1 <0>        -0.0791
     16 C14         1.1378   -0.2981   -0.0714 C.ar      1 <0>        -0.1022
     17 C15         1.2929   -1.6893   -0.2237 C.ar      1 <0>        -0.0246
     18 C16         0.2111   -2.5010   -0.3245 C.ar      1 <0>        -0.1810
     19 C17        -3.7809   -2.1581   -1.9440 C.ar      1 <0>         0.0044
     20 C18        -3.8089   -0.8833   -2.4791 C.ar      1 <0>        -0.1797
     21 C19        -4.0484   -0.7051   -3.8318 C.ar      1 <0>         0.1601
     22 C20        -4.2712   -1.8107   -4.6476 C.ar      1 <0>         0.0810
     23 C21        -4.2473   -3.0847   -4.1041 C.ar      1 <0>        -0.0451
     24 C22        -4.0025   -3.2559   -2.7539 C.ar      1 <0>        -0.0591
     25 N2         -3.9773   -4.6177   -2.1749 N.pl3     1 <0>         0.0424
     26 O1         -4.0687   -5.5905   -2.9022 O.2       1 <0>        -0.1485
     27 O2         -3.8653   -4.7658   -0.9712 O.3       1 <0>        -0.1784
     28 O3         -4.5113   -1.6406   -5.9753 O.3       1 <0>        -0.4718
     29 O4         -4.0708    0.5476   -4.3607 O.3       1 <0>        -0.2905
     30 C23        -3.8339    1.6347   -3.4639 C.3       1 <0>         0.0164
     31 C24        -4.9663   -0.6608    0.6538 C.2       1 <0>         0.3975
     32 O5         -5.8997   -1.4096    0.4373 O.2       1 <0>        -0.4724
     33 C25        -5.2228    0.6409    1.3614 C.3       1 <0>        -0.1472
     34 C26        -4.1772    2.4416    2.7432 C.3       1 <0>        -0.1433
     35 H2         -2.7772    0.3468    3.7810 H         1 <0>         0.0626
     36 H3         -4.5197    0.0175    3.9347 H         1 <0>         0.0616
     37 H4         -3.5284   -0.9422    2.8102 H         1 <0>         0.0578
     38 H5         -1.8854    1.3680    1.7021 H         1 <0>         0.0982
     39 H6         -2.9951    1.8650    0.3954 H         1 <0>         0.0941
     40 H7         -2.0134   -3.8389   -0.2427 H         1 <0>         0.4172
     41 H8         -1.2647    2.1183    0.0441 H         1 <0>         0.1315
     42 H9          0.7007    3.5198    0.0931 H         1 <0>         0.1252
     43 H10         2.9569    2.5404    0.0479 H         1 <0>         0.1248
     44 H11         3.2554    0.1222   -0.0629 H         1 <0>         0.1284
     45 H12         2.2858   -2.1096   -0.2831 H         1 <0>         0.1355
     46 H13         0.3531   -3.5539   -0.5187 H         1 <0>         0.1314
     47 H14        -3.6398   -0.0269   -1.8432 H         1 <0>         0.1563
     48 H15        -4.4195   -3.9442   -4.7350 H         1 <0>         0.1684
     49 H16        -5.4472   -1.5379   -6.1957 H         1 <0>         0.3962
     50 H17        -2.8479    1.5250   -3.0125 H         1 <0>         0.0635
     51 H18        -3.8795    2.5752   -4.0131 H         1 <0>         0.1128
     52 H19        -4.5936    1.6332   -2.6823 H         1 <0>         0.0619
     53 H20        -5.9839    0.5323    2.0008 H         1 <0>         0.0884
     54 H21        -5.4681    1.4104    0.6277 H         1 <0>         0.0982
     55 H22        -4.3933    3.1591    1.9516 H         1 <0>         0.0592
     56 H23        -5.0141    2.4069    3.4406 H         1 <0>         0.0628
     57 H24        -3.2748    2.7461    3.2733 H         1 <0>         0.0630
@<TRIPOS>BOND
     1    1    2 1
     2    1   35 1
     3    1   36 1
     4    1   37 1
     5    2   33 1
     6    2    3 1
     7    2   34 1
     8    3    4 1
     9    3   38 1
    10    3   39 1
    11    4   10 1
    12    4    5 2
    13    5    6 1
    14    5   31 1
    15    6    7 1
    16    6    8 1
    17    6   19 1
    18    8    9 1
    19    8   40 1
    20    9   18 ar
    21    9   10 ar
    22   10   11 ar
    23   11   16 ar
    24   11   12 ar
    25   12   13 ar
    26   12   41 1
    27   13   14 ar
    28   13   42 1
    29   14   15 ar
    30   14   43 1
    31   15   16 ar
    32   15   44 1
    33   16   17 ar
    34   17   18 ar
    35   17   45 1
    36   18   46 1
    37   19   24 ar
    38   19   20 ar
    39   20   21 ar
    40   20   47 1
    41   21   22 ar
    42   21   29 1
    43   22   23 ar
    44   22   28 1
    45   23   24 ar
    46   23   48 1
    47   24   25 1
    48   25   26 2
    49   25   27 1
    50   28   49 1
    51   29   30 1
    52   30   50 1
    53   30   51 1
    54   30   52 1
    55   31   32 2
    56   31   33 1
    57   33   53 1
    58   33   54 1
    59   34   55 1
    60   34   56 1
    61   34   57 1
@<TRIPOS>MOLECULE
ZINC09581106
   53    58     0     0     0
SMALL
USER_CHARGES
(8R,11S)-5-amino-11-(2-furyl)-9-oxo-8-phenyl-8,10,11,12-tetrahydroquinolino[1,2-a]quinazoline-7-carbonitrile
@<TRIPOS>ATOM
      1 C1         -7.2878    2.1166    4.1596 C.ar      1 <0>        -0.1216
      2 C2         -8.0691    1.3872    3.2830 C.ar      1 <0>        -0.1184
      3 C3         -7.6536    1.2008    1.9778 C.ar      1 <0>        -0.1000
      4 C4         -6.4570    1.7441    1.5491 C.ar      1 <0>        -0.0721
      5 C5         -5.6731    2.4691    2.4272 C.ar      1 <0>        -0.1059
      6 C6         -6.0907    2.6592    3.7311 C.ar      1 <0>        -0.1224
      7 C7         -6.0040    1.5409    0.1262 C.3       1 <0>         0.0749
      8 H1         -6.7259    0.9035   -0.3765 H         1 <0>         0.0950
      9 C8         -4.6730    0.8172    0.1612 C.2       1 <0>        -0.1462
     10 C9         -3.5315    1.5918   -0.0240 C.2       1 <0>         0.3937
     11 N1         -2.3456    0.9690    0.0184 N.2       1 <0>        -0.5726
     12 C10        -1.2083    1.6355    0.0167 C.2       1 <0>         0.4932
     13 C11        -1.2545    3.1047    0.0604 C.ar      1 <0>        -0.1611
     14 C12        -0.0899    3.8647    0.1566 C.ar      1 <0>        -0.0497
     15 C13        -0.1769    5.2372    0.2500 C.ar      1 <0>        -0.1367
     16 C14        -1.4169    5.8549    0.2772 C.ar      1 <0>        -0.0523
     17 C15        -2.5767    5.1080    0.1916 C.ar      1 <0>        -0.1572
     18 C16        -2.5118    3.7397   -0.0035 C.ar      1 <0>         0.1913
     19 N2         -3.6363    2.9534   -0.2422 N.pl3     1 <0>        -0.4721
     20 C17        -4.8003    3.5308   -0.6784 C.2       1 <0>         0.2026
     21 C18        -5.9895    2.8904   -0.5652 C.2       1 <0>        -0.2321
     22 C19        -7.1835    3.4180   -1.0686 C.2       1 <0>         0.4078
     23 O1         -8.2269    2.8134   -0.9141 O.2       1 <0>        -0.4465
     24 C20        -7.1988    4.7310   -1.8090 C.3       1 <0>        -0.1525
     25 C21        -5.8244    4.9362   -2.4555 C.3       1 <0>         0.0055
     26 H2         -5.6381    4.1482   -3.1831 H         1 <0>         0.1140
     27 C22        -4.7616    4.8813   -1.3533 C.3       1 <0>        -0.0967
     28 C23        -5.7784    6.2811   -3.1338 C.2       1 <0>        -0.0155
     29 C24        -5.5582    6.4945   -4.4435 C.2       1 <0>        -0.1942
     30 C25        -5.6000    7.8935   -4.6433 C.2       1 <0>        -0.2134
     31 C26        -5.8434    8.4513   -3.4437 C.2       1 <0>        -0.0337
     32 O2         -5.9562    7.4696   -2.5342 O.3       1 <0>        -0.1723
     33 N3         -0.0111    0.9658    0.0074 N.pl3     1 <0>        -0.8039
     34 C27        -4.5968   -0.5933    0.3754 C.1       1 <0>         0.2971
     35 N4         -4.5363   -1.7149    0.5458 N.1       1 <0>        -0.4404
     36 H3         -7.6128    2.2629    5.1791 H         1 <0>         0.1197
     37 H4         -9.0044    0.9634    3.6177 H         1 <0>         0.1217
     38 H5         -8.2641    0.6310    1.2929 H         1 <0>         0.1234
     39 H6         -4.7361    2.8898    2.0934 H         1 <0>         0.1070
     40 H7         -5.4805    3.2293    4.4159 H         1 <0>         0.1177
     41 H8          0.8794    3.3870    0.1587 H         1 <0>         0.1377
     42 H9          0.7232    5.8313    0.3019 H         1 <0>         0.1397
     43 H10        -1.4797    6.9277    0.3868 H         1 <0>         0.1422
     44 H11        -3.5260    5.6142    0.2736 H         1 <0>         0.1478
     45 H12        -7.9102    4.7093   -2.5115 H         1 <0>         0.0958
     46 H13        -7.4014    5.5425   -1.1112 H         1 <0>         0.1097
     47 H14        -3.7814    5.0514   -1.7921 H         1 <0>         0.1020
     48 H15        -4.9876    5.6598   -0.6223 H         1 <0>         0.1104
     49 H16        -5.3825    5.7416   -5.1976 H         1 <0>         0.1492
     50 H17        -5.4632    8.4143   -5.5795 H         1 <0>         0.1499
     51 H18        -5.9362    9.5091   -3.2462 H         1 <0>         0.2048
     52 H19         0.0021   -0.0041    0.0020 H         1 <0>         0.4200
     53 H20         0.8223    1.4622    0.0021 H         1 <0>         0.4157
@<TRIPOS>BOND
     1    1    6 ar
     2    1    2 ar
     3    1   36 1
     4    2    3 ar
     5    2   37 1
     6    3    4 ar
     7    3   38 1
     8    4    5 ar
     9    4    7 1
    10    5    6 ar
    11    5   39 1
    12    6   40 1
    13    7    8 1
    14    7   21 1
    15    7    9 1
    16    9   10 2
    17    9   34 1
    18   10   19 1
    19   10   11 1
    20   11   12 2
    21   12   13 1
    22   12   33 1
    23   13   18 ar
    24   13   14 ar
    25   14   15 ar
    26   14   41 1
    27   15   16 ar
    28   15   42 1
    29   16   17 ar
    30   16   43 1
    31   17   18 ar
    32   17   44 1
    33   18   19 1
    34   19   20 1
    35   20   27 1
    36   20   21 2
    37   21   22 1
    38   22   23 2
    39   22   24 1
    40   24   25 1
    41   24   45 1
    42   24   46 1
    43   25   26 1
    44   25   27 1
    45   25   28 1
    46   27   47 1
    47   27   48 1
    48   28   32 1
    49   28   29 2
    50   29   30 1
    51   29   49 1
    52   30   31 2
    53   30   50 1
    54   31   32 1
    55   31   51 1
    56   33   52 1
    57   33   53 1
    58   34   35 3
@<TRIPOS>MOLECULE
ZINC32594565
   48    52     0     0     0
SMALL
USER_CHARGES
2-(dioxoBLAHyl)-N-(o-tolyl)acetamide
@<TRIPOS>ATOM
      1 C1          1.8738   -1.5159    6.5839 C.3       1 <0>        -0.1168
      2 C2          1.7442   -2.6636    5.6160 C.ar      1 <0>        -0.1174
      3 C3          1.7016   -3.9622    6.0850 C.ar      1 <0>        -0.1001
      4 C4          1.5884   -5.0161    5.1973 C.ar      1 <0>        -0.1343
      5 C5          1.5118   -4.7737    3.8378 C.ar      1 <0>        -0.1042
      6 C6          1.5481   -3.4775    3.3629 C.ar      1 <0>        -0.1277
      7 C7          1.6617   -2.4166    4.2521 C.ar      1 <0>         0.1507
      8 N1          1.6987   -1.1021    3.7742 N.am      1 <0>        -0.6741
      9 C8          2.1212   -0.8531    2.5188 C.2       1 <0>         0.5185
     10 O1          2.5634   -1.7542    1.8379 O.2       1 <0>        -0.5102
     11 C9          2.0442    0.5448    1.9612 C.3       1 <0>        -0.1459
     12 C10         2.5829    0.5530    0.5291 C.3       1 <0>        -0.0765
     13 C11         1.7444   -0.3870   -0.3343 C.3       1 <0>        -0.0971
     14 S1         -0.0097   -0.0274    0.0006 S.3       1 <0>        -0.0319
     15 C12        -0.0472    1.7536    0.0055 C.2       1 <0>         0.1076
     16 C13         1.0988    2.4734   -0.0048 C.2       1 <0>        -0.2070
     17 S2          0.5291    4.1540    0.0233 S.3       1 <0>         0.0377
     18 C14        -1.1756    3.8303    0.0379 C.2       1 <0>         0.4868
     19 O2         -2.1032    4.6201    0.0579 O.2       1 <0>        -0.4552
     20 N2         -1.2127    2.4832    0.0254 N.am      1 <0>        -0.6495
     21 H1         -2.1843    1.9676    0.0312 H         1 <0>         0.4389
     22 C15         2.4915    1.9703   -0.0364 C.3       1 <0>         0.0455
     23 H2          2.7456    1.9981   -1.1063 H         1 <0>         0.1162
     24 C16         3.4862    2.8510    0.6574 C.ar      1 <0>        -0.1448
     25 C17         3.2773    4.2181    0.6991 C.ar      1 <0>        -0.0693
     26 C18         4.1953    5.0468    1.3139 C.ar      1 <0>        -0.1244
     27 C19         5.3310    4.5093    1.8917 C.ar      1 <0>        -0.0775
     28 C20         5.5428    3.1469    1.8587 C.ar      1 <0>        -0.1238
     29 C21         4.6192    2.3058    1.2454 C.ar      1 <0>         0.1229
     30 O3          4.8653    0.9680    1.2500 O.3       1 <0>        -0.2866
     31 C22         4.0414    0.1672    0.5395 C.2       1 <0>         0.5122
     32 O4          4.4495   -0.8027   -0.0544 O.2       1 <0>        -0.3943
     33 H3          1.9249   -1.9064    7.6110 H         1 <0>         0.0722
     34 H4          1.0009   -0.8537    6.4864 H         1 <0>         0.0670
     35 H5          2.7902   -0.9498    6.3608 H         1 <0>         0.0686
     36 H6          1.7616   -4.1548    7.1460 H         1 <0>         0.1252
     37 H7          1.5602   -6.0307    5.5662 H         1 <0>         0.1227
     38 H8          1.4238   -5.5991    3.1468 H         1 <0>         0.1245
     39 H9          1.4878   -3.2889    2.3012 H         1 <0>         0.1437
     40 H10         1.3830   -0.2719    4.4231 H         1 <0>         0.4345
     41 H11         0.9973    0.8823    1.9611 H         1 <0>         0.1287
     42 H12         2.6476    1.2217    2.5838 H         1 <0>         0.1130
     43 H13         1.9750   -0.2134   -1.3958 H         1 <0>         0.1137
     44 H14         1.9779   -1.4300   -0.0742 H         1 <0>         0.1657
     45 H15         2.3909    4.6396    0.2485 H         1 <0>         0.1317
     46 H16         4.0264    6.1131    1.3437 H         1 <0>         0.1371
     47 H17         6.0519    5.1564    2.3691 H         1 <0>         0.1410
     48 H18         6.4303    2.7303    2.3117 H         1 <0>         0.1422
@<TRIPOS>BOND
     1    1    2 1
     2    1   33 1
     3    1   34 1
     4    1   35 1
     5    2    7 ar
     6    2    3 ar
     7    3    4 ar
     8    3   36 1
     9    4    5 ar
    10    4   37 1
    11    5    6 ar
    12    5   38 1
    13    6    7 ar
    14    6   39 1
    15    7    8 1
    16    8    9 am
    17    8   40 1
    18    9   10 2
    19    9   11 1
    20   11   12 1
    21   11   41 1
    22   11   42 1
    23   12   22 1
    24   12   31 1
    25   12   13 1
    26   13   14 1
    27   13   43 1
    28   13   44 1
    29   14   15 1
    30   15   20 1
    31   15   16 2
    32   16   17 1
    33   16   22 1
    34   17   18 1
    35   18   19 2
    36   18   20 am
    37   20   21 1
    38   22   23 1
    39   22   24 1
    40   24   29 ar
    41   24   25 ar
    42   25   26 ar
    43   25   45 1
    44   26   27 ar
    45   26   46 1
    46   27   28 ar
    47   27   47 1
    48   28   29 ar
    49   28   48 1
    50   29   30 1
    51   30   31 1
    52   31   32 2
@<TRIPOS>MOLECULE
ZINC38971365
   40    43     0     0     0
SMALL
USER_CHARGES

@<TRIPOS>ATOM
      1 C1          0.7869    2.3726    0.2699 C.ar      1 <0>        -0.1073
      2 C2          2.0426    2.9218    0.0823 C.ar      1 <0>        -0.1207
      3 C3          3.1524    2.1045    0.0116 C.ar      1 <0>        -0.0841
      4 C4          3.0064    0.7237    0.1296 C.ar      1 <0>        -0.0358
      5 C5          1.7390    0.1759    0.3185 C.ar      1 <0>        -0.1012
      6 C6          0.6361    1.0026    0.3878 C.ar      1 <0>        -0.1213
      7 C7          4.1958   -0.1601    0.0539 C.2       1 <0>         0.0316
      8 C8          4.1626   -1.5032    0.1505 C.2       1 <0>        -0.1674
      9 C9          5.6178   -1.9139    0.0116 C.3       1 <0>        -0.0408
     10 H1          5.9617   -2.4227    0.9121 H         1 <0>         0.1496
     11 N1          6.3147   -0.6281   -0.1573 N.2       1 <0>        -0.1109
     12 N2          5.4715    0.2709   -0.1284 N.2       1 <0>        -0.1520
     13 C10         5.8130   -2.8039   -1.2175 C.3       1 <0>         0.2830
     14 H2          5.1313   -3.6534   -1.1752 H         1 <0>         0.0767
     15 N3          5.5740   -2.0228   -2.4525 N.3       1 <0>        -0.4725
     16 N4          6.5701   -2.5343   -3.4072 N.3       1 <0>        -0.4707
     17 C11         7.7633   -2.7670   -2.5520 C.3       1 <0>         0.3764
     18 H3          8.3008   -1.8335   -2.3853 H         1 <0>         0.1328
     19 N5          7.2067   -3.2777   -1.2815 N.pl3     1 <0>        -0.5322
     20 N6          7.8720   -4.0575   -0.3265 N.2       1 <0>        -0.1500
     21 C12         7.2225   -4.5252    0.6976 C.2       1 <0>         0.0988
     22 C13         7.9406   -5.2460    1.7553 C.2       1 <0>        -0.1036
     23 C14         7.4435   -5.8207    2.9110 C.2       1 <0>        -0.1294
     24 C15         8.3254   -6.4501    3.7604 C.2       1 <0>        -0.1129
     25 C16         9.6452   -6.4868    3.4398 C.2       1 <0>        -0.1848
     26 S1          9.6826   -5.6162    1.8819 S.3       1 <0>         0.1756
     27 Br1        11.0770   -7.2680    4.3967 Br        1 <0>         0.0420
     28 S2          8.8566   -4.0002   -3.3100 S.3       1 <0>        -0.2052
     29 H4         -0.0784    3.0162    0.3291 H         1 <0>         0.1258
     30 H5          2.1546    3.9920   -0.0094 H         1 <0>         0.1284
     31 H6          4.1323    2.5343   -0.1353 H         1 <0>         0.1348
     32 H7          1.6200   -0.8936    0.4103 H         1 <0>         0.1223
     33 H8         -0.3466    0.5792    0.5345 H         1 <0>         0.1272
     34 H9          3.3018   -2.1395    0.2937 H         1 <0>         0.1727
     35 H10         4.6364   -2.1673   -2.7960 H         1 <0>         0.3634
     36 H11         6.2561   -3.3942   -3.8315 H         1 <0>         0.3338
     37 H12         6.1543   -4.3835    0.7701 H         1 <0>         0.1325
     38 H13         6.3893   -5.7764    3.1416 H         1 <0>         0.1459
     39 H14         7.9721   -6.9094    4.6718 H         1 <0>         0.1453
     40 H15         9.2173   -3.4408   -4.4787 H         1 <0>         0.1044
@<TRIPOS>BOND
     1    1    6 ar
     2    1    2 ar
     3    1   29 1
     4    2    3 ar
     5    2   30 1
     6    3    4 ar
     7    3   31 1
     8    4    5 ar
     9    4    7 1
    10    5    6 ar
    11    5   32 1
    12    6   33 1
    13    7   12 1
    14    7    8 2
    15    8    9 1
    16    8   34 1
    17    9   10 1
    18    9   11 1
    19    9   13 1
    20   11   12 2
    21   13   14 1
    22   13   19 1
    23   13   15 1
    24   15   16 1
    25   15   35 1
    26   16   17 1
    27   16   36 1
    28   17   18 1
    29   17   19 1
    30   17   28 1
    31   19   20 1
    32   20   21 2
    33   21   22 1
    34   21   37 1
    35   22   26 1
    36   22   23 2
    37   23   24 1
    38   23   38 1
    39   24   25 2
    40   24   39 1
    41   25   26 1
    42   25   27 1
    43   28   40 1
@<TRIPOS>MOLECULE
ZINC47147006
   45    49     0     0     0
SMALL
USER_CHARGES

@<TRIPOS>ATOM
      1 C1         -0.0167    1.3783    0.0096 C.ar      1 <0>        -0.1014
      2 C2          1.1699    2.0888    0.0021 C.ar      1 <0>        -0.0739
      3 C3          2.3773    1.4188   -0.0135 C.ar      1 <0>        -0.0977
      4 C4          2.3994    0.0305   -0.0212 C.ar      1 <0>         0.1552
      5 C5          1.2069   -0.6798   -0.0132 C.ar      1 <0>        -0.1692
      6 C6          0.0021   -0.0041    0.0020 C.ar      1 <0>        -0.0621
      7 C7          1.2264   -2.1867   -0.0220 C.3       1 <0>         0.5013
      8 F1         -0.0863   -2.6702   -0.0114 F         1 <0>        -0.1660
      9 F2          1.8803   -2.6378   -1.1735 F         1 <0>        -0.1693
     10 F3          1.9035   -2.6509    1.1109 F         1 <0>        -0.1662
     11 N1          3.6236   -0.6524   -0.0375 N.am      1 <0>        -0.5557
     12 C8          4.2582   -1.0008   -1.1760 C.2       1 <0>         0.5325
     13 O1          4.0160   -0.5959   -2.2927 O.2       1 <0>        -0.4235
     14 C9          5.3541   -2.0165   -0.7801 C.3       1 <0>        -0.0834
     15 H1          6.2280   -2.0035   -1.4314 H         1 <0>         0.1617
     16 C10         4.6141   -3.3516   -0.7906 C.3       1 <0>         0.0263
     17 H2          3.5599   -3.1562   -0.5943 H         1 <0>         0.1115
     18 C11         5.0812   -4.3678    0.1767 C.2       1 <0>        -0.1951
     19 C12         5.8293   -4.2163    1.2856 C.2       1 <0>         0.0852
     20 N2          6.0552   -5.3639    2.0060 N.am      1 <0>        -0.6355
     21 H3          6.5628   -5.3275    2.8318 H         1 <0>         0.4145
     22 C13         5.5709   -6.5391    1.5632 C.2       1 <0>         0.4735
     23 O2          5.6848   -7.6422    2.0681 O.2       1 <0>        -0.4556
     24 S1          4.7709   -6.1184    0.1455 S.3       1 <0>         0.0900
     25 S2          6.4808   -2.6213    1.7141 S.3       1 <0>         0.0663
     26 C14         5.6331   -1.4728    0.6280 C.3       1 <0>        -0.1472
     27 H4          6.2454   -0.5779    0.5167 H         1 <0>         0.1781
     28 C15         4.2823   -1.0189    1.0893 C.2       1 <0>         0.5428
     29 O3          3.8666   -0.9878    2.2276 O.2       1 <0>        -0.4125
     30 C16         4.7284   -3.9397   -2.1734 C.ar      1 <0>        -0.1018
     31 C17         5.9741   -4.2256   -2.7010 C.ar      1 <0>        -0.0821
     32 C18         6.0816   -4.7643   -3.9685 C.ar      1 <0>        -0.1401
     33 C19         4.9384   -5.0187   -4.7121 C.ar      1 <0>         0.1181
     34 C20         3.6896   -4.7314   -4.1803 C.ar      1 <0>        -0.1392
     35 C21         3.5872   -4.1976   -2.9102 C.ar      1 <0>        -0.0840
     36 O4          5.0415   -5.5482   -5.9594 O.3       1 <0>        -0.4988
     37 H5         -0.9597    1.9044    0.0260 H         1 <0>         0.1467
     38 H6          1.1521    3.1686    0.0081 H         1 <0>         0.1463
     39 H7          3.3036    1.9742   -0.0201 H         1 <0>         0.1421
     40 H8         -0.9261   -0.5562    0.0079 H         1 <0>         0.1501
     41 H9          6.8638   -4.0273   -2.1217 H         1 <0>         0.1290
     42 H10         7.0549   -4.9868   -4.3804 H         1 <0>         0.1332
     43 H11         2.7981   -4.9285   -4.7572 H         1 <0>         0.1325
     44 H12         2.6152   -3.9778   -2.4941 H         1 <0>         0.1296
     45 H13         5.0301   -6.5149   -5.9785 H         1 <0>         0.3939
@<TRIPOS>BOND
     1    1    6 ar
     2    1    2 ar
     3    1   37 1
     4    2    3 ar
     5    2   38 1
     6    3    4 ar
     7    3   39 1
     8    4    5 ar
     9    4   11 1
    10    5    6 ar
    11    5    7 1
    12    6   40 1
    13    7    8 1
    14    7    9 1
    15    7   10 1
    16   11   28 am
    17   11   12 am
    18   12   13 2
    19   12   14 1
    20   14   15 1
    21   14   26 1
    22   14   16 1
    23   16   17 1
    24   16   18 1
    25   16   30 1
    26   18   24 1
    27   18   19 2
    28   19   20 1
    29   19   25 1
    30   20   21 1
    31   20   22 am
    32   22   23 2
    33   22   24 1
    34   25   26 1
    35   26   27 1
    36   26   28 1
    37   28   29 2
    38   30   35 ar
    39   30   31 ar
    40   31   32 ar
    41   31   41 1
    42   32   33 ar
    43   32   42 1
    44   33   34 ar
    45   33   36 1
    46   34   35 ar
    47   34   43 1
    48   35   44 1
    49   36   45 1
@<TRIPOS>MOLECULE
ZINC04232579
   62    64     0     0     0
SMALL
USER_CHARGES
ethyl 8-(4-dimethylaminobenzoyl)amino-3,3,5,5-tetramethyl-7-thia-4-azabicyclo[4.3.0]nona-8,10-diene-9-carboxylate
@<TRIPOS>ATOM
      1 C1          1.8519   -4.8159    2.3500 C.3       1 <0>        -0.1547
      2 C2          1.7674   -4.1988    0.9526 C.3       1 <0>         0.0581
      3 O1          1.5896   -2.7623    1.0677 O.3       1 <0>        -0.3503
      4 C3          1.4962   -2.0627   -0.0817 C.2       1 <0>         0.5232
      5 O2          1.5617   -2.6385   -1.1512 O.2       1 <0>        -0.4832
      6 C4          1.3160   -0.6101   -0.0421 C.2       1 <0>        -0.2225
      7 C5          0.0019   -0.0031   -0.0146 C.2       1 <0>        -0.0291
      8 C6         -0.0161    1.3497    0.0096 C.2       1 <0>        -0.2976
      9 S1          1.6898    1.8189    0.0054 S.3       1 <0>         0.3426
     10 C7          2.4139    0.2452   -0.0331 C.2       1 <0>         0.1165
     11 N1          3.7588   -0.0846   -0.0521 N.am      1 <0>        -0.6196
     12 C8          4.6915    0.8882   -0.0390 C.2       1 <0>         0.5717
     13 O3          4.3521    2.0555   -0.0106 O.2       1 <0>        -0.5013
     14 C9          6.1236    0.5369   -0.0592 C.ar      1 <0>        -0.2205
     15 C10         6.5155   -0.8050   -0.0861 C.ar      1 <0>        -0.0263
     16 C11         7.8525   -1.1293   -0.1108 C.ar      1 <0>        -0.2093
     17 C12         8.8148   -0.1232   -0.0968 C.ar      1 <0>         0.2606
     18 C13         8.4279    1.2138   -0.0647 C.ar      1 <0>        -0.2093
     19 C14         7.0924    1.5449   -0.0457 C.ar      1 <0>         0.0093
     20 N2         10.1651   -0.4544   -0.1154 N.pl3     1 <0>        -0.6209
     21 C15        11.1763    0.5996   -0.2284 C.3       1 <0>         0.0827
     22 C16        10.5765   -1.8573   -0.0221 C.3       1 <0>         0.0784
     23 C17        -1.2279    2.2232    0.0269 C.3       1 <0>         0.1701
     24 C18        -2.3311    0.1100    0.7726 C.3       1 <0>         0.0654
     25 C19        -1.3261   -0.7479   -0.0050 C.3       1 <0>        -0.0688
     26 C20        -3.7054   -0.5803    0.6876 C.3       1 <0>        -0.1817
     27 C21        -1.9198    0.1588    2.2469 C.3       1 <0>        -0.1694
     28 C22        -1.0823    3.2745    1.1361 C.3       1 <0>        -0.1769
     29 C23        -1.3115    2.9639   -1.3213 C.3       1 <0>        -0.1789
     30 H1          2.6985   -4.3868    2.8861 H         1 <0>         0.0690
     31 H2          0.9321   -4.6062    2.8961 H         1 <0>         0.0676
     32 H3          1.9854   -5.8942    2.2636 H         1 <0>         0.0863
     33 H4          0.9208   -4.6278    0.4165 H         1 <0>         0.0742
     34 H5          2.6872   -4.4084    0.4066 H         1 <0>         0.0742
     35 H6          4.0295   -1.0158   -0.0747 H         1 <0>         0.4235
     36 H7          5.7696   -1.5860   -0.0921 H         1 <0>         0.1200
     37 H8          8.1559   -2.1655   -0.1361 H         1 <0>         0.1365
     38 H9          9.1768    1.9920   -0.0543 H         1 <0>         0.1366
     39 H10         6.7930    2.5823   -0.0208 H         1 <0>         0.1400
     40 H11        11.4604    0.9389    0.7677 H         1 <0>         0.0584
     41 H12        12.0538    0.2076   -0.7427 H         1 <0>         0.0757
     42 H13        10.7672    1.4365   -0.7944 H         1 <0>         0.0745
     43 H14         9.6938   -2.4965   -0.0357 H         1 <0>         0.0813
     44 H15        11.2176   -2.1050   -0.8681 H         1 <0>         0.0660
     45 H16        11.1245   -2.0142    0.9071 H         1 <0>         0.0628
     46 H17        -1.6791   -0.8911   -1.0257 H         1 <0>         0.1077
     47 H18        -1.2170   -1.7122    0.4882 H         1 <0>         0.1180
     48 H19        -3.6395   -1.5761    1.1261 H         1 <0>         0.1068
     49 H20        -4.4423    0.0089    1.2333 H         1 <0>         0.0853
     50 H21        -4.0068   -0.6624   -0.3566 H         1 <0>         0.0829
     51 H22        -0.9245    0.5949    2.3323 H         1 <0>         0.0843
     52 H23        -2.6324    0.7681    2.8029 H         1 <0>         0.0816
     53 H24        -1.9098   -0.8519    2.6550 H         1 <0>         0.1045
     54 H25        -0.1977    3.8825    0.9466 H         1 <0>         0.1067
     55 H26        -1.9658    3.9127    1.1501 H         1 <0>         0.0904
     56 H27        -0.9799    2.7746    2.0993 H         1 <0>         0.0872
     57 H28        -1.3864    2.2378   -2.1307 H         1 <0>         0.0856
     58 H29        -2.1911    3.6077   -1.3281 H         1 <0>         0.0891
     59 H30        -0.4163    3.5703   -1.4588 H         1 <0>         0.1076
     60 N3         -2.5040    1.4720    0.2048 N.4       1 <0>        -0.5089
     61 H31        -2.9571    1.3840   -0.7123 H         1 <0>         0.4316
     62 H32        -3.1098    2.0099    0.8356 H         1 <0>         0.4345
@<TRIPOS>BOND
     1    1    2 1
     2    1   30 1
     3    1   31 1
     4    1   32 1
     5    2    3 1
     6    2   33 1
     7    2   34 1
     8    3    4 1
     9    4    5 2
    10    4    6 1
    11    6   10 2
    12    6    7 1
    13    7   25 1
    14    7    8 2
    15    8    9 1
    16    8   23 1
    17    9   10 1
    18   10   11 1
    19   11   12 am
    20   11   35 1
    21   12   13 2
    22   12   14 1
    23   14   19 ar
    24   14   15 ar
    25   15   16 ar
    26   15   36 1
    27   16   17 ar
    28   16   37 1
    29   17   18 ar
    30   17   20 1
    31   18   19 ar
    32   18   38 1
    33   19   39 1
    34   20   21 1
    35   20   22 1
    36   21   40 1
    37   21   41 1
    38   21   42 1
    39   22   43 1
    40   22   44 1
    41   22   45 1
    42   23   28 1
    43   23   29 1
    44   23   60 1
    45   24   25 1
    46   24   26 1
    47   24   27 1
    48   24   60 1
    49   25   46 1
    50   25   47 1
    51   26   48 1
    52   26   49 1
    53   26   50 1
    54   27   51 1
    55   27   52 1
    56   27   53 1
    57   28   54 1
    58   28   55 1
    59   28   56 1
    60   29   57 1
    61   29   58 1
    62   29   59 1
    63   60   61 1
    64   60   62 1
@<TRIPOS>MOLECULE
ZINC13008089
   70    73     0     0     0
SMALL
USER_CHARGES
N'-[(2S)-2-(1-methylindolin-5-yl)-2-(1-piperidyl)ethyl]-N-(2,4,6-trimethylphenyl)oxamide
@<TRIPOS>ATOM
      1 C1        -10.7450   13.7636   -3.9713 C.3       1 <0>        -0.1205
      2 C2        -10.2013   12.4668   -3.4293 C.ar      1 <0>        -0.0656
      3 C3        -11.0405   11.3788   -3.2726 C.ar      1 <0>        -0.1160
      4 C4        -10.5455   10.1888   -2.7766 C.ar      1 <0>        -0.0739
      5 C5         -9.2028   10.0854   -2.4350 C.ar      1 <0>         0.1059
      6 C6         -8.3638   11.1820   -2.5888 C.ar      1 <0>        -0.0592
      7 C7         -8.8643   12.3674   -3.0902 C.ar      1 <0>        -0.1178
      8 C8         -6.9079   11.0764   -2.2141 C.3       1 <0>        -0.1083
      9 N1         -8.6987    8.8831   -1.9325 N.am      1 <0>        -0.6334
     10 C9         -7.6698    8.2722   -2.5526 C.2       1 <0>         0.5050
     11 O1         -7.1390    8.7982   -3.5090 O.2       1 <0>        -0.4979
     12 C10        -7.1828    6.9479   -2.0629 C.2       1 <0>         0.5166
     13 O2         -7.7136    6.4220   -1.1066 O.2       1 <0>        -0.4854
     14 N2         -6.1539    6.3370   -2.6831 N.am      1 <0>        -0.7264
     15 C11        -5.6762    5.0380   -2.2028 C.3       1 <0>         0.0985
     16 C12        -4.5922    4.5127   -3.1461 C.3       1 <0>         0.0829
     17 H1         -5.0157    4.3644   -4.1395 H         1 <0>         0.1487
     18 C13        -4.0646    3.2011   -2.6241 C.ar      1 <0>        -0.1713
     19 C14        -3.2415    3.1785   -1.5129 C.ar      1 <0>        -0.0905
     20 C15        -2.7588    1.9804   -1.0298 C.ar      1 <0>        -0.1317
     21 C16        -3.0978    0.7832   -1.6584 C.ar      1 <0>         0.1369
     22 C17        -3.9211    0.8172   -2.7774 C.ar      1 <0>        -0.1317
     23 C18        -4.4030    2.0179   -3.2552 C.ar      1 <0>        -0.0396
     24 C19        -4.1157   -0.6072   -3.2576 C.3       1 <0>        -0.0897
     25 C20        -2.9847   -1.3718   -2.5322 C.3       1 <0>         0.0422
     26 N3         -2.7362   -0.5342   -1.3387 N.pl3     1 <0>        -0.4786
     27 C21        -1.3292   -0.6131   -0.9238 C.3       1 <0>         0.0132
     28 C22        -2.2222    4.8223   -3.5301 C.3       1 <0>        -0.0085
     29 C23        -1.1339    5.8766   -3.7446 C.3       1 <0>        -0.1461
     30 C24        -0.9948    6.7246   -2.4772 C.3       1 <0>        -0.1382
     31 C25        -2.3462    7.3664   -2.1512 C.3       1 <0>        -0.1442
     32 C26        -3.3993    6.2689   -1.9829 C.3       1 <0>        -0.0298
     33 C27       -11.4606    9.0036   -2.6067 C.3       1 <0>        -0.1189
     34 H2        -11.0960   14.3835   -3.1463 H         1 <0>         0.0762
     35 H3         -9.9583   14.2897   -4.5119 H         1 <0>         0.0699
     36 H4        -11.5741   13.5556   -4.6477 H         1 <0>         0.0705
     37 H5        -12.0842   11.4600   -3.5380 H         1 <0>         0.1311
     38 H6         -8.2117   13.2190   -3.2139 H         1 <0>         0.1291
     39 H7         -6.3198   10.8472   -3.1028 H         1 <0>         0.0824
     40 H8         -6.5722   12.0228   -1.7903 H         1 <0>         0.0680
     41 H9         -6.7788   10.2826   -1.4783 H         1 <0>         0.0518
     42 H10        -9.0893    8.4881   -1.1373 H         1 <0>         0.4216
     43 H11        -5.7297    6.7573   -3.4474 H         1 <0>         0.4090
     44 H12        -6.5069    4.3329   -2.1753 H         1 <0>         0.1227
     45 H13        -5.2623    5.1510   -1.2008 H         1 <0>         0.1026
     46 H14        -2.9760    4.1028   -1.0213 H         1 <0>         0.1287
     47 H15        -2.1165    1.9695   -0.1616 H         1 <0>         0.1351
     48 H16        -5.0456    2.0341   -4.1230 H         1 <0>         0.1348
     49 H17        -3.9925   -0.6703   -4.3388 H         1 <0>         0.0914
     50 H18        -5.0925   -0.9860   -2.9566 H         1 <0>         0.0978
     51 H19        -3.3159   -2.3690   -2.2425 H         1 <0>         0.1059
     52 H20        -2.0935   -1.4284   -3.1572 H         1 <0>         0.0702
     53 H21        -0.6908   -0.2656   -1.7361 H         1 <0>         0.0456
     54 H22        -1.1736    0.0137   -0.0457 H         1 <0>         0.0796
     55 H23        -1.0792   -1.6461   -0.6818 H         1 <0>         0.0868
     56 H24        -1.9409    4.1735   -2.7006 H         1 <0>         0.1396
     57 H25        -2.3336    4.2260   -4.4357 H         1 <0>         0.1284
     58 H26        -1.4079    6.5172   -4.5828 H         1 <0>         0.0872
     59 H27        -0.1858    5.3829   -3.9579 H         1 <0>         0.1113
     60 H28        -0.2510    7.5045   -2.6406 H         1 <0>         0.0948
     61 H29        -0.6828    6.0907   -1.6472 H         1 <0>         0.0807
     62 H30        -2.6393    8.0305   -2.9643 H         1 <0>         0.0896
     63 H31        -2.2642    7.9371   -1.2261 H         1 <0>         0.1121
     64 H32        -4.3658    6.7233   -1.7647 H         1 <0>         0.1358
     65 H33        -3.1125    5.6133   -1.1606 H         1 <0>         0.1333
     66 H34       -11.9008    9.0245   -1.6097 H         1 <0>         0.0772
     67 H35       -12.2525    9.0458   -3.3545 H         1 <0>         0.0751
     68 H36       -10.8903    8.0833   -2.7328 H         1 <0>         0.0626
     69 N4         -3.5021    5.5051   -3.2444 N.4       1 <0>        -0.3919
     70 H37        -3.7111    6.1551   -4.0112 H         1 <0>         0.4265
@<TRIPOS>BOND
     1    1    2 1
     2    1   34 1
     3    1   35 1
     4    1   36 1
     5    2    7 ar
     6    2    3 ar
     7    3    4 ar
     8    3   37 1
     9    4    5 ar
    10    4   33 1
    11    5    6 ar
    12    5    9 1
    13    6    7 ar
    14    6    8 1
    15    7   38 1
    16    8   39 1
    17    8   40 1
    18    8   41 1
    19    9   10 am
    20    9   42 1
    21   10   11 2
    22   10   12 1
    23   12   13 2
    24   12   14 am
    25   14   15 1
    26   14   43 1
    27   15   16 1
    28   15   44 1
    29   15   45 1
    30   16   17 1
    31   16   18 1
    32   16   69 1
    33   18   23 ar
    34   18   19 ar
    35   19   20 ar
    36   19   46 1
    37   20   21 ar
    38   20   47 1
    39   21   26 1
    40   21   22 ar
    41   22   23 ar
    42   22   24 1
    43   23   48 1
    44   24   25 1
    45   24   49 1
    46   24   50 1
    47   25   26 1
    48   25   51 1
    49   25   52 1
    50   26   27 1
    51   27   53 1
    52   27   54 1
    53   27   55 1
    54   28   29 1
    55   28   56 1
    56   28   57 1
    57   28   69 1
    58   29   30 1
    59   29   58 1
    60   29   59 1
    61   30   31 1
    62   30   60 1
    63   30   61 1
    64   31   32 1
    65   31   62 1
    66   31   63 1
    67   32   64 1
    68   32   65 1
    69   32   69 1
    70   33   66 1
    71   33   67 1
    72   33   68 1
    73   69   70 1
@<TRIPOS>MOLECULE
ZINC36037759
   56    59     0     0     0
SMALL
USER_CHARGES

@<TRIPOS>ATOM
      1 C1         -0.0187    1.5258    0.0104 C.3       1 <0>        -0.1508
      2 C2          0.0021   -0.0041    0.0020 C.3       1 <0>        -0.1112
      3 H1          0.5122   -0.3562   -0.8946 H         1 <0>         0.0924
      4 C3         -1.4343   -0.5350    0.0151 C.3       1 <0>        -0.1289
      5 C4         -1.4020   -2.0645    0.0857 C.3       1 <0>        -0.1125
      6 H2         -2.4205   -2.4474    0.1515 H         1 <0>         0.1203
      7 C5         -0.6129   -2.4960    1.3237 C.3       1 <0>        -0.0033
      8 N1          0.7584   -1.9796    1.2388 N.4       1 <0>        -0.3820
      9 C6          0.7401   -0.5119    1.2425 C.3       1 <0>        -0.0109
     10 C7          1.5335   -2.4611    2.3901 C.3       1 <0>         0.0800
     11 C8          2.9712   -2.0344    2.2415 C.2       1 <0>         0.0241
     12 C9          3.4387   -0.9050    2.8277 C.2       1 <0>        -0.2617
     13 S1          5.1455   -0.9408    2.3049 S.3       1 <0>         0.3002
     14 C10         5.0851   -2.3653    1.4106 C.2       1 <0>         0.2612
     15 N2          3.8327   -2.7468    1.5394 N.2       1 <0>        -0.5578
     16 N3          6.1106   -2.9896    0.7101 N.am      1 <0>        -0.6109
     17 C11         7.3444   -2.4474    0.6960 C.2       1 <0>         0.5261
     18 O1          7.5599   -1.4148    1.2945 O.2       1 <0>        -0.4717
     19 C12         8.4562   -3.1242   -0.0635 C.3       1 <0>        -0.1250
     20 C13         9.7429   -2.3092    0.0817 C.3       1 <0>        -0.0893
     21 H3          9.5638   -1.2821   -0.2364 H         1 <0>         0.1651
     22 C14        10.8279   -2.9202   -0.7665 C.2       1 <0>         0.5294
     23 O2         11.0493   -2.4364   -1.8565 O.2       1 <0>        -0.4943
     24 N4         11.5543   -3.9631   -0.3784 N.am      1 <0>        -0.6507
     25 C15        11.5275   -4.5752    0.8712 C.ar      1 <0>         0.1721
     26 C16        12.0767   -5.8456    1.0163 C.ar      1 <0>        -0.1326
     27 C17        12.0539   -6.4784    2.2442 C.ar      1 <0>         0.0026
     28 C18        11.4844   -5.8576    3.3423 C.ar      1 <0>        -0.1152
     29 C19        10.9383   -4.5938    3.2126 C.ar      1 <0>        -0.0428
     30 C20        10.9634   -3.9536    1.9847 C.ar      1 <0>        -0.1462
     31 S2         10.2844   -2.3257    1.8183 S.3       1 <0>        -0.0351
     32 Cl1        12.7436   -8.0628    2.4108 Cl        1 <0>        -0.0457
     33 C21        -0.7276   -2.6198   -1.1704 C.3       1 <0>        -0.1705
     34 H4          1.0039    1.9031    0.0027 H         1 <0>         0.0673
     35 H5         -0.5459    1.8868   -0.8726 H         1 <0>         0.0772
     36 H6         -0.5289    1.8773    0.9072 H         1 <0>         0.0681
     37 H7         -1.9606   -0.1411    0.8845 H         1 <0>         0.0842
     38 H8         -1.9466   -0.2229   -0.8949 H         1 <0>         0.0945
     39 H9         -1.0951   -2.1001    2.2175 H         1 <0>         0.1317
     40 H10        -0.5882   -3.5844    1.3771 H         1 <0>         0.1315
     41 H11         1.7630   -0.1355    1.2357 H         1 <0>         0.1274
     42 H12         0.2298   -0.1583    2.1385 H         1 <0>         0.1311
     43 H13         1.1222   -2.0391    3.3070 H         1 <0>         0.1448
     44 H14         1.4801   -3.5488    2.4348 H         1 <0>         0.1428
     45 H15         2.9213   -0.1825    3.4415 H         1 <0>         0.2054
     46 H16         5.9382   -3.8154    0.2314 H         1 <0>         0.4303
     47 H17         8.6132   -4.1255    0.3377 H         1 <0>         0.1168
     48 H18         8.1868   -3.1932   -1.1174 H         1 <0>         0.1286
     49 H19        12.1654   -4.3360   -1.0329 H         1 <0>         0.4202
     50 H20        12.5224   -6.3391    0.1653 H         1 <0>         0.1472
     51 H21        11.4663   -6.3594    4.2985 H         1 <0>         0.1479
     52 H22        10.4926   -4.1069    4.0673 H         1 <0>         0.1479
     53 H23         0.2912   -2.2378   -1.2348 H         1 <0>         0.0498
     54 H24        -0.7050   -3.7084   -1.1195 H         1 <0>         0.0732
     55 H25        -1.2886   -2.3088   -2.0517 H         1 <0>         0.0844
     56 H26         1.1878   -2.3068    0.3863 H         1 <0>         0.4235
@<TRIPOS>BOND
     1    1    2 1
     2    1   34 1
     3    1   35 1
     4    1   36 1
     5    2    3 1
     6    2    9 1
     7    2    4 1
     8    4    5 1
     9    4   37 1
    10    4   38 1
    11    5    6 1
    12    5    7 1
    13    5   33 1
    14    7    8 1
    15    7   39 1
    16    7   40 1
    17    8    9 1
    18    8   10 1
    19    8   56 1
    20    9   41 1
    21    9   42 1
    22   10   11 1
    23   10   43 1
    24   10   44 1
    25   11   15 1
    26   11   12 2
    27   12   13 1
    28   12   45 1
    29   13   14 1
    30   14   15 2
    31   14   16 1
    32   16   17 am
    33   16   46 1
    34   17   18 2
    35   17   19 1
    36   19   20 1
    37   19   47 1
    38   19   48 1
    39   20   21 1
    40   20   31 1
    41   20   22 1
    42   22   23 2
    43   22   24 am
    44   24   25 1
    45   24   49 1
    46   25   30 ar
    47   25   26 ar
    48   26   27 ar
    49   26   50 1
    50   27   28 ar
    51   27   32 1
    52   28   29 ar
    53   28   51 1
    54   29   30 ar
    55   29   52 1
    56   30   31 1
    57   33   53 1
    58   33   54 1
    59   33   55 1
@<TRIPOS>MOLECULE
ZINC39997189
   47    50     0     0     0
SMALL
USER_CHARGES

@<TRIPOS>ATOM
      1 C1         -0.0167    1.3781    0.0096 C.ar      1 <0>        -0.1055
      2 C2          1.1709    2.0855    0.0021 C.ar      1 <0>        -0.1181
      3 C3          2.3773    1.4107   -0.0130 C.ar      1 <0>        -0.0968
      4 C4          2.3960    0.0285   -0.0201 C.ar      1 <0>        -0.0896
      5 C5          1.2084   -0.6789   -0.0117 C.ar      1 <0>        -0.0983
      6 C6          0.0021   -0.0041    0.0020 C.ar      1 <0>        -0.1192
      7 C7          3.7112   -0.7071   -0.0376 C.3       1 <0>        -0.0688
      8 S1          4.2568   -1.0108    1.6656 S.3       1 <0>         0.0544
      9 C8          5.7857   -1.8662    1.4773 C.2       1 <0>         0.0843
     10 N1          6.3865   -2.1967    0.3756 N.2       1 <0>        -0.2512
     11 N2          7.5878   -2.8689    0.3423 N.pl3     1 <0>        -0.6166
     12 C9          8.1635   -3.1981    1.6658 C.3       1 <0>         0.3852
     13 H1          9.1250   -2.7064    1.8137 H         1 <0>         0.1541
     14 S2          6.8720   -2.4728    2.7581 S.3       1 <0>        -0.1324
     15 N3          8.2760   -4.6468    1.8529 N.am      1 <0>        -0.7096
     16 C10         9.0422   -5.1406    2.8457 C.2       1 <0>         0.5670
     17 O1          9.6401   -4.3836    3.5862 O.2       1 <0>        -0.4812
     18 C11         9.1553   -6.5978    3.0338 C.2       1 <0>         0.0034
     19 C12         9.9432   -7.1057    4.0548 C.2       1 <0>         0.0050
     20 C13        10.0507   -8.4895    4.2334 C.2       1 <0>         0.0461
     21 C14        10.7884   -9.1576    5.2041 C.ar      1 <0>        -0.1084
     22 C15        11.6153   -8.7107    6.2577 C.ar      1 <0>        -0.0479
     23 C16        12.2267   -9.6033    7.0714 C.ar      1 <0>        -0.1193
     24 C17        12.0754  -10.9876    6.9155 C.ar      1 <0>         0.0279
     25 C18        11.3049  -11.5165    5.9377 C.ar      1 <0>        -0.1828
     26 C19        10.6064  -10.6137    5.0115 C.ar      1 <0>         0.3121
     27 N4          9.8153  -10.8468    3.9980 N.pl3     1 <0>        -0.5632
     28 C20         9.3833   -9.5729    3.4148 C.3       1 <0>         0.0540
     29 C21         8.4513   -7.4892    2.1618 C.1       1 <0>         0.2007
     30 N5          7.8927   -8.1963    1.4700 N.1       1 <0>        -0.3344
     31 H2         -0.9591    1.9053    0.0259 H         1 <0>         0.1270
     32 H3          1.1563    3.1654    0.0076 H         1 <0>         0.1284
     33 H4          3.3051    1.9634   -0.0196 H         1 <0>         0.1275
     34 H5          1.2231   -1.7588   -0.0176 H         1 <0>         0.1254
     35 H6         -0.9258   -0.5567    0.0082 H         1 <0>         0.1274
     36 H7          3.5884   -1.6586   -0.5549 H         1 <0>         0.1035
     37 H8          4.4573   -0.1052   -0.5563 H         1 <0>         0.1060
     38 H9          8.0255   -3.1098   -0.4891 H         1 <0>         0.4411
     39 H10         7.7991   -5.2506    1.2622 H         1 <0>         0.4056
     40 H11        10.4743   -6.4334    4.7124 H         1 <0>         0.1996
     41 H12        11.7609   -7.6521    6.4149 H         1 <0>         0.1638
     42 H13        12.8542   -9.2350    7.8695 H         1 <0>         0.1595
     43 H14        12.5890  -11.6513    7.5953 H         1 <0>         0.1659
     44 H15        11.2046  -12.5872    5.8386 H         1 <0>         0.1669
     45 H16         8.2994   -9.4770    3.4783 H         1 <0>         0.1720
     46 H17         9.7058   -9.5102    2.3755 H         1 <0>         0.1711
     47 H18         9.5515  -11.7256    3.6832 H         1 <0>         0.4584
@<TRIPOS>BOND
     1    1    6 ar
     2    1    2 ar
     3    1   31 1
     4    2    3 ar
     5    2   32 1
     6    3    4 ar
     7    3   33 1
     8    4    5 ar
     9    4    7 1
    10    5    6 ar
    11    5   34 1
    12    6   35 1
    13    7    8 1
    14    7   36 1
    15    7   37 1
    16    8    9 1
    17    9   14 1
    18    9   10 2
    19   10   11 1
    20   11   12 1
    21   11   38 1
    22   12   13 1
    23   12   14 1
    24   12   15 1
    25   15   16 am
    26   15   39 1
    27   16   17 2
    28   16   18 1
    29   18   19 2
    30   18   29 1
    31   19   20 1
    32   19   40 1
    33   20   28 1
    34   20   21 2
    35   21   26 ar
    36   21   22 ar
    37   22   23 ar
    38   22   41 1
    39   23   24 ar
    40   23   42 1
    41   24   25 ar
    42   24   43 1
    43   25   26 ar
    44   25   44 1
    45   26   27 2
    46   27   28 1
    47   27   47 1
    48   28   45 1
    49   28   46 1
    50   29   30 3
@<TRIPOS>MOLECULE
ZINC13303557
   45    47     0     0     0
SMALL
USER_CHARGES

@<TRIPOS>ATOM
      1 C1         -0.0184    1.5028    0.0103 C.3       1 <0>        -0.1186
      2 C2          0.0021   -0.0041    0.0020 C.ar      1 <0>        -0.0600
      3 C3          0.0058   -0.6889   -1.1977 C.ar      1 <0>        -0.1097
      4 C4          0.0250   -2.0713   -1.2061 C.ar      1 <0>        -0.0873
      5 C5          0.0406   -2.7726   -0.0143 C.ar      1 <0>        -0.1119
      6 C6          0.0369   -2.0935    1.1882 C.ar      1 <0>        -0.0892
      7 C7          0.0230   -0.7052    1.1998 C.ar      1 <0>         0.0827
      8 N1          0.0251   -0.0129    2.4189 N.am      1 <0>        -0.5069
      9 C8         -1.0994    0.3246    3.0624 C.2       1 <0>         0.5235
     10 O1         -2.2250    0.0813    2.6839 O.2       1 <0>        -0.4234
     11 C9         -0.7426    1.0574    4.3373 C.3       1 <0>        -0.1237
     12 C10         0.7993    1.0852    4.3188 C.3       1 <0>        -0.1719
     13 H1          1.2030    0.5533    5.1804 H         1 <0>         0.1731
     14 C11         1.1518    0.3602    3.0383 C.2       1 <0>         0.5326
     15 O2          2.2762    0.1525    2.6356 O.2       1 <0>        -0.4569
     16 S1          1.4067    2.7941    4.2842 S.3       1 <0>         0.1399
     17 C12         3.1559    2.6276    4.4155 C.cat     1 <0>         0.4975
     18 N2          3.6932    1.4424    4.5073 N.pl3     1 <0>        -0.7107
     19 N3          3.9557    3.7486    4.4212 N.pl3     1 <0>        -0.5135
     20 N4          5.3465    3.6162    4.5255 N.2       1 <0>        -0.3062
     21 C13         6.1002    4.6725    4.5309 C.2       1 <0>         0.2159
     22 C14         7.5643    4.5331    4.6408 C.ar      1 <0>        -0.0953
     23 C15         8.1432    3.2652    4.7335 C.ar      1 <0>        -0.0522
     24 C16         9.5129    3.1417    4.8361 C.ar      1 <0>        -0.1189
     25 C17        10.3141    4.2713    4.8473 C.ar      1 <0>         0.0024
     26 C18         9.7464    5.5312    4.7561 C.ar      1 <0>        -0.1149
     27 C19         8.3785    5.6682    4.6468 C.ar      1 <0>        -0.0527
     28 Cl1        12.0375    4.1073    4.9767 Cl        1 <0>        -0.0418
     29 H2          1.0042    1.8801    0.0026 H         1 <0>         0.0751
     30 H3         -0.5455    1.8639   -0.8728 H         1 <0>         0.0828
     31 H4         -0.5286    1.8543    0.9071 H         1 <0>         0.0569
     32 H5         -0.0067   -0.1439   -2.1300 H         1 <0>         0.1373
     33 H6          0.0276   -2.6045   -2.1453 H         1 <0>         0.1371
     34 H7          0.0552   -3.8525   -0.0239 H         1 <0>         0.1380
     35 H8          0.0487   -2.6418    2.1187 H         1 <0>         0.1286
     36 H9         -1.1447    2.0704    4.3229 H         1 <0>         0.1439
     37 H10        -1.1060    0.5116    5.2080 H         1 <0>         0.1614
     38 H11         4.6562    1.3508    4.5796 H         1 <0>         0.4434
     39 H12         3.5562    4.6298    4.3529 H         1 <0>         0.4260
     40 H13         5.6554    5.6536    4.4549 H         1 <0>         0.1469
     41 H14         7.5195    2.3835    4.7253 H         1 <0>         0.1405
     42 H15         9.9618    2.1621    4.9082 H         1 <0>         0.1458
     43 H16        10.3767    6.4082    4.7661 H         1 <0>         0.1492
     44 H17         7.9373    6.6511    4.5709 H         1 <0>         0.1468
     45 H18         3.1298    0.6529    4.5033 H         1 <0>         0.4386
@<TRIPOS>BOND
     1    1    2 1
     2    1   29 1
     3    1   30 1
     4    1   31 1
     5    2    7 ar
     6    2    3 ar
     7    3    4 ar
     8    3   32 1
     9    4    5 ar
    10    4   33 1
    11    5    6 ar
    12    5   34 1
    13    6    7 ar
    14    6   35 1
    15    7    8 1
    16    8   14 am
    17    8    9 am
    18    9   10 2
    19    9   11 1
    20   11   12 1
    21   11   36 1
    22   11   37 1
    23   12   13 1
    24   12   14 1
    25   12   16 1
    26   14   15 2
    27   16   17 1
    28   17   18 2
    29   17   19 1
    30   18   38 1
    31   18   45 1
    32   19   20 1
    33   19   39 1
    34   20   21 2
    35   21   22 1
    36   21   40 1
    37   22   27 ar
    38   22   23 ar
    39   23   24 ar
    40   23   41 1
    41   24   25 ar
    42   24   42 1
    43   25   26 ar
    44   25   28 1
    45   26   27 ar
    46   26   43 1
    47   27   44 1
@<TRIPOS>MOLECULE
ZINC65074886
   67    70     0     0     0
SMALL
USER_CHARGES

@<TRIPOS>ATOM
      1 C1         -0.0184    1.5028    0.0103 C.3       1 <0>        -0.1237
      2 C2          0.0021   -0.0041    0.0020 C.ar      1 <0>        -0.0782
      3 C3          0.0057   -0.6888   -1.1991 C.ar      1 <0>        -0.0923
      4 C4          0.0245   -2.0707   -1.2067 C.ar      1 <0>        -0.1109
      5 C5          0.0400   -2.7685   -0.0132 C.ar      1 <0>        -0.0997
      6 C6          0.0373   -2.0840    1.1875 C.ar      1 <0>        -0.1349
      7 C7          0.0229   -0.7015    1.1951 C.ar      1 <0>        -0.0959
      8 C8          0.0538   -2.8445    2.4885 C.3       1 <0>         0.1226
      9 N1          1.4402   -3.0731    2.9030 N.pl3     1 <0>        -0.6614
     10 C9          1.7053   -3.7496    4.0644 C.cat     1 <0>         0.4887
     11 N2          0.7165   -4.1712    4.7582 N.pl3     1 <0>        -0.6064
     12 C10         0.8587   -4.8945    6.0175 C.3       1 <0>         0.0420
     13 C11         2.2855   -5.4292    6.1583 C.3       1 <0>         0.0235
     14 N3          3.2255   -4.3317    5.8734 N.3       1 <0>        -0.6457
     15 C12         3.1415   -3.9616    4.4514 C.3       1 <0>         0.1321
     16 C13         3.9310   -2.6700    4.2215 C.3       1 <0>        -0.1313
     17 C14         5.3848   -2.8815    4.6554 C.3       1 <0>         0.1188
     18 N4          5.9244   -4.0508    3.9483 N.pl3     1 <0>        -0.9978
     19 C15         5.1925   -5.3225    4.0250 C.3       1 <0>         0.1302
     20 C16         3.7412   -5.0826    3.5978 C.3       1 <0>        -0.1192
     21 S1          7.3304   -3.9375    3.0809 S.o2      1 <0>         2.6930
     22 O1          7.2928   -4.9736    2.1091 O.2       1 <0>        -0.9521
     23 O2          7.4819   -2.5689    2.7298 O.2       1 <0>        -0.9490
     24 C17         8.6527   -4.3250    4.1791 C.ar      1 <0>        -0.6840
     25 C18         9.4249   -5.4509    3.9612 C.ar      1 <0>        -0.0157
     26 C19        10.4621   -5.7548    4.8227 C.ar      1 <0>        -0.1091
     27 C20        10.7278   -4.9326    5.9020 C.ar      1 <0>        -0.0197
     28 C21         9.9564   -3.8065    6.1193 C.ar      1 <0>        -0.1389
     29 C22         8.9216   -3.5002    5.2551 C.ar      1 <0>         0.0172
     30 C23         8.0839   -2.2695    5.4890 C.3       1 <0>        -0.1786
     31 C24        11.8581   -5.2645    6.8419 C.3       1 <0>        -0.1318
     32 C25        11.3032   -6.9826    4.5858 C.3       1 <0>        -0.1228
     33 H1          1.0042    1.8801    0.0026 H         1 <0>         0.0779
     34 H2         -0.5455    1.8639   -0.8728 H         1 <0>         0.0745
     35 H3         -0.5286    1.8543    0.9071 H         1 <0>         0.0704
     36 H4         -0.0064   -0.1437   -2.1314 H         1 <0>         0.1331
     37 H5          0.0266   -2.6056   -2.1449 H         1 <0>         0.1337
     38 H6          0.0540   -3.8484   -0.0191 H         1 <0>         0.1261
     39 H7          0.0246   -0.1666    2.1333 H         1 <0>         0.1258
     40 H8         -0.4637   -2.2663    3.2539 H         1 <0>         0.1005
     41 H9         -0.4484   -3.8028    2.3555 H         1 <0>         0.1008
     42 H10         2.1705   -2.7454    2.3551 H         1 <0>         0.4392
     43 H11         0.6411   -4.2220    6.8473 H         1 <0>         0.1143
     44 H12         0.1567   -5.7282    6.0368 H         1 <0>         0.1268
     45 H13         2.4424   -5.7913    7.1744 H         1 <0>         0.1310
     46 H14         2.4442   -6.2409    5.4485 H         1 <0>         0.1050
     47 H15         3.0446   -3.5371    6.4684 H         1 <0>         0.3641
     48 H16         3.9013   -2.4088    3.1637 H         1 <0>         0.0898
     49 H17         3.4896   -1.8644    4.8083 H         1 <0>         0.0963
     50 H18         5.9731   -1.9990    4.4042 H         1 <0>         0.1123
     51 H19         5.4235   -3.0549    5.7309 H         1 <0>         0.0936
     52 H20         5.6542   -6.0506    3.3580 H         1 <0>         0.1057
     53 H21         5.2151   -5.6959    5.0488 H         1 <0>         0.0937
     54 H22         3.1643   -5.9964    3.7398 H         1 <0>         0.0923
     55 H23         3.7141   -4.7940    2.5470 H         1 <0>         0.0897
     56 H24         9.2174   -6.0932    3.1181 H         1 <0>         0.1425
     57 H25        10.1637   -3.1644    6.9626 H         1 <0>         0.1332
     58 H26         7.2374   -2.5221    6.1275 H         1 <0>         0.0868
     59 H27         8.6897   -1.5045    5.9746 H         1 <0>         0.0881
     60 H28         7.7186   -1.8917    4.5340 H         1 <0>         0.1005
     61 H29        12.7747   -4.7919    6.4889 H         1 <0>         0.0830
     62 H30        11.6206   -4.8965    7.8400 H         1 <0>         0.0737
     63 H31        11.9965   -6.3451    6.8764 H         1 <0>         0.0792
     64 H32        12.1496   -6.7259    3.9488 H         1 <0>         0.0768
     65 H33        11.6686   -7.3624    5.5399 H         1 <0>         0.0755
     66 H34        10.6997   -7.7477    4.0974 H         1 <0>         0.0711
     67 H35        -0.1794   -3.9998    4.4283 H         1 <0>         0.4244
@<TRIPOS>BOND
     1    1    2 1
     2    1   33 1
     3    1   34 1
     4    1   35 1
     5    2    7 ar
     6    2    3 ar
     7    3    4 ar
     8    3   36 1
     9    4    5 ar
    10    4   37 1
    11    5    6 ar
    12    5   38 1
    13    6    7 ar
    14    6    8 1
    15    7   39 1
    16    8    9 1
    17    8   40 1
    18    8   41 1
    19    9   10 1
    20    9   42 1
    21   10   15 1
    22   10   11 2
    23   11   12 1
    24   11   67 1
    25   12   13 1
    26   12   43 1
    27   12   44 1
    28   13   14 1
    29   13   45 1
    30   13   46 1
    31   14   15 1
    32   14   47 1
    33   15   20 1
    34   15   16 1
    35   16   17 1
    36   16   48 1
    37   16   49 1
    38   17   18 1
    39   17   50 1
    40   17   51 1
    41   18   19 1
    42   18   21 1
    43   19   20 1
    44   19   52 1
    45   19   53 1
    46   20   54 1
    47   20   55 1
    48   21   22 2
    49   21   23 2
    50   21   24 1
    51   24   29 ar
    52   24   25 ar
    53   25   26 ar
    54   25   56 1
    55   26   27 ar
    56   26   32 1
    57   27   28 ar
    58   27   31 1
    59   28   29 ar
    60   28   57 1
    61   29   30 1
    62   30   58 1
    63   30   59 1
    64   30   60 1
    65   31   61 1
    66   31   62 1
    67   31   63 1
    68   32   64 1
    69   32   65 1
    70   32   66 1
@<TRIPOS>MOLECULE
ZINC20181480
   63    65     0     0     0
SMALL
USER_CHARGES
N-(3-diethylaminopropyl)-2-[(2E)-3-oxo-2-[[4-(trifluoromethyl)phenyl]methylene]-1,4-benzothiazin-4-yl]acetamide
@<TRIPOS>ATOM
      1 C1         -5.1764    0.3160    2.7735 C.3       1 <0>        -0.1932
      2 C2         -4.7617    1.0918    1.5217 C.3       1 <0>        -0.0160
      3 N1         -4.7828    2.5323    1.8089 N.4       1 <0>        -0.3984
      4 C3         -6.1418    2.9839    2.1362 C.3       1 <0>        -0.0151
      5 C4         -6.9997    2.9796    0.8693 C.3       1 <0>        -0.1886
      6 C5         -3.8426    2.8680    2.8865 C.3       1 <0>        -0.0104
      7 C6         -2.4107    2.6125    2.4120 C.3       1 <0>        -0.1602
      8 C7         -1.4314    2.9622    3.5344 C.3       1 <0>         0.1273
      9 N2         -0.0603    2.7175    3.0801 N.am      1 <0>        -0.7450
     10 C8          0.9765    2.9568    3.9072 C.2       1 <0>         0.5067
     11 O1          0.7744    3.3748    5.0277 O.2       1 <0>        -0.5155
     12 C9          2.3869    2.7051    3.4399 C.3       1 <0>         0.0735
     13 N3          3.3245    3.0399    4.5146 N.am      1 <0>        -0.5258
     14 C10         3.8386    4.3301    4.5139 C.ar      1 <0>         0.1680
     15 C11         3.1510    5.3200    3.8129 C.ar      1 <0>        -0.1407
     16 C12         3.6242    6.6154    3.7871 C.ar      1 <0>        -0.0806
     17 C13         4.7875    6.9519    4.4560 C.ar      1 <0>        -0.1208
     18 C14         5.4823    5.9828    5.1551 C.ar      1 <0>        -0.0547
     19 C15         5.0124    4.6798    5.1839 C.ar      1 <0>        -0.1399
     20 S1          5.9037    3.4399    6.0745 S.3       1 <0>         0.0381
     21 C16         4.6128    2.2832    6.4517 C.2       1 <0>        -0.2130
     22 C17         4.5593    1.6302    7.6375 C.2       1 <0>         0.0230
     23 C18         3.3780    0.8245    7.9805 C.ar      1 <0>        -0.0411
     24 C19         2.0986    1.2660    7.6261 C.ar      1 <0>        -0.0636
     25 C20         0.9965    0.5017    7.9458 C.ar      1 <0>        -0.0725
     26 C21         1.1524   -0.6934    8.6266 C.ar      1 <0>        -0.1703
     27 C22         2.4143   -1.1344    8.9858 C.ar      1 <0>        -0.0750
     28 C23         3.5270   -0.3848    8.6680 C.ar      1 <0>        -0.0887
     29 C24        -0.0582   -1.5191    8.9780 C.3       1 <0>         0.5084
     30 F1         -0.5361   -1.1344   10.2353 F         1 <0>        -0.1741
     31 F2         -1.0556   -1.3165    8.0181 F         1 <0>        -0.1814
     32 F3          0.2931   -2.8730    9.0069 F         1 <0>        -0.1742
     33 C25         3.5936    2.0747    5.3980 C.2       1 <0>         0.5716
     34 O2          2.9995    1.0150    5.3335 O.2       1 <0>        -0.4910
     35 H1         -5.1606   -0.7626    2.5584 H         1 <0>         0.1061
     36 H2         -6.1921    0.6157    3.0709 H         1 <0>         0.0809
     37 H3         -4.4746    0.5372    3.5912 H         1 <0>         0.0804
     38 H4         -3.7460    0.7921    1.2243 H         1 <0>         0.1306
     39 H5         -5.4634    0.8706    0.7040 H         1 <0>         0.1324
     40 H6         -6.5841    2.3058    2.8808 H         1 <0>         0.1298
     41 H7         -6.1004    4.0033    2.5475 H         1 <0>         0.1310
     42 H8         -8.0173    3.3178    1.1144 H         1 <0>         0.1071
     43 H9         -7.0412    1.9602    0.4580 H         1 <0>         0.0795
     44 H10        -6.5574    3.6577    0.1247 H         1 <0>         0.0813
     45 H11        -3.9562    3.9287    3.1550 H         1 <0>         0.1352
     46 H12        -4.0545    2.2424    3.7661 H         1 <0>         0.1335
     47 H13        -2.2972    1.5518    2.1436 H         1 <0>         0.0949
     48 H14        -2.1988    3.2380    1.5323 H         1 <0>         0.0961
     49 H15        -1.5449    4.0229    3.8028 H         1 <0>         0.0768
     50 H16        -1.6433    2.3367    4.4141 H         1 <0>         0.0757
     51 H17         0.1230    2.3384    2.0639 H         1 <0>         0.4257
     52 H18         2.5004    1.6444    3.1715 H         1 <0>         0.1284
     53 H19         2.5989    3.3306    2.5603 H         1 <0>         0.1234
     54 H20         2.2417    5.0707    3.2863 H         1 <0>         0.1229
     55 H21         3.0823    7.3730    3.2404 H         1 <0>         0.1333
     56 H22         5.1517    7.9684    4.4318 H         1 <0>         0.1385
     57 H23         6.3911    6.2412    5.6783 H         1 <0>         0.1418
     58 H24         5.3995    1.7027    8.3437 H         1 <0>         0.1623
     59 H25         1.9749    2.2008    7.0995 H         1 <0>         0.1290
     60 H26         0.0086    0.8385    7.6684 H         1 <0>         0.1308
     61 H27         2.5276   -2.0683    9.5162 H         1 <0>         0.1416
     62 H28         4.5109   -0.7305    8.9487 H         1 <0>         0.1425
     63 H29        -4.4598    3.0629    0.9011 H         1 <0>         0.4418
@<TRIPOS>BOND
     1    1    2 1
     2    1   35 1
     3    1   36 1
     4    1   37 1
     5    2    3 1
     6    2   38 1
     7    2   39 1
     8    3    4 1
     9    3    6 1
    10    3   63 1
    11    4    5 1
    12    4   40 1
    13    4   41 1
    14    5   42 1
    15    5   43 1
    16    5   44 1
    17    6    7 1
    18    6   45 1
    19    6   46 1
    20    7    8 1
    21    7   47 1
    22    7   48 1
    23    8    9 1
    24    8   49 1
    25    8   50 1
    26    9   10 am
    27    9   51 1
    28   10   11 2
    29   10   12 1
    30   12   13 1
    31   12   52 1
    32   12   53 1
    33   13   33 am
    34   13   14 1
    35   14   19 ar
    36   14   15 ar
    37   15   16 ar
    38   15   54 1
    39   16   17 ar
    40   16   55 1
    41   17   18 ar
    42   17   56 1
    43   18   19 ar
    44   18   57 1
    45   19   20 1
    46   20   21 1
    47   21   22 2
    48   21   33 1
    49   22   23 1
    50   22   58 1
    51   23   28 ar
    52   23   24 ar
    53   24   25 ar
    54   24   59 1
    55   25   26 ar
    56   25   60 1
    57   26   27 ar
    58   26   29 1
    59   27   28 ar
    60   27   61 1
    61   28   62 1
    62   29   30 1
    63   29   31 1
    64   29   32 1
    65   33   34 2
@<TRIPOS>MOLECULE
ZINC36309460
   72    75     0     0     0
SMALL
USER_CHARGES

@<TRIPOS>ATOM
      1 C1          3.2571   -0.7171    1.3856 C.3       1 <0>        -0.1198
      2 C2          3.0727   -2.1382    1.8517 C.ar      1 <0>        -0.0426
      3 C3          3.5776   -3.1830    1.0995 C.ar      1 <0>        -0.1535
      4 C4          3.4101   -4.4879    1.5244 C.ar      1 <0>        -0.0740
      5 C5          2.7371   -4.7512    2.7020 C.ar      1 <0>        -0.2150
      6 C6          2.2297   -3.7049    3.4583 C.ar      1 <0>         0.1262
      7 C7          2.4045   -2.3958    3.0328 C.ar      1 <0>        -0.1521
      8 O1          1.5674   -3.9613    4.6170 O.3       1 <0>        -0.3064
      9 C8          1.4303   -5.3322    4.9961 C.3       1 <0>         0.0555
     10 C9          0.6629   -5.4218    6.3168 C.3       1 <0>         0.2136
     11 H1          0.6320   -6.4572    6.6561 H         1 <0>         0.1339
     12 C10         1.3446   -4.5519    7.3713 C.2       1 <0>        -0.1286
     13 C11         2.5488   -4.8963    7.9832 C.2       1 <0>        -0.1519
     14 C12         3.0975   -4.0745    8.9069 C.2       1 <0>        -0.1597
     15 S1          1.9121   -2.7392    8.9620 S.3       1 <0>         0.0730
     16 C13         0.7779   -3.3763    7.7565 C.2       1 <0>        -0.1464
     17 C14        -0.5015   -2.7727    7.2759 C.3       1 <0>        -0.0536
     18 C15        -0.9156   -3.4703    5.9710 C.3       1 <0>         0.0990
     19 N1         -0.7047   -4.9176    6.1327 N.am      1 <0>        -0.5799
     20 C16        -1.7499   -5.7682    6.1133 C.2       1 <0>         0.5076
     21 O2         -1.5650   -6.9592    6.2482 O.2       1 <0>        -0.5238
     22 C17        -3.1483   -5.2395    5.9238 C.3       1 <0>        -0.0477
     23 N2         -4.0796   -6.3642    5.7637 N.4       1 <0>        -0.3660
     24 C18        -5.4257   -5.9485    6.1799 C.3       1 <0>        -0.0530
     25 C19        -6.3609   -7.1593    6.1647 C.3       1 <0>         0.0938
     26 H2         -5.9054   -7.9773    6.7228 H         1 <0>         0.1241
     27 C20        -7.6950   -6.7814    6.8113 C.3       1 <0>        -0.1028
     28 C21        -8.5708   -8.0040    6.9076 C.ar      1 <0>        -0.0966
     29 C22        -9.4238   -8.3268    5.8688 C.ar      1 <0>        -0.1005
     30 C23       -10.2271   -9.4483    5.9572 C.ar      1 <0>        -0.1167
     31 C24       -10.1770  -10.2473    7.0841 C.ar      1 <0>        -0.1113
     32 C25        -9.3234   -9.9250    8.1225 C.ar      1 <0>        -0.1166
     33 C26        -8.5170   -8.8059    8.0324 C.ar      1 <0>        -0.1167
     34 O3         -6.5855   -7.5707    4.8147 O.3       1 <0>        -0.5401
     35 C27        -4.1090   -6.7789    4.3547 C.3       1 <0>        -0.0021
     36 C28        -4.5416   -5.5973    3.4843 C.3       1 <0>        -0.1820
     37 C29        -2.7138   -7.2413    3.9300 C.3       1 <0>        -0.1775
     38 H3          4.1898   -0.3210    1.7874 H         1 <0>         0.0770
     39 H4          3.2917   -0.6935    0.2964 H         1 <0>         0.0720
     40 H5          2.4232   -0.1087    1.7358 H         1 <0>         0.0691
     41 H6          4.1033   -2.9793    0.1784 H         1 <0>         0.1264
     42 H7          3.8053   -5.3021    0.9352 H         1 <0>         0.1267
     43 H8          2.6059   -5.7707    3.0331 H         1 <0>         0.1235
     44 H9          2.0145   -1.5793    3.6223 H         1 <0>         0.1284
     45 H10         0.8843   -5.8706    4.2214 H         1 <0>         0.0703
     46 H11         2.4183   -5.7757    5.1193 H         1 <0>         0.0829
     47 H12         3.0435   -5.8195    7.7199 H         1 <0>         0.1338
     48 H13         4.0136   -4.1947    9.4661 H         1 <0>         0.1917
     49 H14        -1.2777   -2.9137    8.0281 H         1 <0>         0.0872
     50 H15        -0.3570   -1.7081    7.0915 H         1 <0>         0.1032
     51 H16        -1.9681   -3.2733    5.7671 H         1 <0>         0.0894
     52 H17        -0.3056   -3.1003    5.1470 H         1 <0>         0.1126
     53 H18        -3.4355   -4.6512    6.7953 H         1 <0>         0.1592
     54 H19        -3.1816   -4.6107    5.0340 H         1 <0>         0.1619
     55 H20        -5.3829   -5.5351    7.1876 H         1 <0>         0.1425
     56 H21        -5.8009   -5.1908    5.4920 H         1 <0>         0.1401
     57 H22        -7.5150   -6.3838    7.8102 H         1 <0>         0.0929
     58 H23        -8.1921   -6.0253    6.2036 H         1 <0>         0.0880
     59 H24        -9.4628   -7.7026    4.9884 H         1 <0>         0.1198
     60 H25       -10.8940   -9.7001    5.1459 H         1 <0>         0.1255
     61 H26       -10.8052  -11.1231    7.1534 H         1 <0>         0.1259
     62 H27        -9.2845  -10.5491    9.0031 H         1 <0>         0.1256
     63 H28        -7.8473   -8.5562    8.8421 H         1 <0>         0.1202
     64 H29        -6.9322   -6.8720    4.2431 H         1 <0>         0.3854
     65 H30        -4.8166   -7.5988    4.2320 H         1 <0>         0.1759
     66 H31        -4.6060   -5.9167    2.4441 H         1 <0>         0.1095
     67 H32        -5.5165   -5.2397    3.8156 H         1 <0>         0.0782
     68 H33        -3.8105   -4.7937    3.5730 H         1 <0>         0.0754
     69 H34        -2.3825   -8.0464    4.5858 H         1 <0>         0.0955
     70 H35        -2.7476   -7.6010    2.9016 H         1 <0>         0.0986
     71 H36        -2.0172   -6.4058    3.9999 H         1 <0>         0.0643
     72 H37        -3.7745   -7.1375    6.3355 H         1 <0>         0.4319
@<TRIPOS>BOND
     1    1    2 1
     2    1   38 1
     3    1   39 1
     4    1   40 1
     5    2    7 ar
     6    2    3 ar
     7    3    4 ar
     8    3   41 1
     9    4    5 ar
    10    4   42 1
    11    5    6 ar
    12    5   43 1
    13    6    7 ar
    14    6    8 1
    15    7   44 1
    16    8    9 1
    17    9   10 1
    18    9   45 1
    19    9   46 1
    20   10   11 1
    21   10   19 1
    22   10   12 1
    23   12   16 2
    24   12   13 1
    25   13   14 2
    26   13   47 1
    27   14   15 1
    28   14   48 1
    29   15   16 1
    30   16   17 1
    31   17   18 1
    32   17   49 1
    33   17   50 1
    34   18   19 1
    35   18   51 1
    36   18   52 1
    37   19   20 am
    38   20   21 2
    39   20   22 1
    40   22   23 1
    41   22   53 1
    42   22   54 1
    43   23   24 1
    44   23   35 1
    45   23   72 1
    46   24   25 1
    47   24   55 1
    48   24   56 1
    49   25   26 1
    50   25   27 1
    51   25   34 1
    52   27   28 1
    53   27   57 1
    54   27   58 1
    55   28   33 ar
    56   28   29 ar
    57   29   30 ar
    58   29   59 1
    59   30   31 ar
    60   30   60 1
    61   31   32 ar
    62   31   61 1
    63   32   33 ar
    64   32   62 1
    65   33   63 1
    66   34   64 1
    67   35   36 1
    68   35   37 1
    69   35   65 1
    70   36   66 1
    71   36   67 1
    72   36   68 1
    73   37   69 1
    74   37   70 1
    75   37   71 1
@<TRIPOS>MOLECULE
ZINC40313518
   62    65     0     0     0
SMALL
USER_CHARGES

@<TRIPOS>ATOM
      1 C1         -5.6694    1.2181    3.8355 C.3       1 <0>        -0.1222
      2 C2         -4.9726    0.0339    3.2163 C.ar      1 <0>        -0.0397
      3 C3         -5.0826   -0.1996    1.8578 C.ar      1 <0>        -0.1487
      4 C4         -4.4446   -1.2850    1.2867 C.ar      1 <0>        -0.0751
      5 C5         -3.6956   -2.1396    2.0727 C.ar      1 <0>        -0.2160
      6 C6         -3.5838   -1.9075    3.4356 C.ar      1 <0>         0.1212
      7 C7         -4.2201   -0.8140    4.0053 C.ar      1 <0>        -0.1465
      8 O1         -2.8476   -2.7466    4.2108 O.3       1 <0>        -0.3023
      9 C8         -2.2157   -3.8482    3.5556 C.3       1 <0>         0.0309
     10 C9         -1.4382   -4.6744    4.5822 C.3       1 <0>         0.0874
     11 H1         -2.1070   -4.9741    5.3890 H         1 <0>         0.1377
     12 C10        -0.8653   -5.9210    3.9051 C.3       1 <0>        -0.0490
     13 N1         -0.3051   -6.8182    4.9245 N.4       1 <0>        -0.3680
     14 C11        -0.0176   -8.1263    4.3209 C.3       1 <0>         0.0689
     15 C12         0.4266   -9.0876    5.3931 C.2       1 <0>        -0.1110
     16 C13        -0.3880   -9.8080    6.1886 C.2       1 <0>        -0.1284
     17 C14         0.4359  -10.5697    7.0415 C.2       1 <0>        -0.1907
     18 C15         1.7211  -10.2688    6.7159 C.2       1 <0>         0.0941
     19 O2          1.7001   -9.3728    5.7105 O.3       1 <0>        -0.1586
     20 C16         2.9311  -10.8313    7.3511 C.ar      1 <0>        -0.0190
     21 C17         3.0525  -10.8416    8.7415 C.ar      1 <0>        -0.0594
     22 C18         4.1853  -11.3690    9.3285 C.ar      1 <0>        -0.0301
     23 C19         5.2000  -11.8868    8.5409 C.ar      1 <0>        -0.0723
     24 C20         5.0860  -11.8797    7.1626 C.ar      1 <0>        -0.0946
     25 C21         3.9557  -11.3603    6.5628 C.ar      1 <0>        -0.0056
     26 Cl1         3.8117  -11.3584    4.8328 Cl        1 <0>        -0.0483
     27 Cl2         4.3383  -11.3828   11.0577 Cl        1 <0>        -0.0400
     28 C22         0.9365   -6.2407    5.4562 C.3       1 <0>        -0.0051
     29 H2          0.8210   -5.1630    5.5721 H         1 <0>         0.1933
     30 C23         2.1004   -6.5380    4.4962 C.3       1 <0>        -0.1557
     31 C24         3.4486   -6.2225    5.1878 C.3       1 <0>        -0.5736
     32 S1          3.0628   -6.4904    6.9659 S.o2      1 <0>         2.3805
     33 O3          3.2161   -5.2614    7.6625 O.2       1 <0>        -0.9048
     34 O4          3.7575   -7.6435    7.4211 O.2       1 <0>        -0.8944
     35 C25         1.2681   -6.8846    6.8327 C.3       1 <0>        -0.6411
     36 O5         -0.3704   -3.8887    5.1156 O.3       1 <0>        -0.5352
     37 H3         -5.0057    2.0824    3.8136 H         1 <0>         0.0786
     38 H4         -6.5757    1.4415    3.2726 H         1 <0>         0.0739
     39 H5         -5.9308    0.9867    4.8681 H         1 <0>         0.0716
     40 H6         -5.6682    0.4668    1.2419 H         1 <0>         0.1291
     41 H7         -4.5321   -1.4653    0.2255 H         1 <0>         0.1288
     42 H8         -3.1980   -2.9878    1.6262 H         1 <0>         0.1230
     43 H9         -4.1306   -0.6284    5.0655 H         1 <0>         0.1328
     44 H10        -2.9736   -4.4741    3.0845 H         1 <0>         0.0838
     45 H11        -1.5297   -3.4741    2.7957 H         1 <0>         0.0790
     46 H12        -1.6579   -6.4368    3.3630 H         1 <0>         0.1544
     47 H13        -0.0801   -5.6276    3.2083 H         1 <0>         0.1444
     48 H14        -0.9169   -8.5097    3.8390 H         1 <0>         0.1658
     49 H15         0.7740   -8.0181    3.5793 H         1 <0>         0.1566
     50 H16        -1.4679   -9.8024    6.1755 H         1 <0>         0.1687
     51 H17         0.1093  -11.2587    7.8063 H         1 <0>         0.1708
     52 H18         2.2622  -10.4375    9.3568 H         1 <0>         0.1486
     53 H19         6.0844  -12.2976    9.0050 H         1 <0>         0.1537
     54 H20         5.8810  -12.2850    6.5541 H         1 <0>         0.1539
     55 H21         2.0763   -7.5904    4.2133 H         1 <0>         0.1123
     56 H22         1.9990   -5.9218    3.6028 H         1 <0>         0.1197
     57 H23         4.2250   -6.9103    4.8528 H         1 <0>         0.1606
     58 H24         3.7427   -5.1885    5.0076 H         1 <0>         0.1551
     59 H25         0.7006   -6.4134    7.6352 H         1 <0>         0.1668
     60 H26         1.1012   -7.9616    6.8145 H         1 <0>         0.1624
     61 H27         0.2207   -3.5210    4.4444 H         1 <0>         0.3939
     62 H28        -0.9708   -6.9328    5.6741 H         1 <0>         0.4332
@<TRIPOS>BOND
     1    1    2 1
     2    1   37 1
     3    1   38 1
     4    1   39 1
     5    2    7 ar
     6    2    3 ar
     7    3    4 ar
     8    3   40 1
     9    4    5 ar
    10    4   41 1
    11    5    6 ar
    12    5   42 1
    13    6    7 ar
    14    6    8 1
    15    7   43 1
    16    8    9 1
    17    9   10 1
    18    9   44 1
    19    9   45 1
    20   10   11 1
    21   10   12 1
    22   10   36 1
    23   12   13 1
    24   12   46 1
    25   12   47 1
    26   13   14 1
    27   13   28 1
    28   13   62 1
    29   14   15 1
    30   14   48 1
    31   14   49 1
    32   15   19 1
    33   15   16 2
    34   16   17 1
    35   16   50 1
    36   17   18 2
    37   17   51 1
    38   18   19 1
    39   18   20 1
    40   20   25 ar
    41   20   21 ar
    42   21   22 ar
    43   21   52 1
    44   22   23 ar
    45   22   27 1
    46   23   24 ar
    47   23   53 1
    48   24   25 ar
    49   24   54 1
    50   25   26 1
    51   28   29 1
    52   28   35 1
    53   28   30 1
    54   30   31 1
    55   30   55 1
    56   30   56 1
    57   31   32 1
    58   31   57 1
    59   31   58 1
    60   32   33 2
    61   32   34 2
    62   32   35 1
    63   35   59 1
    64   35   60 1
    65   36   61 1
@<TRIPOS>MOLECULE
ZINC51514548
   58    62     0     0     0
SMALL
USER_CHARGES

@<TRIPOS>ATOM
      1 C1         -2.6237    0.3946   -0.9091 C.3       1 <0>        -0.1187
      2 C2         -2.3146   -1.0729   -0.7611 C.ar      1 <0>        -0.0442
      3 C3         -2.3113   -1.8939   -1.8739 C.ar      1 <0>        -0.1553
      4 C4         -2.0282   -3.2405   -1.7415 C.ar      1 <0>        -0.0748
      5 C5         -1.7481   -3.7695   -0.4962 C.ar      1 <0>        -0.2162
      6 C6         -1.7507   -2.9481    0.6215 C.ar      1 <0>         0.1295
      7 C7         -2.0292   -1.5957    0.4851 C.ar      1 <0>        -0.1519
      8 O1         -1.4754   -3.4661    1.8474 O.3       1 <0>        -0.3107
      9 C8         -1.1920   -4.8652    1.9119 C.3       1 <0>         0.0591
     10 C9         -0.9087   -5.2619    3.3621 C.3       1 <0>         0.0556
     11 O2         -2.0899   -5.0790    4.1454 O.3       1 <0>        -0.2910
     12 C10        -2.0083   -5.3873    5.4642 C.ar      1 <0>         0.2054
     13 C11        -0.8090   -5.8524    5.9940 C.ar      1 <0>        -0.2279
     14 C12        -0.7207   -6.1645    7.3210 C.ar      1 <0>        -0.0016
     15 C13        -1.8422   -6.0152    8.1496 C.ar      1 <0>        -0.1936
     16 C14        -3.0484   -5.5459    7.6096 C.ar      1 <0>         0.0049
     17 C15        -3.1227   -5.2317    6.2822 C.ar      1 <0>        -0.1575
     18 C16        -1.7543   -6.3485    9.5731 C.2       1 <0>         0.1863
     19 C17        -2.4352   -5.5924   10.5005 C.2       1 <0>        -0.3350
     20 C18        -2.5243   -5.9982   11.9318 C.cat     1 <0>         0.6362
     21 N1         -1.5708   -6.6353   12.5576 N.pl3     1 <0>        -0.6807
     22 N2         -3.7401   -5.6259   12.5449 N.pl3     1 <0>        -0.4130
     23 C19        -4.4367   -4.5732   11.9901 C.2       1 <0>         0.3745
     24 N3         -4.1558   -3.9226   10.8888 N.2       1 <0>        -0.4907
     25 C20        -3.1150   -4.3262   10.1299 C.2       1 <0>         0.5469
     26 O3         -2.7459   -3.6737    9.1669 O.2       1 <0>        -0.3883
     27 S1         -5.7803   -4.3704   13.1294 S.3       1 <0>         0.1968
     28 C21        -5.3906   -5.7467   14.2013 C.2       1 <0>         0.2156
     29 N4         -4.2918   -6.2165   13.6617 N.2       1 <0>        -0.2750
     30 C22        -6.1208   -6.2314   15.3933 C.ar      1 <0>        -0.0480
     31 C23        -7.2882   -5.5901   15.8085 C.ar      1 <0>        -0.0547
     32 C24        -7.9646   -6.0467   16.9207 C.ar      1 <0>        -0.1072
     33 C25        -7.4881   -7.1385   17.6248 C.ar      1 <0>        -0.0526
     34 C26        -6.3317   -7.7794   17.2193 C.ar      1 <0>        -0.1094
     35 C27        -5.6480   -7.3359   16.1040 C.ar      1 <0>         0.0196
     36 Cl1        -4.2003   -8.1456   15.5917 Cl        1 <0>        -0.0378
     37 H1         -1.7000    0.9439   -1.0914 H         1 <0>         0.0758
     38 H2         -3.3043    0.5398   -1.7481 H         1 <0>         0.0716
     39 H3         -3.0903    0.7616    0.0050 H         1 <0>         0.0694
     40 H4         -2.5307   -1.4824   -2.8481 H         1 <0>         0.1261
     41 H5         -2.0263   -3.8796   -2.6121 H         1 <0>         0.1271
     42 H6         -1.5276   -4.8217   -0.3932 H         1 <0>         0.1259
     43 H7         -2.0272   -0.9532    1.3532 H         1 <0>         0.1301
     44 H8         -2.0499   -5.4271    1.5424 H         1 <0>         0.0783
     45 H9         -0.3198   -5.0879    1.2973 H         1 <0>         0.0915
     46 H10        -0.6061   -6.3084    3.4001 H         1 <0>         0.0944
     47 H11        -0.1087   -4.6376    3.7599 H         1 <0>         0.0846
     48 H12         0.0539   -5.9673    5.3548 H         1 <0>         0.1456
     49 H13         0.2108   -6.5258    7.7311 H         1 <0>         0.1418
     50 H14        -3.9155   -5.4292    8.2427 H         1 <0>         0.1277
     51 H15        -4.0497   -4.8657    5.8662 H         1 <0>         0.1476
     52 H16        -1.1553   -7.1874    9.8953 H         1 <0>         0.1586
     53 H17        -0.7538   -6.8674   12.0890 H         1 <0>         0.4554
     54 H18        -7.6614   -4.7376   15.2604 H         1 <0>         0.1460
     55 H19        -8.8682   -5.5505   17.2430 H         1 <0>         0.1533
     56 H20        -8.0215   -7.4915   18.4950 H         1 <0>         0.1526
     57 H21        -5.9650   -8.6310   17.7731 H         1 <0>         0.1534
     58 H22        -1.6798   -6.8763   13.4909 H         1 <0>         0.4484
@<TRIPOS>BOND
     1    1    2 1
     2    1   37 1
     3    1   38 1
     4    1   39 1
     5    2    7 ar
     6    2    3 ar
     7    3    4 ar
     8    3   40 1
     9    4    5 ar
    10    4   41 1
    11    5    6 ar
    12    5   42 1
    13    6    7 ar
    14    6    8 1
    15    7   43 1
    16    8    9 1
    17    9   10 1
    18    9   44 1
    19    9   45 1
    20   10   11 1
    21   10   46 1
    22   10   47 1
    23   11   12 1
    24   12   17 ar
    25   12   13 ar
    26   13   14 ar
    27   13   48 1
    28   14   15 ar
    29   14   49 1
    30   15   16 ar
    31   15   18 1
    32   16   17 ar
    33   16   50 1
    34   17   51 1
    35   18   19 2
    36   18   52 1
    37   19   25 1
    38   19   20 1
    39   20   21 2
    40   20   22 1
    41   21   53 1
    42   21   58 1
    43   22   29 1
    44   22   23 1
    45   23   24 2
    46   23   27 1
    47   24   25 1
    48   25   26 2
    49   27   28 1
    50   28   29 2
    51   28   30 1
    52   30   35 ar
    53   30   31 ar
    54   31   32 ar
    55   31   54 1
    56   32   33 ar
    57   32   55 1
    58   33   34 ar
    59   33   56 1
    60   34   35 ar
    61   34   57 1
    62   35   36 1
@<TRIPOS>MOLECULE
ZINC35397208
   62    65     0     0     0
SMALL
USER_CHARGES

@<TRIPOS>ATOM
      1 C1          0.3551   -1.2112    1.2430 C.3       1 <0>        -0.1485
      2 C2         -0.0284   -0.2956    0.0788 C.3       1 <0>        -0.0874
      3 C3          0.6818   -0.7478   -1.1710 C.ar      1 <0>        -0.0867
      4 C4          1.9306   -0.2391   -1.4774 C.ar      1 <0>        -0.0977
      5 C5          2.5841   -0.6515   -2.6220 C.ar      1 <0>        -0.1144
      6 C6          1.9860   -1.5785   -3.4655 C.ar      1 <0>         0.1295
      7 C7          0.7319   -2.0878   -3.1548 C.ar      1 <0>        -0.1367
      8 C8          0.0858   -1.6749   -2.0061 C.ar      1 <0>        -0.0979
      9 N1          2.6452   -1.9980   -4.6262 N.am      1 <0>        -0.6622
     10 C9          3.9898   -2.0888   -4.6421 C.2       1 <0>         0.5313
     11 O1          4.6226   -1.8974   -3.6252 O.2       1 <0>        -0.4983
     12 C10         4.7071   -2.4282   -5.9233 C.3       1 <0>        -0.1668
     13 S1          6.4951   -2.4750   -5.6211 S.3       1 <0>         0.1090
     14 C11         7.1825   -2.8787   -7.1924 C.2       1 <0>         0.1052
     15 N2          6.5001   -3.0777   -8.2821 N.2       1 <0>        -0.4744
     16 C12         7.4606   -3.3846   -9.3455 C.3       1 <0>         0.1643
     17 C13         7.1915   -4.7792   -9.9115 C.3       1 <0>        -0.1077
     18 C14         8.1679   -5.0555  -11.0576 C.3       1 <0>         0.0000
     19 N3          7.9914   -4.0459  -12.1085 N.4       1 <0>        -0.3837
     20 C15         8.3298   -2.7165  -11.5864 C.3       1 <0>        -0.0048
     21 C16         7.3601   -2.3447  -10.4618 C.3       1 <0>        -0.1067
     22 C17         8.8701   -4.3630  -13.2422 C.3       1 <0>        -0.0099
     23 C18         8.5980   -3.3855  -14.3873 C.3       1 <0>        -0.1892
     24 N4          8.7913   -3.3383   -8.7327 N.2       1 <0>        -0.4682
     25 C19         8.6278   -3.0378   -7.4786 C.2       1 <0>         0.2380
     26 C20         9.7171   -2.8821   -6.4884 C.ar      1 <0>        -0.0600
     27 C21        10.9272   -3.5538   -6.6668 C.ar      1 <0>        -0.0616
     28 C22        11.9385   -3.4049   -5.7408 C.ar      1 <0>        -0.0945
     29 C23        11.7548   -2.5909   -4.6358 C.ar      1 <0>        -0.0626
     30 C24        10.5561   -1.9222   -4.4533 C.ar      1 <0>        -0.0860
     31 C25         9.5399   -2.0585   -5.3758 C.ar      1 <0>        -0.0732
     32 Br1        13.1463   -2.3920   -3.3708 Br        1 <0>        -0.0258
     33 H1          0.0645   -2.2357    1.0105 H         1 <0>         0.0556
     34 H2          1.4326   -1.1662    1.4010 H         1 <0>         0.0562
     35 H3         -0.1586   -0.8841    2.1470 H         1 <0>         0.0606
     36 H4         -1.1060   -0.3406   -0.0791 H         1 <0>         0.0736
     37 H5          0.2622    0.7289    0.3114 H         1 <0>         0.0738
     38 H6          2.3952    0.4818   -0.8210 H         1 <0>         0.1279
     39 H7          3.5591   -0.2532   -2.8611 H         1 <0>         0.1340
     40 H8          0.2640   -2.8086   -3.8089 H         1 <0>         0.1260
     41 H9         -0.8877   -2.0738   -1.7618 H         1 <0>         0.1286
     42 H10         2.1345   -2.2236   -5.4194 H         1 <0>         0.4132
     43 H11         4.3731   -3.4027   -6.2795 H         1 <0>         0.1281
     44 H12         4.4854   -1.6709   -6.6753 H         1 <0>         0.1293
     45 H13         7.3307   -5.5234   -9.1274 H         1 <0>         0.1138
     46 H14         6.1686   -4.8295  -10.2847 H         1 <0>         0.1070
     47 H15         9.1902   -5.0133  -10.6817 H         1 <0>         0.1381
     48 H16         7.9735   -6.0458  -11.4693 H         1 <0>         0.1377
     49 H17         9.3484   -2.7273  -11.1986 H         1 <0>         0.1386
     50 H18         8.2547   -1.9818  -12.3881 H         1 <0>         0.1389
     51 H19         6.3420   -2.3252  -10.8506 H         1 <0>         0.1069
     52 H20         7.6191   -1.3618  -10.0681 H         1 <0>         0.1134
     53 H21         9.9110   -4.2767  -12.9304 H         1 <0>         0.1302
     54 H22         8.6751   -5.3811  -13.5794 H         1 <0>         0.1320
     55 H23         8.7930   -2.3675  -14.0501 H         1 <0>         0.0801
     56 H24         9.2500   -3.6208  -15.2285 H         1 <0>         0.1077
     57 H25         7.5571   -3.4719  -14.6991 H         1 <0>         0.0807
     58 H26        11.0715   -4.1893   -7.5280 H         1 <0>         0.1387
     59 H27        12.8754   -3.9246   -5.8776 H         1 <0>         0.1443
     60 H28        10.4183   -1.2889   -3.5894 H         1 <0>         0.1482
     61 H29         8.6071   -1.5327   -5.2350 H         1 <0>         0.1433
     62 H30         7.0314   -4.0497  -12.4189 H         1 <0>         0.4213
@<TRIPOS>BOND
     1    1    2 1
     2    1   33 1
     3    1   34 1
     4    1   35 1
     5    2    3 1
     6    2   36 1
     7    2   37 1
     8    3    8 ar
     9    3    4 ar
    10    4    5 ar
    11    4   38 1
    12    5    6 ar
    13    5   39 1
    14    6    7 ar
    15    6    9 1
    16    7    8 ar
    17    7   40 1
    18    8   41 1
    19    9   10 am
    20    9   42 1
    21   10   11 2
    22   10   12 1
    23   12   13 1
    24   12   43 1
    25   12   44 1
    26   13   14 1
    27   14   25 1
    28   14   15 2
    29   15   16 1
    30   16   21 1
    31   16   17 1
    32   16   24 1
    33   17   18 1
    34   17   45 1
    35   17   46 1
    36   18   19 1
    37   18   47 1
    38   18   48 1
    39   19   20 1
    40   19   22 1
    41   19   62 1
    42   20   21 1
    43   20   49 1
    44   20   50 1
    45   21   51 1
    46   21   52 1
    47   22   23 1
    48   22   53 1
    49   22   54 1
    50   23   55 1
    51   23   56 1
    52   23   57 1
    53   24   25 2
    54   25   26 1
    55   26   31 ar
    56   26   27 ar
    57   27   28 ar
    58   27   58 1
    59   28   29 ar
    60   28   59 1
    61   29   30 ar
    62   29   32 1
    63   30   31 ar
    64   30   60 1
    65   31   61 1
@<TRIPOS>MOLECULE
ZINC13495940
   76    80     0     0     0
SMALL
USER_CHARGES
3-[[[(1R)-1-(1-cyclopentyltetrazol-5-yl)propyl]-[2-(m-tolyl)ethyl]amino]methyl]-6,8-dimethyl-1H-quinolin-2-one
@<TRIPOS>ATOM
      1 C1          3.2302    2.7466    2.9567 C.3       1 <0>        -0.1707
      2 C2          3.3441    3.2544    1.5179 C.3       1 <0>        -0.1473
      3 C3          1.9934    3.1029    0.8153 C.3       1 <0>         0.1234
      4 H1          1.6571    2.0691    0.8934 H         1 <0>         0.1541
      5 C4          2.1385    3.4756   -0.6377 C.2       1 <0>         0.1213
      6 N1          2.3366    4.6776   -1.1213 N.2       1 <0>        -0.2777
      7 N2          2.4066    4.5837   -2.4044 N.2       1 <0>        -0.0510
      8 N3          2.2584    3.3530   -2.7518 N.2       1 <0>        -0.0486
      9 N4          2.0905    2.6386   -1.6907 N.pl3     1 <0>        -0.2709
     10 C5          1.8869    1.1887   -1.6411 C.3       1 <0>         0.1251
     11 C6          3.0724    0.4653   -2.3127 C.3       1 <0>        -0.1338
     12 C7          2.4195   -0.7362   -3.0418 C.3       1 <0>        -0.1222
     13 C8          1.0917   -0.1371   -3.5683 C.3       1 <0>        -0.1246
     14 C9          0.6279    0.8057   -2.4387 C.3       1 <0>        -0.1352
     15 C10        -0.3466    3.7085    0.9579 C.3       1 <0>        -0.0145
     16 C11        -0.8059    2.3430    1.4731 C.3       1 <0>        -0.1000
     17 C12        -2.2445    2.1176    1.0852 C.ar      1 <0>        -0.0971
     18 C13        -3.2608    2.6192    1.8771 C.ar      1 <0>        -0.1138
     19 C14        -4.5802    2.4159    1.5192 C.ar      1 <0>        -0.1067
     20 C15        -4.8839    1.7035    0.3739 C.ar      1 <0>        -0.1065
     21 C16        -3.8680    1.1980   -0.4152 C.ar      1 <0>        -0.0747
     22 C17        -2.5481    1.4047   -0.0593 C.ar      1 <0>        -0.1120
     23 C18        -4.1990    0.4211   -1.6634 C.3       1 <0>        -0.1220
     24 C19         1.3615    5.3994    1.2508 C.3       1 <0>         0.0587
     25 C20         0.5931    6.2532    2.2263 C.2       1 <0>        -0.2732
     26 C21         1.1561    6.5992    3.4104 C.2       1 <0>         0.0604
     27 C22         0.3832    7.4295    4.3361 C.ar      1 <0>        -0.1456
     28 C23         0.9108    7.8188    5.5717 C.ar      1 <0>        -0.0537
     29 C24         0.1643    8.5942    6.4128 C.ar      1 <0>        -0.0998
     30 C25        -1.1138    8.9994    6.0522 C.ar      1 <0>        -0.0441
     31 C26        -1.6535    8.6281    4.8398 C.ar      1 <0>        -0.1222
     32 C27        -0.9120    7.8383    3.9670 C.ar      1 <0>         0.1924
     33 N5         -1.4269    7.4527    2.7477 N.am      1 <0>        -0.6179
     34 H2         -2.3197    7.7354    2.4948 H         1 <0>         0.4239
     35 C28        -0.7076    6.6945    1.9018 C.2       1 <0>         0.5422
     36 O1         -1.1929    6.3761    0.8300 O.2       1 <0>        -0.5323
     37 C29        -3.0420    9.0752    4.4613 C.3       1 <0>        -0.1225
     38 C30         0.7327    9.0130    7.7441 C.3       1 <0>        -0.1209
     39 H3          2.4235    3.2742    3.4654 H         1 <0>         0.0526
     40 H4          3.0171    1.6777    2.9490 H         1 <0>         0.0787
     41 H5          4.1690    2.9261    3.4807 H         1 <0>         0.0948
     42 H6          4.0974    2.6733    0.9861 H         1 <0>         0.1167
     43 H7          3.6340    4.3051    1.5253 H         1 <0>         0.1033
     44 H8          1.7873    0.8610   -0.6063 H         1 <0>         0.1193
     45 H9          3.5651    1.1235   -3.0283 H         1 <0>         0.0909
     46 H10         3.7817    0.1172   -1.5619 H         1 <0>         0.0870
     47 H11         2.2258   -1.5514   -2.3447 H         1 <0>         0.0789
     48 H12         3.0455   -1.0735   -3.8679 H         1 <0>         0.0860
     49 H13         0.3568   -0.9249   -3.7336 H         1 <0>         0.0826
     50 H14         1.2641    0.4240   -4.4868 H         1 <0>         0.0793
     51 H15        -0.0822    0.2914   -1.7912 H         1 <0>         0.0896
     52 H16         0.1685    1.6986   -2.8627 H         1 <0>         0.0831
     53 H17        -1.0293    4.4797    1.3145 H         1 <0>         0.1528
     54 H18        -0.3421    3.7028   -0.1321 H         1 <0>         0.1247
     55 H19        -0.1848    1.5617    1.0350 H         1 <0>         0.0856
     56 H20        -0.7136    2.3145    2.5588 H         1 <0>         0.0961
     57 H21        -3.0236    3.1725    2.7738 H         1 <0>         0.1200
     58 H22        -5.3740    2.8106    2.1360 H         1 <0>         0.1287
     59 H23        -5.9149    1.5417    0.0960 H         1 <0>         0.1291
     60 H24        -1.7543    1.0094   -0.6757 H         1 <0>         0.1193
     61 H25        -4.2894   -0.6374   -1.4192 H         1 <0>         0.0768
     62 H26        -5.1417    0.7806   -2.0758 H         1 <0>         0.0726
     63 H27        -3.4053    0.5580   -2.3978 H         1 <0>         0.0675
     64 H28         2.4308    5.5334    1.4144 H         1 <0>         0.1440
     65 H29         1.1099    5.6954    0.2323 H         1 <0>         0.1623
     66 H30         2.1524    6.2693    3.6652 H         1 <0>         0.1569
     67 H31         1.9043    7.5080    5.8594 H         1 <0>         0.1419
     68 H32        -1.6908    9.6123    6.7288 H         1 <0>         0.1415
     69 H33        -2.9863   10.0293    3.9371 H         1 <0>         0.0825
     70 H34        -3.4992    8.3295    3.8109 H         1 <0>         0.0640
     71 H35        -3.6448    9.1903    5.3621 H         1 <0>         0.0849
     72 H36         1.2606    9.9601    7.6320 H         1 <0>         0.0786
     73 H37        -0.0772    9.1315    8.4639 H         1 <0>         0.0738
     74 H38         1.4259    8.2505    8.0993 H         1 <0>         0.0726
     75 N6          1.0088    3.9824    1.4799 N.4       1 <0>        -0.3868
     76 H39         1.0217    3.7946    2.4893 H         1 <0>         0.4276
@<TRIPOS>BOND
     1    1    2 1
     2    1   39 1
     3    1   40 1
     4    1   41 1
     5    2    3 1
     6    2   42 1
     7    2   43 1
     8    3    4 1
     9    3    5 1
    10    3   75 1
    11    5    9 1
    12    5    6 2
    13    6    7 1
    14    7    8 2
    15    8    9 1
    16    9   10 1
    17   10   14 1
    18   10   11 1
    19   10   44 1
    20   11   12 1
    21   11   45 1
    22   11   46 1
    23   12   13 1
    24   12   47 1
    25   12   48 1
    26   13   14 1
    27   13   49 1
    28   13   50 1
    29   14   51 1
    30   14   52 1
    31   15   16 1
    32   15   53 1
    33   15   54 1
    34   15   75 1
    35   16   17 1
    36   16   55 1
    37   16   56 1
    38   17   22 ar
    39   17   18 ar
    40   18   19 ar
    41   18   57 1
    42   19   20 ar
    43   19   58 1
    44   20   21 ar
    45   20   59 1
    46   21   22 ar
    47   21   23 1
    48   22   60 1
    49   23   61 1
    50   23   62 1
    51   23   63 1
    52   24   25 1
    53   24   64 1
    54   24   65 1
    55   24   75 1
    56   25   35 1
    57   25   26 2
    58   26   27 1
    59   26   66 1
    60   27   32 ar
    61   27   28 ar
    62   28   29 ar
    63   28   67 1
    64   29   30 ar
    65   29   38 1
    66   30   31 ar
    67   30   68 1
    68   31   32 ar
    69   31   37 1
    70   32   33 1
    71   33   34 1
    72   33   35 am
    73   35   36 2
    74   37   69 1
    75   37   70 1
    76   37   71 1
    77   38   72 1
    78   38   73 1
    79   38   74 1
    80   75   76 1
@<TRIPOS>MOLECULE
ZINC23436844
   77    81     0     0     0
SMALL
USER_CHARGES
N-[2-(1,3-benzodioxol-5-yl)ethyl]-4-[(2R)-2-(3-methoxyphenyl)-2-(p-tolylmethoxy)ethyl]piperazine-1-carboxamide
@<TRIPOS>ATOM
      1 C1         17.3971    2.8202    4.6098 C.3       1 <0>        -0.1270
      2 C2         16.4946    1.6465    4.8907 C.ar      1 <0>        -0.0647
      3 C3         15.1582    1.7032    4.5422 C.ar      1 <0>        -0.1234
      4 C4         14.3304    0.6265    4.7999 C.ar      1 <0>        -0.0975
      5 C5         14.8393   -0.5073    5.4053 C.ar      1 <0>        -0.1117
      6 C6         16.1747   -0.5621    5.7582 C.ar      1 <0>        -0.0876
      7 C7         17.0034    0.5129    5.4966 C.ar      1 <0>        -0.1211
      8 C8         13.9368   -1.6811    5.6862 C.3       1 <0>         0.1049
      9 O1         13.9445   -2.5668    4.5648 O.3       1 <0>        -0.3801
     10 C9         13.1160   -3.7195    4.7290 C.3       1 <0>         0.1140
     11 H1         12.2968   -3.4165    5.3976 H         1 <0>         0.0935
     12 C10        12.5942   -4.1711    3.3635 C.3       1 <0>         0.0063
     13 N1         11.8105   -3.0874    2.7558 N.4       1 <0>        -0.3993
     14 C11        11.4930   -3.3895    1.3537 C.3       1 <0>        -0.0184
     15 C12        10.8370   -2.1650    0.7067 C.3       1 <0>         0.0881
     16 N2          9.6883   -1.7600    1.5312 N.am      1 <0>        -0.6450
     17 C13         9.9011   -1.5654    2.9734 C.3       1 <0>         0.1071
     18 C14        10.5926   -2.8192    3.5322 C.3       1 <0>        -0.0242
     19 C15         8.4742   -1.5670    0.9788 C.2       1 <0>         0.7114
     20 O2          7.5577   -1.1451    1.6574 O.2       1 <0>        -0.5653
     21 N3          8.2760   -1.8417   -0.3257 N.am      1 <0>        -0.7494
     22 C16         6.9322   -1.7386   -0.9000 C.3       1 <0>         0.1386
     23 C17         6.9833   -2.1007   -2.3856 C.3       1 <0>        -0.0836
     24 C18         5.6010   -1.9947   -2.9764 C.ar      1 <0>        -0.0818
     25 C19         5.1730   -0.7976   -3.5197 C.ar      1 <0>        -0.1006
     26 C20         3.9057   -0.6952   -4.0623 C.ar      1 <0>        -0.0968
     27 C21         3.0610   -1.7934   -4.0631 C.ar      1 <0>         0.0365
     28 C22         3.4923   -2.9994   -3.5163 C.ar      1 <0>         0.0359
     29 C23         4.7638   -3.0947   -2.9742 C.ar      1 <0>        -0.0954
     30 O3          2.4888   -3.9168   -3.6372 O.3       1 <0>        -0.3099
     31 C24         1.5927   -3.3783   -4.6272 C.3       1 <0>         0.2085
     32 O4          1.7873   -1.9551   -4.5265 O.3       1 <0>        -0.3024
     33 C25        13.9199   -4.8313    5.3523 C.ar      1 <0>        -0.0978
     34 C26        15.2584   -4.9769    5.0367 C.ar      1 <0>        -0.1261
     35 C27        15.9989   -5.9952    5.6075 C.ar      1 <0>        -0.0762
     36 C28        15.4029   -6.8704    6.4952 C.ar      1 <0>        -0.1900
     37 C29        14.0604   -6.7268    6.8131 C.ar      1 <0>         0.1334
     38 C30        13.3207   -5.7006    6.2428 C.ar      1 <0>        -0.1405
     39 O5         13.4720   -7.5860    7.6863 O.3       1 <0>        -0.3149
     40 C31        14.2959   -8.6142    8.2394 C.3       1 <0>         0.0203
     41 H2         16.8174    3.6214    4.1282 H         1 <0>         0.0693
     42 H3         18.2118    2.5046    3.9415 H         1 <0>         0.0753
     43 H4         17.8208    3.1913    5.5547 H         1 <0>         0.0762
     44 H5         14.7607    2.5888    4.0688 H         1 <0>         0.1262
     45 H6         13.2861    0.6709    4.5278 H         1 <0>         0.1191
     46 H7         16.5713   -1.4462    6.2352 H         1 <0>         0.1238
     47 H8         18.0477    0.4684    5.7686 H         1 <0>         0.1274
     48 H9         14.2968   -2.2153    6.5779 H         1 <0>         0.0724
     49 H10        12.9122   -1.3219    5.8628 H         1 <0>         0.0650
     50 H11        13.4436   -4.4200    2.7104 H         1 <0>         0.1450
     51 H12        11.9565   -5.0584    3.4898 H         1 <0>         0.1433
     52 H13        12.4183   -3.6394    0.8139 H         1 <0>         0.1459
     53 H14        10.8011   -4.2435    1.3102 H         1 <0>         0.1325
     54 H15        11.5672   -1.3442    0.6515 H         1 <0>         0.1002
     55 H16        10.4984   -2.4234   -0.3075 H         1 <0>         0.1221
     56 H17        10.5354   -0.6812    3.1344 H         1 <0>         0.0945
     57 H18         8.9311   -1.4162    3.4703 H         1 <0>         0.1392
     58 H19         9.9123   -3.6802    3.4561 H         1 <0>         0.1343
     59 H20        10.8588   -2.6543    4.5867 H         1 <0>         0.1395
     60 H21         9.1232   -2.1433   -0.9592 H         1 <0>         0.4122
     61 H22         6.2559   -2.4307   -0.3770 H         1 <0>         0.0728
     62 H23         6.5628   -0.7088   -0.7861 H         1 <0>         0.0761
     63 H24         7.6596   -1.4086   -2.9086 H         1 <0>         0.0863
     64 H25         7.3527   -3.1305   -2.4995 H         1 <0>         0.0826
     65 H26         5.8301    0.0596   -3.5198 H         1 <0>         0.1392
     66 H27         3.5740    0.2412   -4.4861 H         1 <0>         0.1395
     67 H28         5.1007   -4.0286   -2.5492 H         1 <0>         0.1345
     68 H29         1.8660   -3.7670   -5.6193 H         1 <0>         0.0892
     69 H30         0.5609   -3.6757   -4.3884 H         1 <0>         0.1374
     70 H31        15.7262   -4.2936    4.3433 H         1 <0>         0.1323
     71 H32        17.0441   -6.1066    5.3597 H         1 <0>         0.1324
     72 H33        15.9819   -7.6653    6.9414 H         1 <0>         0.1349
     73 H34        12.2764   -5.5838    6.4924 H         1 <0>         0.1319
     74 H35        13.6987   -9.2337    8.9247 H         1 <0>         0.1091
     75 H36        15.1310   -8.1578    8.7911 H         1 <0>         0.0610
     76 H37        14.6922   -9.2425    7.4282 H         1 <0>         0.0606
     77 H38        12.4244   -2.1747    2.7705 H         1 <0>         0.4489
@<TRIPOS>BOND
     1    1    2 1
     2    1   41 1
     3    1   42 1
     4    1   43 1
     5    2    7 ar
     6    2    3 ar
     7    3    4 ar
     8    3   44 1
     9    4    5 ar
    10    4   45 1
    11    5    6 ar
    12    5    8 1
    13    6    7 ar
    14    6   46 1
    15    7   47 1
    16    8    9 1
    17    8   48 1
    18    8   49 1
    19    9   10 1
    20   10   11 1
    21   10   12 1
    22   10   33 1
    23   12   13 1
    24   12   50 1
    25   12   51 1
    26   13   18 1
    27   13   14 1
    28   13   77 1
    29   14   15 1
    30   14   52 1
    31   14   53 1
    32   15   16 1
    33   15   54 1
    34   15   55 1
    35   16   17 1
    36   16   19 am
    37   17   18 1
    38   17   56 1
    39   17   57 1
    40   18   58 1
    41   18   59 1
    42   19   20 2
    43   19   21 am
    44   21   22 1
    45   21   60 1
    46   22   23 1
    47   22   61 1
    48   22   62 1
    49   23   24 1
    50   23   63 1
    51   23   64 1
    52   24   29 ar
    53   24   25 ar
    54   25   26 ar
    55   25   65 1
    56   26   27 ar
    57   26   66 1
    58   27   32 1
    59   27   28 ar
    60   28   29 ar
    61   28   30 1
    62   29   67 1
    63   30   31 1
    64   31   32 1
    65   31   68 1
    66   31   69 1
    67   33   38 ar
    68   33   34 ar
    69   34   35 ar
    70   34   70 1
    71   35   36 ar
    72   35   71 1
    73   36   37 ar
    74   36   72 1
    75   37   38 ar
    76   37   39 1
    77   38   73 1
    78   39   40 1
    79   40   74 1
    80   40   75 1
    81   40   76 1
@<TRIPOS>MOLECULE
ZINC40321719
   70    73     0     0     0
SMALL
USER_CHARGES

@<TRIPOS>ATOM
      1 C1         -0.1841    1.5662    1.2971 C.3       1 <0>        -0.1486
      2 C2         -0.1320    0.0399    1.2046 C.3       1 <0>        -0.0662
      3 C3          0.3576   -0.5353    2.5352 C.3       1 <0>        -0.1478
      4 C4         -1.5093   -0.4924    0.9037 C.ar      1 <0>        -0.0391
      5 C5         -2.5529   -0.2414    1.7748 C.ar      1 <0>        -0.0994
      6 C6         -3.8163   -0.7297    1.4987 C.ar      1 <0>        -0.0784
      7 C7         -4.0363   -1.4686    0.3513 C.ar      1 <0>        -0.1502
      8 C8         -2.9929   -1.7189   -0.5202 C.ar      1 <0>        -0.1219
      9 C9         -1.7304   -1.2270   -0.2463 C.ar      1 <0>        -0.0992
     10 C10        -5.4135   -2.0017    0.0509 C.3       1 <0>         0.0632
     11 H1         -6.0016   -2.0264    0.9682 H         1 <0>         0.1653
     12 C11        -6.1002   -1.0935   -0.9710 C.3       1 <0>         0.1002
     13 N1         -5.3864   -1.1679   -2.2481 N.am      1 <0>        -0.7390
     14 C12        -5.7488   -0.3678   -3.2704 C.2       1 <0>         0.6157
     15 O1         -6.6690    0.4165   -3.1325 O.2       1 <0>        -0.4795
     16 C13        -5.0341   -0.4424   -4.5489 C.2       1 <0>        -0.0465
     17 C14        -5.2935    0.3105   -5.6581 C.2       1 <0>        -0.1184
     18 C15        -4.3745   -0.0892   -6.6410 C.2       1 <0>        -0.0893
     19 C16        -3.6043   -1.0562   -6.0955 C.2       1 <0>        -0.5291
     20 O2         -4.0015   -1.2627   -4.8332 O.3       1 <0>        -0.1162
     21 S1         -2.2902   -1.9023   -6.9091 S.o2      1 <0>         2.6072
     22 O3         -2.1346   -3.1476   -6.2425 O.2       1 <0>        -0.9155
     23 O4         -2.5504   -1.8117   -8.3031 O.2       1 <0>        -0.8995
     24 C17        -0.8161   -0.9841   -6.6112 C.ar      1 <0>        -0.6626
     25 C18        -0.4406    0.0219   -7.4817 C.ar      1 <0>        -0.0186
     26 C19         0.7158    0.7422   -7.2481 C.ar      1 <0>        -0.1340
     27 C20         1.4966    0.4568   -6.1436 C.ar      1 <0>        -0.0530
     28 C21         1.1207   -0.5486   -5.2726 C.ar      1 <0>        -0.1381
     29 C22        -0.0380   -1.2661   -5.5039 C.ar      1 <0>        -0.0205
     30 N2         -5.3038   -3.3603   -0.4972 N.4       1 <0>        -0.3658
     31 C23        -6.6606   -3.8674   -0.7803 C.3       1 <0>        -0.0150
     32 C24        -6.5568   -4.9265   -1.8489 C.3       1 <0>        -0.1497
     33 C25        -6.5019   -6.3395   -1.2384 C.3       1 <0>        -0.1298
     34 C26        -5.6139   -6.3843    0.0215 C.3       1 <0>        -0.1385
     35 C27        -4.3517   -5.5755   -0.1364 C.3       1 <0>        -0.1342
     36 C28        -4.5944   -4.1521    0.4075 C.3       1 <0>        -0.0416
     37 H2          0.8122    1.9512    1.5148 H         1 <0>         0.0675
     38 H3         -0.5328    1.9759    0.3492 H         1 <0>         0.0573
     39 H4         -0.8686    1.8588    2.0932 H         1 <0>         0.0594
     40 H5          0.5526   -0.2528    0.4085 H         1 <0>         0.0845
     41 H6         -0.3270   -0.2427    3.3313 H         1 <0>         0.0592
     42 H7          0.3947   -1.6226    2.4693 H         1 <0>         0.0575
     43 H8          1.3538   -0.1503    2.7529 H         1 <0>         0.0674
     44 H9         -2.3811    0.3359    2.6712 H         1 <0>         0.1377
     45 H10        -4.6315   -0.5341    2.1796 H         1 <0>         0.1368
     46 H11        -3.1647   -2.2965   -1.4165 H         1 <0>         0.1113
     47 H12        -0.9161   -1.4193   -0.9291 H         1 <0>         0.1362
     48 H13        -7.1310   -1.4188   -1.1114 H         1 <0>         0.1062
     49 H14        -6.0899   -0.0656   -0.6084 H         1 <0>         0.1251
     50 H15        -4.6529   -1.7931   -2.3580 H         1 <0>         0.3967
     51 H16        -6.0576    1.0669   -5.7596 H         1 <0>         0.1794
     52 H17        -4.2977    0.3023   -7.6446 H         1 <0>         0.1843
     53 H18        -1.0506    0.2449   -8.3446 H         1 <0>         0.1464
     54 H19         1.0095    1.5278   -7.9286 H         1 <0>         0.1405
     55 H20         2.4005    1.0192   -5.9614 H         1 <0>         0.1373
     56 H21         1.7309   -0.7718   -4.4099 H         1 <0>         0.1371
     57 H22        -0.3337   -2.0491   -4.8214 H         1 <0>         0.1414
     58 H23        -7.0876   -4.2993    0.1248 H         1 <0>         0.1408
     59 H24        -7.2919   -3.0513   -1.1319 H         1 <0>         0.1375
     60 H25        -7.4235   -4.8558   -2.5061 H         1 <0>         0.1106
     61 H26        -5.6528   -4.7556   -2.4335 H         1 <0>         0.0803
     62 H27        -7.5119   -6.6509   -0.9724 H         1 <0>         0.0817
     63 H28        -6.1020   -7.0314   -1.9797 H         1 <0>         0.0834
     64 H29        -6.1803   -5.9934    0.8667 H         1 <0>         0.0698
     65 H30        -5.3457   -7.4205    0.2276 H         1 <0>         0.0876
     66 H31        -3.5441   -6.0470    0.4236 H         1 <0>         0.1110
     67 H32        -4.0827   -5.5218   -1.1913 H         1 <0>         0.0867
     68 H33        -3.6324   -3.6819    0.6117 H         1 <0>         0.1361
     69 H34        -5.1586   -4.2196    1.3377 H         1 <0>         0.1316
     70 H35        -4.7885   -3.3183   -1.3637 H         1 <0>         0.4071
@<TRIPOS>BOND
     1    1    2 1
     2    1   37 1
     3    1   38 1
     4    1   39 1
     5    2    3 1
     6    2    4 1
     7    2   40 1
     8    3   41 1
     9    3   42 1
    10    3   43 1
    11    4    9 ar
    12    4    5 ar
    13    5    6 ar
    14    5   44 1
    15    6    7 ar
    16    6   45 1
    17    7    8 ar
    18    7   10 1
    19    8    9 ar
    20    8   46 1
    21    9   47 1
    22   10   11 1
    23   10   12 1
    24   10   30 1
    25   12   13 1
    26   12   48 1
    27   12   49 1
    28   13   14 am
    29   13   50 1
    30   14   15 2
    31   14   16 1
    32   16   20 1
    33   16   17 2
    34   17   18 1
    35   17   51 1
    36   18   19 2
    37   18   52 1
    38   19   20 1
    39   19   21 1
    40   21   22 2
    41   21   23 2
    42   21   24 1
    43   24   29 ar
    44   24   25 ar
    45   25   26 ar
    46   25   53 1
    47   26   27 ar
    48   26   54 1
    49   27   28 ar
    50   27   55 1
    51   28   29 ar
    52   28   56 1
    53   29   57 1
    54   30   36 1
    55   30   31 1
    56   30   70 1
    57   31   32 1
    58   31   58 1
    59   31   59 1
    60   32   33 1
    61   32   60 1
    62   32   61 1
    63   33   34 1
    64   33   62 1
    65   33   63 1
    66   34   35 1
    67   34   64 1
    68   34   65 1
    69   35   36 1
    70   35   66 1
    71   35   67 1
    72   36   68 1
    73   36   69 1
@<TRIPOS>MOLECULE
ZINC39946182
   65    69     0     0     0
SMALL
USER_CHARGES

@<TRIPOS>ATOM
      1 C1         -0.1189   -3.3786    0.0154 C.3       1 <0>        -0.1586
      2 C2          0.0802   -4.7046    0.7523 C.3       1 <0>        -0.0830
      3 H1          0.6454   -5.3899    0.1207 H         1 <0>         0.0774
      4 C3         -1.2836   -5.3174    1.0768 C.3       1 <0>        -0.1184
      5 C4         -2.0771   -4.3554    1.9634 C.3       1 <0>        -0.1206
      6 C5         -1.3076   -4.1066    3.2622 C.3       1 <0>        -0.1269
      7 C6          0.0562   -3.4938    2.9376 C.3       1 <0>         0.1488
      8 H2         -0.0856   -2.5491    2.4127 H         1 <0>         0.0962
      9 C7          0.8496   -4.4558    2.0511 C.3       1 <0>        -0.0917
     10 H3          0.9914   -5.4005    2.5760 H         1 <0>         0.0742
     11 C8          2.2135   -3.8430    1.7265 C.3       1 <0>        -0.1509
     12 N1          0.7930   -3.2556    4.1813 N.am      1 <0>        -0.7184
     13 C9          0.5919   -2.1186    4.8764 C.2       1 <0>         0.5274
     14 O1         -0.1989   -1.2926    4.4724 O.2       1 <0>        -0.5070
     15 C10         1.3498   -1.8735    6.1557 C.3       1 <0>        -0.1260
     16 S1          0.8627   -0.2697    6.8494 S.3       1 <0>        -0.1493
     17 C11         1.8509   -0.1283    8.3640 C.3       1 <0>         0.3702
     18 H4          1.6458    0.8177    8.8650 H         1 <0>         0.1390
     19 N2          3.2855   -0.2475    8.0559 N.pl3     1 <0>        -0.5832
     20 N3          3.7490   -1.3723    8.7482 N.2       1 <0>        -0.1652
     21 C12         2.7879   -1.9410    9.4273 C.2       1 <0>         0.2608
     22 N4          1.5756   -1.2588    9.2658 N.pl3     1 <0>        -0.5936
     23 C13         0.3462   -1.5855    9.8448 C.ar      1 <0>         0.1361
     24 C14        -0.0266   -1.0147   11.0552 C.ar      1 <0>        -0.0966
     25 C15        -1.2419   -1.3394   11.6250 C.ar      1 <0>        -0.0983
     26 C16        -2.0880   -2.2328   10.9916 C.ar      1 <0>        -0.0173
     27 C17        -1.7190   -2.8033    9.7860 C.ar      1 <0>        -0.0978
     28 C18        -0.5078   -2.4773    9.2082 C.ar      1 <0>        -0.0936
     29 Cl1        -3.6147   -2.6390   11.7111 Cl        1 <0>        -0.0403
     30 C19         2.9501   -3.0885   10.2190 C.2       1 <0>         0.1324
     31 C20         4.1424   -3.7537   10.5056 C.ar      1 <0>        -0.1397
     32 C21         5.4810   -3.5169   10.1266 C.ar      1 <0>        -0.0125
     33 C22         6.4621   -4.3474   10.5648 C.ar      1 <0>        -0.1476
     34 C23         6.1817   -5.4403   11.3876 C.ar      1 <0>         0.0471
     35 C24         4.9192   -5.7272   11.7904 C.ar      1 <0>        -0.2042
     36 C25         3.8415   -4.9041   11.3732 C.ar      1 <0>         0.3148
     37 N5          2.5481   -4.9680   11.6224 N.pl3     1 <0>        -0.5958
     38 C26         1.8695   -3.8587   10.9453 C.3       1 <0>         0.0798
     39 H5          0.8528   -2.9420   -0.2158 H         1 <0>         0.0585
     40 H6         -0.6670   -3.5558   -0.9099 H         1 <0>         0.0589
     41 H7         -0.6841   -2.6932    0.6470 H         1 <0>         0.0605
     42 H8         -1.8318   -5.4946    0.1515 H         1 <0>         0.0685
     43 H9         -1.1418   -6.2621    1.6018 H         1 <0>         0.0627
     44 H10        -2.2189   -3.4107    1.4384 H         1 <0>         0.0697
     45 H11        -3.0487   -4.7920    2.1946 H         1 <0>         0.0671
     46 H12        -1.8728   -3.4212    3.8938 H         1 <0>         0.0664
     47 H13        -1.1658   -5.0513    3.7871 H         1 <0>         0.0619
     48 H14         2.0717   -2.8983    1.2016 H         1 <0>         0.0620
     49 H15         2.7616   -3.6657    2.6518 H         1 <0>         0.0501
     50 H16         2.7787   -4.5283    1.0949 H         1 <0>         0.0607
     51 H17         1.4255   -3.9162    4.5044 H         1 <0>         0.3978
     52 H18         1.1205   -2.6634    6.8709 H         1 <0>         0.1012
     53 H19         2.4200   -1.8700    5.9490 H         1 <0>         0.1101
     54 H20         3.8070    0.3381    7.4849 H         1 <0>         0.4696
     55 H21         0.6336   -0.3179   11.5503 H         1 <0>         0.1423
     56 H22        -1.5323   -0.8959   12.5660 H         1 <0>         0.1489
     57 H23        -2.3810   -3.5008    9.2942 H         1 <0>         0.1480
     58 H24        -0.2227   -2.9189    8.2648 H         1 <0>         0.1348
     59 H25         5.7241   -2.6788    9.4904 H         1 <0>         0.1608
     60 H26         7.4836   -4.1582   10.2695 H         1 <0>         0.1562
     61 H27         6.9931   -6.0750   11.7119 H         1 <0>         0.1611
     62 H28         4.7345   -6.5801   12.4267 H         1 <0>         0.1611
     63 H29         1.3767   -3.2162   11.6751 H         1 <0>         0.1700
     64 H30         1.1411   -4.2458   10.2328 H         1 <0>         0.1684
     65 H31         2.1144   -5.6409   12.1701 H         1 <0>         0.4552
@<TRIPOS>BOND
     1    1    2 1
     2    1   39 1
     3    1   40 1
     4    1   41 1
     5    2    3 1
     6    2    9 1
     7    2    4 1
     8    4    5 1
     9    4   42 1
    10    4   43 1
    11    5    6 1
    12    5   44 1
    13    5   45 1
    14    6    7 1
    15    6   46 1
    16    6   47 1
    17    7    8 1
    18    7    9 1
    19    7   12 1
    20    9   10 1
    21    9   11 1
    22   11   48 1
    23   11   49 1
    24   11   50 1
    25   12   13 am
    26   12   51 1
    27   13   14 2
    28   13   15 1
    29   15   16 1
    30   15   52 1
    31   15   53 1
    32   16   17 1
    33   17   18 1
    34   17   22 1
    35   17   19 1
    36   19   20 1
    37   19   54 1
    38   20   21 2
    39   21   22 1
    40   21   30 1
    41   22   23 1
    42   23   28 ar
    43   23   24 ar
    44   24   25 ar
    45   24   55 1
    46   25   26 ar
    47   25   56 1
    48   26   27 ar
    49   26   29 1
    50   27   28 ar
    51   27   57 1
    52   28   58 1
    53   30   38 1
    54   30   31 2
    55   31   36 ar
    56   31   32 ar
    57   32   33 ar
    58   32   59 1
    59   33   34 ar
    60   33   60 1
    61   34   35 ar
    62   34   61 1
    63   35   36 ar
    64   35   62 1
    65   36   37 2
    66   37   38 1
    67   37   65 1
    68   38   63 1
    69   38   64 1
@<TRIPOS>MOLECULE
ZINC64623246
   66    70     0     0     0
SMALL
USER_CHARGES

@<TRIPOS>ATOM
      1 C1          4.1236    0.6806   -1.7904 C.3       1 <0>        -0.1531
      2 C2          4.2912   -0.8381   -1.7107 C.3       1 <0>         0.0608
      3 O1          4.4366   -1.2302   -0.3443 O.3       1 <0>        -0.3493
      4 C3          4.5951   -2.5457   -0.0989 C.2       1 <0>         0.5070
      5 O2          4.6095   -3.3381   -1.0199 O.2       1 <0>        -0.5012
      6 C4          4.7512   -3.0235    1.2873 C.ar      1 <0>        -0.1342
      7 C5          4.7290   -2.1137    2.3487 C.ar      1 <0>        -0.0399
      8 C6          4.8745   -2.5634    3.6414 C.ar      1 <0>        -0.1548
      9 C7          5.0434   -3.9216    3.8925 C.ar      1 <0>         0.1877
     10 C8          5.0664   -4.8299    2.8385 C.ar      1 <0>        -0.1245
     11 C9          4.9158   -4.3880    1.5437 C.ar      1 <0>        -0.0338
     12 N1          5.1904   -4.3734    5.2031 N.am      1 <0>        -0.6811
     13 C10         4.6224   -5.5350    5.5832 C.2       1 <0>         0.7033
     14 O3          4.0420   -6.2237    4.7665 O.2       1 <0>        -0.5182
     15 N2          4.6978   -5.9332    6.8686 N.am      1 <0>        -0.6262
     16 C11         5.2919   -5.0422    7.8703 C.3       1 <0>         0.1040
     17 C12         4.2680   -4.7724    8.9881 C.3       1 <0>        -0.0976
     18 C13         3.6596   -6.1052    9.3483 C.2       1 <0>         0.0385
     19 C14         3.5131   -6.7159   10.5170 C.ar      1 <0>        -0.1179
     20 C15         3.7866   -6.2795   11.8950 C.ar      1 <0>        -0.0848
     21 C16         3.5354   -7.1822   12.8828 C.ar      1 <0>         0.0993
     22 C17         3.0415   -8.4752   12.6562 C.ar      1 <0>        -0.0285
     23 C18         2.7479   -8.9766   11.4293 C.ar      1 <0>        -0.1529
     24 C19         2.9697   -8.0891   10.2794 C.ar      1 <0>         0.3213
     25 N3          2.7611   -8.2833    9.0124 N.pl3     1 <0>        -0.5506
     26 C20         3.0834   -7.0475    8.2976 C.3       1 <0>         0.0723
     27 H1          2.1866   -6.6198    7.8493 H         1 <0>         0.1802
     28 C21         4.1777   -7.2550    7.2528 C.3       1 <0>         0.2266
     29 H2          4.9801   -7.8583    7.6775 H         1 <0>         0.1080
     30 C22         3.6016   -7.9477    6.0448 C.ar      1 <0>        -0.1028
     31 C23         2.3898   -7.5345    5.5236 C.ar      1 <0>        -0.0527
     32 C24         1.8612   -8.1699    4.4155 C.ar      1 <0>        -0.1160
     33 C25         2.5448   -9.2182    3.8284 C.ar      1 <0>        -0.0583
     34 C26         3.7570   -9.6308    4.3491 C.ar      1 <0>        -0.1188
     35 C27         4.2876   -8.9926    5.4546 C.ar      1 <0>        -0.0962
     36 C28         1.9681   -9.9115    2.6210 C.3       1 <0>        -0.1242
     37 O4          3.7784   -6.8077   14.1665 O.3       1 <0>        -0.3034
     38 C29         3.5072   -7.7717   15.1860 C.3       1 <0>         0.0135
     39 H3          5.0018    1.1659   -1.3646 H         1 <0>         0.0677
     40 H4          4.0127    0.9798   -2.8327 H         1 <0>         0.0828
     41 H5          3.2369    0.9782   -1.2307 H         1 <0>         0.0672
     42 H6          3.4129   -1.3233   -2.1365 H         1 <0>         0.0699
     43 H7          5.1779   -1.1356   -2.2704 H         1 <0>         0.0704
     44 H8          4.5983   -1.0594    2.1545 H         1 <0>         0.1458
     45 H9          4.8579   -1.8612    4.4618 H         1 <0>         0.1354
     46 H10         5.1980   -5.8833    3.0371 H         1 <0>         0.1461
     47 H11         4.9292   -5.0940    0.7265 H         1 <0>         0.1424
     48 H12         5.7016   -3.8518    5.8415 H         1 <0>         0.4071
     49 H13         6.1784   -5.5130    8.2954 H         1 <0>         0.0960
     50 H14         5.5715   -4.1001    7.3986 H         1 <0>         0.1089
     51 H15         4.7680   -4.3437    9.8566 H         1 <0>         0.1271
     52 H16         3.4941   -4.0939    8.6293 H         1 <0>         0.1251
     53 H17         4.1680   -5.2927   12.1121 H         1 <0>         0.1733
     54 H18         2.8849   -9.1135   13.5133 H         1 <0>         0.1662
     55 H19         2.3688   -9.9801   11.3043 H         1 <0>         0.1788
     56 H20         1.8557   -6.7154    5.9823 H         1 <0>         0.1063
     57 H21         0.9142   -7.8475    4.0087 H         1 <0>         0.1213
     58 H22         4.2909  -10.4501    3.8905 H         1 <0>         0.1239
     59 H23         5.2365   -9.3126    5.8591 H         1 <0>         0.1171
     60 H24         2.3182   -9.4157    1.7156 H         1 <0>         0.0766
     61 H25         2.2893  -10.9531    2.6122 H         1 <0>         0.0692
     62 H26         0.8798   -9.8672    2.6618 H         1 <0>         0.0687
     63 H27         4.1182   -8.6587   15.0190 H         1 <0>         0.0648
     64 H28         3.7439   -7.3457   16.1610 H         1 <0>         0.1173
     65 H29         2.4527   -8.0458   15.1555 H         1 <0>         0.0646
     66 H30         2.4459   -9.1070    8.6086 H         1 <0>         0.4586
@<TRIPOS>BOND
     1    1    2 1
     2    1   39 1
     3    1   40 1
     4    1   41 1
     5    2    3 1
     6    2   42 1
     7    2   43 1
     8    3    4 1
     9    4    5 2
    10    4    6 1
    11    6   11 ar
    12    6    7 ar
    13    7    8 ar
    14    7   44 1
    15    8    9 ar
    16    8   45 1
    17    9   10 ar
    18    9   12 1
    19   10   11 ar
    20   10   46 1
    21   11   47 1
    22   12   13 am
    23   12   48 1
    24   13   14 2
    25   13   15 am
    26   15   28 1
    27   15   16 1
    28   16   17 1
    29   16   49 1
    30   16   50 1
    31   17   18 1
    32   17   51 1
    33   17   52 1
    34   18   26 1
    35   18   19 2
    36   19   24 ar
    37   19   20 ar
    38   20   21 ar
    39   20   53 1
    40   21   22 ar
    41   21   37 1
    42   22   23 ar
    43   22   54 1
    44   23   24 ar
    45   23   55 1
    46   24   25 2
    47   25   26 1
    48   25   66 1
    49   26   27 1
    50   26   28 1
    51   28   29 1
    52   28   30 1
    53   30   35 ar
    54   30   31 ar
    55   31   32 ar
    56   31   56 1
    57   32   33 ar
    58   32   57 1
    59   33   34 ar
    60   33   36 1
    61   34   35 ar
    62   34   58 1
    63   35   59 1
    64   36   60 1
    65   36   61 1
    66   36   62 1
    67   37   38 1
    68   38   63 1
    69   38   64 1
    70   38   65 1
@<TRIPOS>MOLECULE
ZINC38970885
   45    48     0     0     0
SMALL
USER_CHARGES

@<TRIPOS>ATOM
      1 C1          0.0123    1.4921    0.0293 C.3       1 <0>        -0.1410
      2 C2         -0.0369   -0.0140    0.0125 C.ar      1 <0>         0.0010
      3 C3          0.0182   -0.6928   -1.1891 C.ar      1 <0>        -0.1384
      4 C4         -0.0273   -2.0807   -1.2038 C.ar      1 <0>         0.1637
      5 C5         -0.1281   -2.7824   -0.0090 C.ar      1 <0>        -0.1853
      6 C6         -0.1829   -2.0983    1.1893 C.ar      1 <0>        -0.0359
      7 C7         -0.1317   -0.7155    1.2011 C.ar      1 <0>        -0.1109
      8 Br1        -0.1991    0.2173    2.8446 Br        1 <0>        -0.0096
      9 N1          0.0278   -2.7701   -2.4178 N.pl3     1 <0>        -0.6985
     10 C8          0.1582   -4.2293   -2.4264 C.3       1 <0>         0.3229
     11 H1          0.4168   -4.5423   -1.4148 H         1 <0>         0.2288
     12 C9          1.3177   -4.5837   -3.3297 C.2       1 <0>         0.4474
     13 N2          2.5062   -4.1118   -3.0936 N.2       1 <0>        -0.8132
     14 S1          3.7675   -4.5079   -4.0909 S.o2      1 <0>         2.6279
     15 O1          3.9895   -5.9023   -3.9307 O.2       1 <0>        -0.9146
     16 O2          3.4859   -3.9215   -5.3543 O.2       1 <0>        -0.9149
     17 C10         5.2005   -3.6947   -3.4665 C.2       1 <0>        -0.7829
     18 C11         6.1107   -4.1403   -2.5663 C.2       1 <0>         0.0370
     19 C12         7.1688   -3.3207   -2.2211 C.2       1 <0>        -0.2022
     20 C13         7.2650   -2.0955   -2.7929 C.2       1 <0>        -0.0817
     21 S2          5.8348   -2.0733   -3.8612 S.3       1 <0>         0.2017
     22 N3          1.1022   -5.3932   -4.3790 N.pl3     1 <0>        -0.5386
     23 C14        -0.0916   -5.8836   -4.6390 C.ar      1 <0>         0.3779
     24 C15        -0.2829   -6.7354   -5.7564 C.ar      1 <0>        -0.2037
     25 C16        -1.5057   -7.2411   -6.0283 C.ar      1 <0>         0.1442
     26 C17        -2.6354   -6.9621   -5.2412 C.ar      1 <0>        -0.0167
     27 C18        -2.5642   -6.1623   -4.1545 C.ar      1 <0>        -0.1139
     28 C19        -1.2678   -5.5719   -3.7901 C.ar      1 <0>         0.3430
     29 N4         -1.1608   -4.7961   -2.7484 N.pl3     1 <0>        -0.4311
     30 H2          1.0495    1.8210    0.0948 H         1 <0>         0.0929
     31 H3         -0.4349    1.8805   -0.8857 H         1 <0>         0.0820
     32 H4         -0.5420    1.8643    0.8909 H         1 <0>         0.0898
     33 H5          0.0962   -0.1447   -2.1165 H         1 <0>         0.1436
     34 H6         -0.1641   -3.8617   -0.0174 H         1 <0>         0.1251
     35 H7         -0.2616   -2.6432    2.1184 H         1 <0>         0.1497
     36 H8         -0.0203   -2.2826   -3.2550 H         1 <0>         0.4284
     37 H9          6.0105   -5.1210   -2.1252 H         1 <0>         0.1539
     38 H10         7.9077   -3.6513   -1.5061 H         1 <0>         0.1626
     39 H11         8.0146   -1.3324   -2.6440 H         1 <0>         0.2127
     40 H12         0.5536   -6.9809   -6.3939 H         1 <0>         0.2152
     41 H13        -1.6196   -7.8866   -6.8866 H         1 <0>         0.2140
     42 H14        -3.5857   -7.3979   -5.5121 H         1 <0>         0.2133
     43 H15        -3.4451   -5.9600   -3.5633 H         1 <0>         0.2199
     44 H16        -1.9341   -4.5970   -2.1977 H         1 <0>         0.4807
     45 H17         1.8444   -5.6221   -4.9600 H         1 <0>         0.4538
@<TRIPOS>BOND
     1    1    2 1
     2    1   30 1
     3    1   31 1
     4    1   32 1
     5    2    7 ar
     6    2    3 ar
     7    3    4 ar
     8    3   33 1
     9    4    5 ar
    10    4    9 1
    11    5    6 ar
    12    5   34 1
    13    6    7 ar
    14    6   35 1
    15    7    8 1
    16    9   10 1
    17    9   36 1
    18   10   11 1
    19   10   29 1
    20   10   12 1
    21   12   13 2
    22   12   22 1
    23   13   14 1
    24   14   15 2
    25   14   16 2
    26   14   17 1
    27   17   21 1
    28   17   18 2
    29   18   19 1
    30   18   37 1
    31   19   20 2
    32   19   38 1
    33   20   21 1
    34   20   39 1
    35   22   23 2
    36   22   45 1
    37   23   28 ar
    38   23   24 ar
    39   24   25 ar
    40   24   40 1
    41   25   26 ar
    42   25   41 1
    43   26   27 ar
    44   26   42 1
    45   27   28 ar
    46   27   43 1
    47   28   29 2
    48   29   44 1
@<TRIPOS>MOLECULE
ZINC38979491
   60    63     0     0     0
SMALL
USER_CHARGES

@<TRIPOS>ATOM
      1 C1         -3.1363    1.3871   -0.5273 C.3       1 <0>        -0.1581
      2 C2         -3.0768   -0.1182   -0.2605 C.3       1 <0>        -0.1144
      3 C3         -1.6192   -0.5471   -0.0810 C.3       1 <0>        -0.0549
      4 H1         -1.0394   -0.2366   -0.9502 H         1 <0>         0.0814
      5 C4         -1.0454    0.1097    1.1761 C.3       1 <0>        -0.1480
      6 C5         -1.5502   -2.0460    0.0594 C.ar      1 <0>        -0.0941
      7 C6         -2.2189   -2.6734    1.0946 C.ar      1 <0>        -0.0667
      8 C7         -2.1578   -4.0468    1.2262 C.ar      1 <0>        -0.1849
      9 C8         -1.4237   -4.7981    0.3172 C.ar      1 <0>         0.1697
     10 C9         -0.7532   -4.1646   -0.7215 C.ar      1 <0>        -0.1525
     11 C10        -0.8231   -2.7914   -0.8505 C.ar      1 <0>        -0.0683
     12 N1         -1.3594   -6.1872    0.4476 N.pl3     1 <0>        -0.7187
     13 C11        -1.9150   -6.8378    1.6368 C.3       1 <0>         0.3102
     14 H2         -2.1173   -6.0599    2.3729 H         1 <0>         0.1886
     15 C12        -0.8488   -7.7461    2.2065 C.2       1 <0>         0.4372
     16 N2          0.3074   -7.2663    2.5587 N.2       1 <0>        -0.8248
     17 S1          1.4663   -8.2721    3.1813 S.o2      1 <0>         2.6297
     18 O1          0.9716   -8.7384    4.4291 O.2       1 <0>        -0.9351
     19 O2          1.8436   -9.1547    2.1334 O.2       1 <0>        -0.9336
     20 C13         2.8789   -7.2812    3.5382 C.ar      1 <0>        -0.6957
     21 C14         3.8489   -7.0886    2.5718 C.ar      1 <0>         0.0230
     22 C15         4.9575   -6.3126    2.8493 C.ar      1 <0>        -0.1679
     23 C16         5.0970   -5.7258    4.0986 C.ar      1 <0>         0.1989
     24 C17         4.1221   -5.9201    5.0664 C.ar      1 <0>        -0.2267
     25 C18         3.0128   -6.6928    4.7822 C.ar      1 <0>         0.0264
     26 O3          6.1869   -4.9622    4.3742 O.3       1 <0>        -0.3041
     27 C19         6.2641   -4.3895    5.6811 C.3       1 <0>         0.0188
     28 N3         -1.1135   -9.0551    2.3438 N.2       1 <0>        -0.4534
     29 C20        -2.2763   -9.5647    1.9949 C.ar      1 <0>         0.2851
     30 C21        -2.5214  -10.9523    2.1539 C.ar      1 <0>        -0.0826
     31 C22        -3.7124  -11.4807    1.7973 C.ar      1 <0>        -0.0656
     32 C23        -4.7559  -10.7085    1.2604 C.ar      1 <0>         0.0524
     33 C24        -4.6278   -9.3775    1.0668 C.ar      1 <0>        -0.2040
     34 C25        -3.3612   -8.7250    1.4300 C.ar      1 <0>         0.3320
     35 N4         -3.2014   -7.4431    1.2579 N.pl3     1 <0>        -0.5132
     36 H3         -4.1748    1.6927   -0.6552 H         1 <0>         0.0569
     37 H4         -2.7011    1.9231    0.3161 H         1 <0>         0.0591
     38 H5         -2.5755    1.6180   -1.4330 H         1 <0>         0.0562
     39 H6         -3.6377   -0.3491    0.6452 H         1 <0>         0.0622
     40 H7         -3.5120   -0.6542   -1.1039 H         1 <0>         0.0622
     41 H8         -0.0069   -0.1958    1.3040 H         1 <0>         0.0562
     42 H9         -1.0952    1.1939    1.0745 H         1 <0>         0.0654
     43 H10        -1.6252   -0.2008    2.0453 H         1 <0>         0.0556
     44 H11        -2.7892   -2.0887    1.8011 H         1 <0>         0.1305
     45 H12        -2.6800   -4.5362    2.0350 H         1 <0>         0.1153
     46 H13        -0.1812   -4.7457   -1.4297 H         1 <0>         0.1290
     47 H14        -0.3057   -2.2987   -1.6604 H         1 <0>         0.1329
     48 H15        -0.9469   -6.7212   -0.2493 H         1 <0>         0.4172
     49 H16         3.7399   -7.5457    1.5994 H         1 <0>         0.1480
     50 H17         5.7153   -6.1631    2.0944 H         1 <0>         0.1492
     51 H18         4.2284   -5.4644    6.0397 H         1 <0>         0.1460
     52 H19         2.2514   -6.8408    5.5338 H         1 <0>         0.1445
     53 H20         7.1805   -3.8057    5.7684 H         1 <0>         0.1117
     54 H21         5.4034   -3.7412    5.8452 H         1 <0>         0.0633
     55 H22         6.2675   -5.1846    6.4267 H         1 <0>         0.0644
     56 H23        -1.7515  -11.5903    2.5621 H         1 <0>         0.1880
     57 H24        -3.8688  -12.5410    1.9302 H         1 <0>         0.1775
     58 H25        -5.6848  -11.1915    0.9951 H         1 <0>         0.1810
     59 H26        -5.4423   -8.8023    0.6519 H         1 <0>         0.1849
     60 H27        -3.9152   -6.9002    0.8883 H         1 <0>         0.4567
@<TRIPOS>BOND
     1    1    2 1
     2    1   36 1
     3    1   37 1
     4    1   38 1
     5    2    3 1
     6    2   39 1
     7    2   40 1
     8    3    4 1
     9    3    5 1
    10    3    6 1
    11    5   41 1
    12    5   42 1
    13    5   43 1
    14    6   11 ar
    15    6    7 ar
    16    7    8 ar
    17    7   44 1
    18    8    9 ar
    19    8   45 1
    20    9   10 ar
    21    9   12 1
    22   10   11 ar
    23   10   46 1
    24   11   47 1
    25   12   13 1
    26   12   48 1
    27   13   14 1
    28   13   35 1
    29   13   15 1
    30   15   16 2
    31   15   28 1
    32   16   17 1
    33   17   18 2
    34   17   19 2
    35   17   20 1
    36   20   25 ar
    37   20   21 ar
    38   21   22 ar
    39   21   49 1
    40   22   23 ar
    41   22   50 1
    42   23   24 ar
    43   23   26 1
    44   24   25 ar
    45   24   51 1
    46   25   52 1
    47   26   27 1
    48   27   53 1
    49   27   54 1
    50   27   55 1
    51   28   29 2
    52   29   34 ar
    53   29   30 ar
    54   30   31 ar
    55   30   56 1
    56   31   32 ar
    57   31   57 1
    58   32   33 ar
    59   32   58 1
    60   33   34 ar
    61   33   59 1
    62   34   35 2
    63   35   60 1
@<TRIPOS>MOLECULE
ZINC39710526
   73    77     0     0     0
SMALL
USER_CHARGES

@<TRIPOS>ATOM
      1 C1          1.3313    0.1194   -0.7827 C.3       1 <0>        -0.1579
      2 C2          0.8566   -1.2855   -0.4061 C.3       1 <0>        -0.0990
      3 C3         -0.6485   -1.3039   -0.3314 C.ar      1 <0>        -0.1135
      4 C4         -1.2758   -1.0093    0.8793 C.ar      1 <0>         0.1127
      5 C5         -2.6268   -1.0057    1.0230 C.ar      1 <0>        -0.2122
      6 C6         -3.4620   -1.3058   -0.0688 C.ar      1 <0>         0.3363
      7 N1         -4.7861   -1.2988    0.0837 N.am      1 <0>        -0.5877
      8 C7         -5.6277   -1.5716   -0.8993 C.2       1 <0>         0.5200
      9 O1         -6.8275   -1.5495   -0.6997 O.2       1 <0>        -0.4368
     10 C8         -5.0928   -1.9107   -2.2724 C.3       1 <0>        -0.1635
     11 H1         -5.5094   -1.1939   -2.9799 H         1 <0>         0.1892
     12 C9         -3.5872   -1.9195   -2.4512 C.2       1 <0>         0.1076
     13 C10        -2.8265   -1.6209   -1.3600 C.ar      1 <0>        -0.1673
     14 C11        -1.3657   -1.6015   -1.4456 C.ar      1 <0>         0.0153
     15 C12        -5.6179   -3.2968   -2.6516 C.3       1 <0>         0.0627
     16 H2         -5.1835   -4.0441   -1.9875 H         1 <0>         0.1673
     17 C13        -5.2287   -3.6116   -4.0974 C.3       1 <0>         0.1115
     18 H3         -5.7114   -2.9133   -4.7811 H         1 <0>         0.1478
     19 N2         -5.5911   -4.9945   -4.4364 N.2       1 <0>        -0.2696
     20 N3         -4.5669   -5.6148   -4.7295 N.2       1 <0>         0.1605
     21 N4         -3.4164   -4.8309   -4.6496 N.pl3     1 <0>        -0.4820
     22 N5         -3.7604   -3.5604   -4.2592 N.3       1 <0>        -0.3026
     23 C14        -3.3772   -2.5726   -5.2767 C.3       1 <0>         0.0355
     24 C15        -4.0497   -1.2337   -4.9666 C.3       1 <0>        -0.1846
     25 C16        -1.8576   -2.3942   -5.2674 C.3       1 <0>        -0.1526
     26 C17        -3.8249   -3.0609   -6.6558 C.3       1 <0>        -0.1805
     27 N6         -7.0810   -3.3183   -2.5226 N.4       1 <0>        -0.3812
     28 C18        -7.6755   -2.4460   -3.5441 C.3       1 <0>         0.0267
     29 C19        -9.1743   -2.6024   -3.5278 C.ar      1 <0>        -0.1567
     30 C20        -9.7953   -3.4103   -4.4618 C.ar      1 <0>        -0.0786
     31 C21       -11.1699   -3.5539   -4.4470 C.ar      1 <0>        -0.1033
     32 C22       -11.9247   -2.8896   -3.4980 C.ar      1 <0>        -0.0632
     33 C23       -11.3051   -2.0816   -2.5637 C.ar      1 <0>        -0.1006
     34 C24        -9.9285   -1.9420   -2.5745 C.ar      1 <0>        -0.0251
     35 Cl1        -9.1488   -0.9324   -1.3970 Cl        1 <0>        -0.0368
     36 C25        -7.5687   -4.6916   -2.7073 C.3       1 <0>         0.0596
     37 C26        -7.0118   -5.5732   -1.6193 C.2       1 <0>        -0.1098
     38 C27        -7.6189   -5.8641   -0.4547 C.2       1 <0>        -0.1315
     39 C28        -6.7469   -6.7175    0.2597 C.2       1 <0>        -0.2133
     40 C29        -5.6592   -6.8970   -0.5110 C.2       1 <0>         0.0083
     41 O2         -5.8277   -6.2062   -1.6504 O.3       1 <0>        -0.1693
     42 H4          2.4199    0.1327   -0.8367 H         1 <0>         0.0793
     43 H5          0.9161    0.3956   -1.7519 H         1 <0>         0.0600
     44 H6          0.9963    0.8307   -0.0278 H         1 <0>         0.0623
     45 H7          1.1916   -1.9968   -1.1610 H         1 <0>         0.0934
     46 H8          1.2718   -1.5617    0.5631 H         1 <0>         0.0960
     47 H9         -0.6628   -0.7750    1.7371 H         1 <0>         0.1767
     48 H10        -3.0630   -0.7711    1.9827 H         1 <0>         0.1792
     49 H11        -3.1358   -2.1528   -3.4042 H         1 <0>         0.2455
     50 H12        -0.8668   -1.8236   -2.3774 H         1 <0>         0.1767
     51 H13        -2.5152   -5.1349   -4.8402 H         1 <0>         0.4711
     52 H14        -3.6780   -0.8520   -4.0157 H         1 <0>         0.0691
     53 H15        -3.8215   -0.5204   -5.7586 H         1 <0>         0.1144
     54 H16        -5.1287   -1.3749   -4.9046 H         1 <0>         0.0664
     55 H17        -1.3785   -3.3480   -5.4883 H         1 <0>         0.0799
     56 H18        -1.5732   -1.6612   -6.0224 H         1 <0>         0.0987
     57 H19        -1.5386   -2.0463   -4.2849 H         1 <0>         0.0636
     58 H20        -4.9075   -3.1880   -6.6624 H         1 <0>         0.0606
     59 H21        -3.5405   -2.3280   -7.4108 H         1 <0>         0.0942
     60 H22        -3.3458   -4.0147   -6.8767 H         1 <0>         0.0806
     61 H23        -7.4161   -1.4088   -3.3318 H         1 <0>         0.1374
     62 H24        -7.2920   -2.7227   -4.5261 H         1 <0>         0.1437
     63 H25        -9.2062   -3.9292   -5.2036 H         1 <0>         0.1460
     64 H26       -11.6546   -4.1850   -5.1772 H         1 <0>         0.1494
     65 H27       -12.9988   -3.0019   -3.4871 H         1 <0>         0.1509
     66 H28       -11.8948   -1.5625   -1.8226 H         1 <0>         0.1501
     67 H29        -8.6577   -4.6999   -2.6599 H         1 <0>         0.1626
     68 H30        -7.2445   -5.0647   -3.6788 H         1 <0>         0.1845
     69 H31        -8.5864   -5.5127   -0.1279 H         1 <0>         0.1621
     70 H32        -6.9207   -7.1432    1.2369 H         1 <0>         0.1660
     71 H33        -4.7982   -7.4979   -0.2582 H         1 <0>         0.2187
     72 H34        -5.1496   -1.0837    0.9569 H         1 <0>         0.4501
     73 H35        -7.3427   -2.9890   -1.6054 H         1 <0>         0.4291
@<TRIPOS>BOND
     1    1    2 1
     2    1   42 1
     3    1   43 1
     4    1   44 1
     5    2    3 1
     6    2   45 1
     7    2   46 1
     8    3   14 ar
     9    3    4 ar
    10    4    5 ar
    11    4   47 1
    12    5    6 ar
    13    5   48 1
    14    6   13 ar
    15    6    7 2
    16    7    8 am
    17    7   72 1
    18    8    9 2
    19    8   10 1
    20   10   11 1
    21   10   12 1
    22   10   15 1
    23   12   13 2
    24   12   49 1
    25   13   14 ar
    26   14   50 1
    27   15   16 1
    28   15   17 1
    29   15   27 1
    30   17   18 1
    31   17   22 1
    32   17   19 1
    33   19   20 2
    34   20   21 1
    35   21   22 1
    36   21   51 1
    37   22   23 1
    38   23   24 1
    39   23   25 1
    40   23   26 1
    41   24   52 1
    42   24   53 1
    43   24   54 1
    44   25   55 1
    45   25   56 1
    46   25   57 1
    47   26   58 1
    48   26   59 1
    49   26   60 1
    50   27   28 1
    51   27   36 1
    52   27   73 1
    53   28   29 1
    54   28   61 1
    55   28   62 1
    56   29   34 ar
    57   29   30 ar
    58   30   31 ar
    59   30   63 1
    60   31   32 ar
    61   31   64 1
    62   32   33 ar
    63   32   65 1
    64   33   34 ar
    65   33   66 1
    66   34   35 1
    67   36   37 1
    68   36   67 1
    69   36   68 1
    70   37   41 1
    71   37   38 2
    72   38   39 1
    73   38   69 1
    74   39   40 2
    75   39   70 1
    76   40   41 1
    77   40   71 1
@<TRIPOS>MOLECULE
ZINC39711167
   76    80     0     0     0
SMALL
USER_CHARGES

@<TRIPOS>ATOM
      1 C1          0.2213   -8.8431   -1.1765 C.3       1 <0>        -0.1613
      2 C2          1.3140   -7.8602   -1.6017 C.3       1 <0>        -0.1212
      3 C3          0.6721   -6.6393   -2.2638 C.3       1 <0>         0.2148
      4 C4         -0.2029   -7.0944   -3.4334 C.3       1 <0>        -0.2004
      5 C5         -0.1901   -5.8983   -1.2399 C.3       1 <0>        -0.1714
      6 N1          1.7211   -5.7440   -2.7581 N.pl3     1 <0>        -0.5452
      7 C6          1.5715   -4.3290   -3.1474 C.3       1 <0>         0.3126
      8 H1          1.2429   -3.7282   -2.2994 H         1 <0>         0.1210
      9 N2          2.9386   -3.9534   -3.5549 N.pl3     1 <0>        -0.6902
     10 N3          3.7192   -5.1025   -3.3813 N.2       1 <0>         0.0230
     11 N4          3.0724   -6.0538   -2.9523 N.2       1 <0>         0.0477
     12 C7          0.5959   -4.1895   -4.3177 C.3       1 <0>        -0.0067
     13 H2         -0.3079   -4.7614   -4.1074 H         1 <0>         0.1936
     14 C8          0.2340   -2.7150   -4.5070 C.3       1 <0>        -0.1444
     15 H3         -0.4302   -2.6451   -5.3684 H         1 <0>         0.1951
     16 C9          1.5075   -1.9624   -4.8393 C.2       1 <0>         0.0382
     17 C10         1.8608   -0.9367   -4.0135 C.ar      1 <0>        -0.1319
     18 C11         3.0748   -0.1580   -4.2607 C.ar      1 <0>         0.0442
     19 C12         3.3875    0.8545   -3.4113 C.ar      1 <0>        -0.1595
     20 C13         2.5782    1.1611   -2.3172 C.ar      1 <0>         0.1655
     21 C14         1.4395    0.4765   -2.0331 C.ar      1 <0>        -0.2340
     22 C15         1.0247   -0.5905   -2.8510 C.ar      1 <0>         0.3478
     23 N5         -0.0947   -1.2544   -2.5633 N.am      1 <0>        -0.5909
     24 C16        -0.5394   -2.2669   -3.2873 C.2       1 <0>         0.5257
     25 O1         -1.5684   -2.8351   -2.9740 O.2       1 <0>        -0.4028
     26 C17         2.9835    2.2970   -1.4137 C.3       1 <0>        -0.1676
     27 C18         3.9626   -0.4744   -5.4366 C.3       1 <0>        -0.1488
     28 N6          1.2247   -4.7006   -5.5430 N.4       1 <0>        -0.3798
     29 C19         1.4413   -6.1479   -5.4153 C.3       1 <0>        -0.0079
     30 C20         2.1997   -6.6503   -6.6167 C.ar      1 <0>        -0.1805
     31 C21         1.5129   -7.0801   -7.7369 C.ar      1 <0>        -0.0688
     32 C22         2.2074   -7.5406   -8.8394 C.ar      1 <0>        -0.1473
     33 C23         3.5915   -7.5714   -8.8218 C.ar      1 <0>         0.1498
     34 C24         4.2783   -7.1407   -7.6993 C.ar      1 <0>        -0.1451
     35 C25         3.5818   -6.6757   -6.6000 C.ar      1 <0>        -0.0564
     36 F1          4.2714   -8.0218   -9.8989 F         1 <0>        -0.1155
     37 C26         0.3469   -4.4362   -6.6908 C.3       1 <0>         0.0605
     38 C27         0.9764   -3.3901   -7.5742 C.2       1 <0>        -0.1374
     39 C28         1.8945   -3.6172   -8.5308 C.2       1 <0>        -0.1092
     40 C29         2.2050   -2.3637   -9.1062 C.2       1 <0>        -0.2062
     41 C30         1.4582   -1.4456   -8.4669 C.2       1 <0>         0.0133
     42 O2          0.7116   -2.0738   -7.5440 O.3       1 <0>        -0.1830
     43 H4         -0.4040   -8.3826   -0.4116 H         1 <0>         0.0645
     44 H5         -0.3917   -9.1010   -2.0401 H         1 <0>         0.0650
     45 H6          0.6811   -9.7460   -0.7747 H         1 <0>         0.0743
     46 H7          1.8788   -7.5432   -0.7250 H         1 <0>         0.0809
     47 H8          1.9848   -8.3468   -2.3097 H         1 <0>         0.0838
     48 H9         -0.9405   -7.8136   -3.0770 H         1 <0>         0.1116
     49 H10        -0.7138   -6.2322   -3.8620 H         1 <0>         0.0536
     50 H11         0.4220   -7.5618   -4.1944 H         1 <0>         0.0832
     51 H12         0.4333   -5.5740   -0.4066 H         1 <0>         0.0747
     52 H13        -0.6474   -5.0285   -1.7116 H         1 <0>         0.0555
     53 H14        -0.9706   -6.5644   -0.8721 H         1 <0>         0.1014
     54 H15         3.2356   -3.0882   -3.8774 H         1 <0>         0.4443
     55 H16         2.1104   -2.2282   -5.6950 H         1 <0>         0.1881
     56 H17         4.2817    1.4342   -3.5864 H         1 <0>         0.1772
     57 H18         0.8480    0.7537   -1.1730 H         1 <0>         0.1811
     58 H19         2.5430    3.2254   -1.7773 H         1 <0>         0.1276
     59 H20         2.6308    2.0997   -0.4013 H         1 <0>         0.1055
     60 H21         4.0697    2.3877   -1.4088 H         1 <0>         0.1087
     61 H22         3.6907    0.1620   -6.2787 H         1 <0>         0.1190
     62 H23         5.0028   -0.2936   -5.1656 H         1 <0>         0.1181
     63 H24         3.8365   -1.5203   -5.7161 H         1 <0>         0.0740
     64 H25         2.0162   -6.3509   -4.5117 H         1 <0>         0.1602
     65 H26         0.4785   -6.6554   -5.3551 H         1 <0>         0.1633
     66 H27         0.4333   -7.0563   -7.7502 H         1 <0>         0.1434
     67 H28         1.6706   -7.8766   -9.7143 H         1 <0>         0.1552
     68 H29         5.3579   -7.1646   -7.6843 H         1 <0>         0.1546
     69 H30         4.1174   -6.3355   -5.7260 H         1 <0>         0.1400
     70 H31         0.2059   -5.3552   -7.2597 H         1 <0>         0.1734
     71 H32        -0.6189   -4.0777   -6.3346 H         1 <0>         0.1503
     72 H33         2.3142   -4.5734   -8.8060 H         1 <0>         0.1640
     73 H34         2.9074   -2.1787   -9.9055 H         1 <0>         0.1718
     74 H35         1.4561   -0.3839   -8.6650 H         1 <0>         0.2246
     75 H36        -0.6062   -0.9825   -1.7852 H         1 <0>         0.4515
     76 H37         2.1108   -4.2390   -5.6840 H         1 <0>         0.4160
@<TRIPOS>BOND
     1    1    2 1
     2    1   43 1
     3    1   44 1
     4    1   45 1
     5    2    3 1
     6    2   46 1
     7    2   47 1
     8    3    4 1
     9    3    5 1
    10    3    6 1
    11    4   48 1
    12    4   49 1
    13    4   50 1
    14    5   51 1
    15    5   52 1
    16    5   53 1
    17    6   11 1
    18    6    7 1
    19    7    8 1
    20    7    9 1
    21    7   12 1
    22    9   10 1
    23    9   54 1
    24   10   11 2
    25   12   13 1
    26   12   14 1
    27   12   28 1
    28   14   15 1
    29   14   24 1
    30   14   16 1
    31   16   17 2
    32   16   55 1
    33   17   22 ar
    34   17   18 ar
    35   18   19 ar
    36   18   27 1
    37   19   20 ar
    38   19   56 1
    39   20   21 ar
    40   20   26 1
    41   21   22 ar
    42   21   57 1
    43   22   23 2
    44   23   24 am
    45   23   75 1
    46   24   25 2
    47   26   58 1
    48   26   59 1
    49   26   60 1
    50   27   61 1
    51   27   62 1
    52   27   63 1
    53   28   29 1
    54   28   37 1
    55   28   76 1
    56   29   30 1
    57   29   64 1
    58   29   65 1
    59   30   35 ar
    60   30   31 ar
    61   31   32 ar
    62   31   66 1
    63   32   33 ar
    64   32   67 1
    65   33   34 ar
    66   33   36 1
    67   34   35 ar
    68   34   68 1
    69   35   69 1
    70   37   38 1
    71   37   70 1
    72   37   71 1
    73   38   42 1
    74   38   39 2
    75   39   40 1
    76   39   72 1
    77   40   41 2
    78   40   73 1
    79   41   42 1
    80   41   74 1
@<TRIPOS>MOLECULE
ZINC64726075
   66    70     0     0     0
SMALL
USER_CHARGES

@<TRIPOS>ATOM
      1 C1         -0.0285    1.5314    0.0225 C.3       1 <0>        -0.1878
      2 C2          0.0001    0.0018    0.0054 C.3       1 <0>         0.0068
      3 H1          0.5129   -0.3420   -0.8929 H         1 <0>         0.1727
      4 C3         -1.4111   -0.5271    0.0117 C.2       1 <0>         0.4990
      5 O1         -1.7868   -1.2417    0.9169 O.2       1 <0>        -0.5130
      6 N1         -2.2556   -0.2060   -0.9884 N.am      1 <0>        -0.6303
      7 C4         -3.5354   -0.7741   -1.0341 C.ar      1 <0>         0.1093
      8 C5         -4.1141   -1.0848   -2.2573 C.ar      1 <0>        -0.1208
      9 C6         -5.3763   -1.6441   -2.3029 C.ar      1 <0>        -0.0933
     10 C7         -6.0690   -1.8977   -1.1282 C.ar      1 <0>         0.0620
     11 C8         -5.4913   -1.5900    0.0980 C.ar      1 <0>         0.0686
     12 C9         -4.2229   -1.0318    0.1433 C.ar      1 <0>        -0.1085
     13 O2         -6.1524   -1.8389    1.2615 O.3       1 <0>        -0.3046
     14 C10        -7.5641   -2.0568    1.1660 C.3       1 <0>         0.0187
     15 C11        -7.8226   -3.0323    0.0098 C.3       1 <0>         0.0184
     16 O3         -7.3140   -2.4462   -1.1933 O.3       1 <0>        -0.2998
     17 N2          0.7119   -0.4880    1.1934 N.4       1 <0>        -0.5018
     18 C12         2.1193   -0.0723    1.1270 C.3       1 <0>        -0.0146
     19 C13         2.8606   -0.5824    2.3644 C.3       1 <0>        -0.0008
     20 H2          2.3478   -0.2386    3.2626 H         1 <0>         0.1380
     21 C14         4.2718   -0.0535    2.3580 C.ar      1 <0>        -0.1692
     22 C15         5.1175   -0.3561    1.3069 C.ar      1 <0>        -0.0821
     23 C16         6.4117    0.1271    1.2990 C.ar      1 <0>        -0.1434
     24 C17         6.8624    0.9169    2.3466 C.ar      1 <0>         0.1682
     25 C18         6.0117    1.2195    3.3999 C.ar      1 <0>        -0.2009
     26 C19         4.7168    0.7381    3.4006 C.ar      1 <0>        -0.0431
     27 O4          8.1352    1.3931    2.3414 O.3       1 <0>        -0.3050
     28 C20         8.5307    2.1998    3.4526 C.3       1 <0>         0.0193
     29 C21         2.8888   -2.0890    2.3475 C.2       1 <0>        -0.0061
     30 C22         2.3669   -2.9225    3.2762 C.ar      1 <0>        -0.1285
     31 C23         1.6457   -2.6850    4.5323 C.ar      1 <0>        -0.0473
     32 C24         1.2390   -3.7459    5.2659 C.ar      1 <0>        -0.1188
     33 C25         1.4889   -5.0634    4.8580 C.ar      1 <0>         0.0592
     34 C26         2.1452   -5.3613    3.7166 C.ar      1 <0>        -0.2033
     35 C27         2.6177   -4.3230    2.8673 C.ar      1 <0>         0.3323
     36 N3          3.2693   -4.3542    1.7301 N.pl3     1 <0>        -0.5700
     37 C28         3.5004   -2.9752    1.2855 C.3       1 <0>         0.0553
     38 H3          0.9922    1.9139    0.0179 H         1 <0>         0.1030
     39 H4         -0.5567    1.8948   -0.8590 H         1 <0>         0.1185
     40 H5         -0.5413    1.8752    0.9208 H         1 <0>         0.0967
     41 H6         -1.9772    0.4184   -1.6765 H         1 <0>         0.4224
     42 H7         -3.5773   -0.8887   -3.1737 H         1 <0>         0.1410
     43 H8         -5.8251   -1.8841   -3.2555 H         1 <0>         0.1495
     44 H9         -3.7715   -0.7941    1.0952 H         1 <0>         0.1480
     45 H10        -7.9339   -2.4848    2.0977 H         1 <0>         0.1310
     46 H11        -8.0695   -1.1113    0.9691 H         1 <0>         0.0852
     47 H12        -7.3119   -3.9756    0.2036 H         1 <0>         0.0825
     48 H13        -8.8937   -3.2075   -0.0909 H         1 <0>         0.1324
     49 H14         0.2862   -0.1028    2.0232 H         1 <0>         0.4386
     50 H15         2.5791   -0.4884    0.2307 H         1 <0>         0.1457
     51 H16         2.1755    1.0157    1.0926 H         1 <0>         0.1682
     52 H17         4.7662   -0.9711    0.4915 H         1 <0>         0.1264
     53 H18         7.0721   -0.1102    0.4780 H         1 <0>         0.1450
     54 H19         6.3602    1.8342    4.2167 H         1 <0>         0.1442
     55 H20         4.0528    0.9770    4.2182 H         1 <0>         0.1358
     56 H21         7.8892    3.0792    3.5097 H         1 <0>         0.0651
     57 H22         8.4379    1.6221    4.3722 H         1 <0>         0.0639
     58 H23         9.5666    2.5135    3.3235 H         1 <0>         0.1149
     59 H24         1.4431   -1.6780    4.8659 H         1 <0>         0.1637
     60 H25         0.7082   -3.5734    6.1905 H         1 <0>         0.1659
     61 H26         1.1423   -5.8734    5.4826 H         1 <0>         0.1695
     62 H27         2.3127   -6.3936    3.4472 H         1 <0>         0.1686
     63 H28         3.0144   -2.8013    0.3255 H         1 <0>         0.1679
     64 H29         4.5703   -2.7827    1.2060 H         1 <0>         0.1822
     65 H30         3.5484   -5.1550    1.2594 H         1 <0>         0.4627
     66 H31         0.6598   -1.4952    1.2253 H         1 <0>         0.4262
@<TRIPOS>BOND
     1    1    2 1
     2    1   38 1
     3    1   39 1
     4    1   40 1
     5    2    3 1
     6    2    4 1
     7    2   17 1
     8    4    5 2
     9    4    6 am
    10    6    7 1
    11    6   41 1
    12    7   12 ar
    13    7    8 ar
    14    8    9 ar
    15    8   42 1
    16    9   10 ar
    17    9   43 1
    18   10   16 1
    19   10   11 ar
    20   11   12 ar
    21   11   13 1
    22   12   44 1
    23   13   14 1
    24   14   15 1
    25   14   45 1
    26   14   46 1
    27   15   16 1
    28   15   47 1
    29   15   48 1
    30   17   18 1
    31   17   49 1
    32   17   66 1
    33   18   19 1
    34   18   50 1
    35   18   51 1
    36   19   20 1
    37   19   21 1
    38   19   29 1
    39   21   26 ar
    40   21   22 ar
    41   22   23 ar
    42   22   52 1
    43   23   24 ar
    44   23   53 1
    45   24   25 ar
    46   24   27 1
    47   25   26 ar
    48   25   54 1
    49   26   55 1
    50   27   28 1
    51   28   56 1
    52   28   57 1
    53   28   58 1
    54   29   37 1
    55   29   30 2
    56   30   35 ar
    57   30   31 ar
    58   31   32 ar
    59   31   59 1
    60   32   33 ar
    61   32   60 1
    62   33   34 ar
    63   33   61 1
    64   34   35 ar
    65   34   62 1
    66   35   36 2
    67   36   37 1
    68   36   65 1
    69   37   63 1
    70   37   64 1
@<TRIPOS>MOLECULE
ZINC38970986
   47    50     0     0     0
SMALL
USER_CHARGES

@<TRIPOS>ATOM
      1 C1         -0.2734    1.0971    0.3234 C.ar      1 <0>         0.0552
      2 C2          0.8356    1.9501    0.1974 C.ar      1 <0>        -0.0621
      3 C3          2.0975    1.4910    0.0507 C.ar      1 <0>        -0.0846
      4 C4          2.3537    0.0967    0.0179 C.ar      1 <0>         0.2900
      5 N1          3.5856   -0.3453   -0.1248 N.2       1 <0>        -0.4554
      6 C5          3.8629   -1.6585   -0.1598 C.2       1 <0>         0.4416
      7 N2          5.0882   -2.0705   -0.3012 N.2       1 <0>        -0.8280
      8 S1          6.3202   -0.9727   -0.4397 S.o2      1 <0>         2.6292
      9 O1          6.1179   -0.2880   -1.6683 O.2       1 <0>        -0.9278
     10 O2          6.4014   -0.2941    0.8062 O.2       1 <0>        -0.9278
     11 C6          7.8161   -1.8874   -0.6133 C.ar      1 <0>        -0.6581
     12 C7          8.5360   -2.2540    0.5084 C.ar      1 <0>        -0.0023
     13 C8          9.7095   -2.9715    0.3728 C.ar      1 <0>        -0.1270
     14 C9         10.1636   -3.3230   -0.8859 C.ar      1 <0>         0.0281
     15 C10         9.4426   -2.9559   -2.0082 C.ar      1 <0>        -0.1273
     16 C11         8.2663   -2.2432   -1.8710 C.ar      1 <0>        -0.0023
     17 Cl1        11.6377   -4.2237   -1.0570 Cl        1 <0>        -0.0353
     18 C12         2.7297   -2.6512   -0.0319 C.3       1 <0>         0.3109
     19 H1          2.9406   -3.2880    0.8273 H         1 <0>         0.1902
     20 N3          1.3664   -2.1209    0.1262 N.pl3     1 <0>        -0.5172
     21 C13         1.2006   -0.8278    0.1488 C.ar      1 <0>         0.3348
     22 C14        -0.1413   -0.2474    0.3051 C.ar      1 <0>        -0.2039
     23 N4          2.7426   -3.5007   -1.2254 N.pl3     1 <0>        -0.7160
     24 C15         2.5710   -4.8813   -1.1018 C.ar      1 <0>         0.2080
     25 C16         2.7407   -5.7056   -2.2069 C.ar      1 <0>        -0.1581
     26 C17         2.5708   -7.0704   -2.0811 C.ar      1 <0>        -0.0176
     27 C18         2.2315   -7.6165   -0.8568 C.ar      1 <0>        -0.2073
     28 C19         2.0618   -6.7988    0.2454 C.ar      1 <0>        -0.0179
     29 C20         2.2358   -5.4338    0.1279 C.ar      1 <0>        -0.1948
     30 C21         2.0459   -9.1061   -0.7236 C.3       1 <0>         0.5091
     31 F1          3.2672   -9.7000   -0.3874 F         1 <0>        -0.1726
     32 F2          1.1068   -9.3712    0.2789 F         1 <0>        -0.1751
     33 F3          1.5915   -9.6299   -1.9386 F         1 <0>        -0.1736
     34 H2         -1.2569    1.5273    0.4425 H         1 <0>         0.1825
     35 H3          0.6725    3.0175    0.2182 H         1 <0>         0.1789
     36 H4          2.9158    2.1897   -0.0425 H         1 <0>         0.1892
     37 H5          8.1816   -1.9792    1.4910 H         1 <0>         0.1522
     38 H6         10.2721   -3.2575    1.2493 H         1 <0>         0.1530
     39 H7          9.7968   -3.2297   -2.9911 H         1 <0>         0.1527
     40 H8          7.7010   -1.9607   -2.7468 H         1 <0>         0.1515
     41 H9         -1.0071   -0.8854    0.4039 H         1 <0>         0.1863
     42 H10         2.8702   -3.1043   -2.1014 H         1 <0>         0.4224
     43 H11         3.0050   -5.2796   -3.1636 H         1 <0>         0.1437
     44 H12         2.7026   -7.7118   -2.9400 H         1 <0>         0.1491
     45 H13         1.7968   -7.2286    1.2001 H         1 <0>         0.1471
     46 H14         2.1075   -4.7963    0.9901 H         1 <0>         0.1283
     47 H15         0.6081   -2.7197    0.2116 H         1 <0>         0.4579
@<TRIPOS>BOND
     1    1   22 ar
     2    1    2 ar
     3    1   34 1
     4    2    3 ar
     5    2   35 1
     6    3    4 ar
     7    3   36 1
     8    4   21 ar
     9    4    5 2
    10    5    6 1
    11    6    7 2
    12    6   18 1
    13    7    8 1
    14    8    9 2
    15    8   10 2
    16    8   11 1
    17   11   16 ar
    18   11   12 ar
    19   12   13 ar
    20   12   37 1
    21   13   14 ar
    22   13   38 1
    23   14   15 ar
    24   14   17 1
    25   15   16 ar
    26   15   39 1
    27   16   40 1
    28   18   19 1
    29   18   20 1
    30   18   23 1
    31   20   21 2
    32   20   47 1
    33   21   22 ar
    34   22   41 1
    35   23   24 1
    36   23   42 1
    37   24   29 ar
    38   24   25 ar
    39   25   26 ar
    40   25   43 1
    41   26   27 ar
    42   26   44 1
    43   27   28 ar
    44   27   30 1
    45   28   29 ar
    46   28   45 1
    47   29   46 1
    48   30   31 1
    49   30   32 1
    50   30   33 1
@<TRIPOS>MOLECULE
ZINC39689223
   83    86     0     0     0
SMALL
USER_CHARGES

@<TRIPOS>ATOM
      1 C1         -0.6078    1.9828    0.2903 C.3       1 <0>        -0.1550
      2 C2         -0.4661    0.4594    0.2765 C.3       1 <0>        -0.1258
      3 C3         -1.8545   -0.1815    0.2261 C.3       1 <0>        -0.1205
      4 C4         -1.7128   -1.7049    0.2124 C.3       1 <0>        -0.1023
      5 C5         -3.1012   -2.3458    0.1620 C.3       1 <0>        -0.1040
      6 H1         -3.6520   -1.9528   -0.6925 H         1 <0>         0.1009
      7 C6         -3.8597   -2.0214    1.4506 C.3       1 <0>        -0.1527
      8 C7         -2.9601   -3.8398    0.0247 C.2       1 <0>         0.5505
      9 O1         -1.8576   -4.3425   -0.0278 O.2       1 <0>        -0.5267
     10 N1         -4.0590   -4.6174   -0.0399 N.am      1 <0>        -0.6198
     11 C8         -5.4775   -4.1904    0.0010 C.3       1 <0>         0.1141
     12 C9         -6.1884   -5.0989   -1.0269 C.3       1 <0>        -0.1157
     13 H2         -7.1812   -5.3719   -0.6694 H         1 <0>         0.1169
     14 C10        -5.2952   -6.3464   -1.1319 C.3       1 <0>        -0.0729
     15 C11        -4.1218   -6.0926   -0.1743 C.3       1 <0>         0.1035
     16 C12        -6.0698   -7.5886   -0.7026 C.3       1 <0>        -0.1318
     17 C13        -5.1795   -8.8231   -0.8709 C.3       1 <0>        -0.0122
     18 N2         -4.7641   -8.9417   -2.2737 N.4       1 <0>        -0.5037
     19 C14        -3.9411   -7.7863   -2.6515 C.3       1 <0>        -0.0112
     20 C15        -4.7792   -6.5080   -2.5586 C.3       1 <0>        -0.1422
     21 C16        -6.2848   -4.4058   -2.3616 C.2       1 <0>         0.5185
     22 O2         -5.4345   -3.6068   -2.6928 O.2       1 <0>        -0.5066
     23 N3         -7.3158   -4.6738   -3.1872 N.am      1 <0>        -0.7361
     24 C17        -7.4094   -4.0000   -4.4847 C.3       1 <0>         0.1219
     25 C18        -8.6630   -4.4797   -5.2192 C.3       1 <0>        -0.1139
     26 C19        -8.5222   -5.9672   -5.5549 C.3       1 <0>        -0.1406
     27 C20        -9.7429   -6.4210   -6.3582 C.3       1 <0>        -0.0087
     28 N4         -9.8323   -5.6439   -7.6002 N.4       1 <0>        -0.3799
     29 C21       -10.0394   -4.2251   -7.2863 C.3       1 <0>        -0.0118
     30 C22        -8.8301   -3.6868   -6.5186 C.3       1 <0>        -0.1398
     31 C23       -10.9594   -6.1357   -8.4038 C.3       1 <0>         0.0194
     32 C24       -10.7178   -7.6042   -8.8099 C.3       1 <0>        -0.1403
     33 C25       -11.2876   -7.6995  -10.2470 C.3       1 <0>        -0.1258
     34 C26       -10.8859   -6.3372  -10.8650 C.3       1 <0>        -0.1314
     35 C27       -11.0663   -5.3301   -9.7105 C.3       1 <0>        -0.1456
     36 H3          0.3813    2.4394    0.3261 H         1 <0>         0.0571
     37 H4         -1.1255    2.3077   -0.6122 H         1 <0>         0.0530
     38 H5         -1.1802    2.2865    1.1667 H         1 <0>         0.0546
     39 H6          0.1063    0.1557   -0.6000 H         1 <0>         0.0614
     40 H7          0.0515    0.1345    1.1790 H         1 <0>         0.0633
     41 H8         -2.4269    0.1223    1.1026 H         1 <0>         0.0660
     42 H9         -2.3722    0.1434   -0.6764 H         1 <0>         0.0611
     43 H10        -1.1404   -2.0086   -0.6641 H         1 <0>         0.0701
     44 H11        -1.1952   -2.0298    1.1149 H         1 <0>         0.0709
     45 H12        -3.3088   -2.4145    2.3051 H         1 <0>         0.0639
     46 H13        -3.9617   -0.9408    1.5500 H         1 <0>         0.0771
     47 H14        -4.8488   -2.4780    1.4148 H         1 <0>         0.0578
     48 H15        -5.8926   -4.3458    0.9968 H         1 <0>         0.0920
     49 H16        -5.5678   -3.1439   -0.2902 H         1 <0>         0.0999
     50 H17        -3.1945   -6.4757   -0.6002 H         1 <0>         0.0881
     51 H18        -4.3165   -6.5549    0.7934 H         1 <0>         0.0848
     52 H19        -6.3632   -7.4914    0.3427 H         1 <0>         0.1238
     53 H20        -6.9600   -7.6947   -1.3226 H         1 <0>         0.0936
     54 H21        -4.2974   -8.7236   -0.2382 H         1 <0>         0.1357
     55 H22        -5.7357   -9.7143   -0.5804 H         1 <0>         0.1421
     56 H23        -4.2284   -9.7883   -2.3941 H         1 <0>         0.4367
     57 H24        -3.0886   -7.7115   -1.9764 H         1 <0>         0.1373
     58 H25        -3.5845   -7.9132   -3.6737 H         1 <0>         0.1379
     59 H26        -5.6230   -6.5754   -3.2453 H         1 <0>         0.0886
     60 H27        -4.1625   -5.6487   -2.8221 H         1 <0>         0.1230
     61 H28        -7.9958   -5.3127   -2.9223 H         1 <0>         0.3989
     62 H29        -7.4683   -2.9225   -4.3312 H         1 <0>         0.0833
     63 H30        -6.5273   -4.2345   -5.0804 H         1 <0>         0.0760
     64 H31        -9.5369   -4.3290   -4.5853 H         1 <0>         0.0997
     65 H32        -7.6194   -6.1232   -6.1453 H         1 <0>         0.0899
     66 H33        -8.4586   -6.5441   -4.6322 H         1 <0>         0.1042
     67 H34        -9.6460   -7.4797   -6.5987 H         1 <0>         0.1309
     68 H35       -10.6451   -6.2648   -5.7667 H         1 <0>         0.1302
     69 H36       -10.1614   -3.6626   -8.2119 H         1 <0>         0.1376
     70 H37       -10.9352   -4.1157   -6.6750 H         1 <0>         0.1317
     71 H38        -8.9866   -2.6337   -6.2849 H         1 <0>         0.1195
     72 H39        -7.9337   -3.7954   -7.1291 H         1 <0>         0.0928
     73 H40       -11.8865   -6.0520   -7.8367 H         1 <0>         0.1407
     74 H41        -9.6516   -7.8305   -8.8065 H         1 <0>         0.0839
     75 H42       -11.2539   -8.2780   -8.1415 H         1 <0>         0.0968
     76 H43       -10.8252   -8.5224  -10.7921 H         1 <0>         0.0895
     77 H44       -12.3718   -7.8095  -10.2262 H         1 <0>         0.0853
     78 H45        -9.8468   -6.3589  -11.1935 H         1 <0>         0.0775
     79 H46       -11.5447   -6.0864  -11.6964 H         1 <0>         0.0900
     80 H47       -12.0455   -4.8562   -9.7779 H         1 <0>         0.1048
     81 H48       -10.2818   -4.5743   -9.7484 H         1 <0>         0.0853
     82 H49        -8.9766   -5.7499   -8.1244 H         1 <0>         0.4200
     83 H50        -5.5820   -8.9776   -2.8634 H         1 <0>         0.4232
@<TRIPOS>BOND
     1    1    2 1
     2    1   36 1
     3    1   37 1
     4    1   38 1
     5    2    3 1
     6    2   39 1
     7    2   40 1
     8    3    4 1
     9    3   41 1
    10    3   42 1
    11    4    5 1
    12    4   43 1
    13    4   44 1
    14    5    6 1
    15    5    7 1
    16    5    8 1
    17    7   45 1
    18    7   46 1
    19    7   47 1
    20    8    9 2
    21    8   10 am
    22   10   15 1
    23   10   11 1
    24   11   12 1
    25   11   48 1
    26   11   49 1
    27   12   13 1
    28   12   14 1
    29   12   21 1
    30   14   20 1
    31   14   15 1
    32   14   16 1
    33   15   50 1
    34   15   51 1
    35   16   17 1
    36   16   52 1
    37   16   53 1
    38   17   18 1
    39   17   54 1
    40   17   55 1
    41   18   19 1
    42   18   56 1
    43   18   83 1
    44   19   20 1
    45   19   57 1
    46   19   58 1
    47   20   59 1
    48   20   60 1
    49   21   22 2
    50   21   23 am
    51   23   24 1
    52   23   61 1
    53   24   25 1
    54   24   62 1
    55   24   63 1
    56   25   30 1
    57   25   26 1
    58   25   64 1
    59   26   27 1
    60   26   65 1
    61   26   66 1
    62   27   28 1
    63   27   67 1
    64   27   68 1
    65   28   29 1
    66   28   31 1
    67   28   82 1
    68   29   30 1
    69   29   69 1
    70   29   70 1
    71   30   71 1
    72   30   72 1
    73   31   35 1
    74   31   32 1
    75   31   73 1
    76   32   33 1
    77   32   74 1
    78   32   75 1
    79   33   34 1
    80   33   76 1
    81   33   77 1
    82   34   35 1
    83   34   78 1
    84   34   79 1
    85   35   80 1
    86   35   81 1
@<TRIPOS>MOLECULE
ZINC39946480
   54    57     0     0     0
SMALL
USER_CHARGES

@<TRIPOS>ATOM
      1 C1         -0.1630    1.5558    0.1426 C.3       1 <0>        -0.1331
      2 C2         -0.1183    0.0499    0.1039 C.ar      1 <0>        -0.0444
      3 C3         -0.1134   -0.6104   -1.1105 C.ar      1 <0>        -0.1084
      4 C4         -0.0724   -1.9917   -1.1460 C.ar      1 <0>        -0.0928
      5 C5         -0.0358   -2.7126    0.0329 C.ar      1 <0>        -0.1636
      6 C6         -0.0398   -2.0523    1.2473 C.ar      1 <0>        -0.0965
      7 C7         -0.0765   -0.6708    1.2828 C.ar      1 <0>        -0.1109
      8 C8          0.0079   -4.2185   -0.0058 C.3       1 <0>         0.1403
      9 H1         -0.3363   -4.5538   -0.9842 H         1 <0>         0.1392
     10 C9          1.4706   -4.6795    0.1924 C.3       1 <0>        -0.0959
     11 S1          1.2178   -6.0380    1.4104 S.3       1 <0>         0.0765
     12 C10        -0.3842   -5.5299    2.0177 C.cat     1 <0>         0.4896
     13 N1         -0.9447   -5.8360    3.1539 N.pl3     1 <0>        -0.5414
     14 C11        -0.2935   -6.7857    4.0596 C.3       1 <0>         0.1122
     15 C12        -1.1404   -6.9649    5.2932 C.2       1 <0>        -0.1853
     16 C13        -1.9902   -7.9592    5.3655 C.2       1 <0>        -0.1106
     17 C14        -1.0097   -6.0002    6.4435 C.3       1 <0>        -0.1259
     18 N2         -0.8893   -4.7380    1.0083 N.pl3     1 <0>        -0.4368
     19 N3         -2.2576   -4.4405    0.9636 N.2       1 <0>        -0.1975
     20 C15        -2.7521   -3.7818   -0.0560 C.2       1 <0>         0.1254
     21 C16        -4.0936   -3.3819   -0.0467 C.2       1 <0>         0.0813
     22 C17        -4.7724   -2.6845   -1.0456 C.ar      1 <0>        -0.0977
     23 C18        -4.3687   -2.1853   -2.3028 C.ar      1 <0>        -0.0189
     24 C19        -5.2633   -1.5287   -3.0855 C.ar      1 <0>        -0.0997
     25 C20        -6.5860   -1.3309   -2.6779 C.ar      1 <0>         0.0564
     26 C21        -7.0415   -1.7825   -1.4844 C.ar      1 <0>        -0.1771
     27 C22        -6.1645   -2.4788   -0.6116 C.ar      1 <0>         0.3256
     28 N4         -6.3589   -3.0076    0.5793 N.pl3     1 <0>        -0.5660
     29 C23        -5.1120   -3.6215    1.0460 C.3       1 <0>         0.0723
     30 Br1        -4.7067   -0.8656   -4.7667 Br        1 <0>         0.0282
     31 H2          0.8532    1.9498    0.1345 H         1 <0>         0.0872
     32 H3         -0.7032    1.9257   -0.7288 H         1 <0>         0.0777
     33 H4         -0.6715    1.8809    1.0503 H         1 <0>         0.0747
     34 H5         -0.1419   -0.0472   -2.0315 H         1 <0>         0.1407
     35 H6         -0.0692   -2.5076   -2.0948 H         1 <0>         0.1372
     36 H7         -0.0116   -2.6155    2.1684 H         1 <0>         0.1122
     37 H8         -0.0759   -0.1548    2.2315 H         1 <0>         0.1340
     38 H9          1.8964   -5.0560   -0.7377 H         1 <0>         0.1707
     39 H10         2.0838   -3.8815    0.6111 H         1 <0>         0.1509
     40 H11        -0.1765   -7.7456    3.5566 H         1 <0>         0.1224
     41 H12         0.6865   -6.4028    4.3441 H         1 <0>         0.1300
     42 H13        -2.0839   -8.6506    4.5411 H         1 <0>         0.1096
     43 H14        -2.5971   -8.0876    6.2496 H         1 <0>         0.1243
     44 H15        -1.7077   -5.1743    6.3062 H         1 <0>         0.0687
     45 H16        -1.2355   -6.5154    7.3772 H         1 <0>         0.0825
     46 H17         0.0087   -5.6131    6.4792 H         1 <0>         0.0719
     47 H18        -2.1246   -3.5477   -0.9032 H         1 <0>         0.1699
     48 H19        -3.3524   -2.3247   -2.6407 H         1 <0>         0.1685
     49 H20        -7.2636   -0.8030   -3.3326 H         1 <0>         0.1778
     50 H21        -8.0689   -1.6132   -1.1978 H         1 <0>         0.1785
     51 H22        -5.2524   -4.6913    1.2001 H         1 <0>         0.1837
     52 H23        -4.7869   -3.1478    1.9723 H         1 <0>         0.1810
     53 H24        -7.1964   -2.9964    1.0686 H         1 <0>         0.4629
     54 H25        -1.7930   -5.4350    3.3998 H         1 <0>         0.4386
@<TRIPOS>BOND
     1    1    2 1
     2    1   31 1
     3    1   32 1
     4    1   33 1
     5    2    7 ar
     6    2    3 ar
     7    3    4 ar
     8    3   34 1
     9    4    5 ar
    10    4   35 1
    11    5    6 ar
    12    5    8 1
    13    6    7 ar
    14    6   36 1
    15    7   37 1
    16    8    9 1
    17    8   18 1
    18    8   10 1
    19   10   11 1
    20   10   38 1
    21   10   39 1
    22   11   12 1
    23   12   13 2
    24   12   18 1
    25   13   14 1
    26   13   54 1
    27   14   15 1
    28   14   40 1
    29   14   41 1
    30   15   16 2
    31   15   17 1
    32   16   42 1
    33   16   43 1
    34   17   44 1
    35   17   45 1
    36   17   46 1
    37   18   19 1
    38   19   20 2
    39   20   21 1
    40   20   47 1
    41   21   29 1
    42   21   22 2
    43   22   27 ar
    44   22   23 ar
    45   23   24 ar
    46   23   48 1
    47   24   25 ar
    48   24   30 1
    49   25   26 ar
    50   25   49 1
    51   26   27 ar
    52   26   50 1
    53   27   28 2
    54   28   29 1
    55   28   53 1
    56   29   51 1
    57   29   52 1
@<TRIPOS>MOLECULE
ZINC63547033
   52    56     0     0     0
SMALL
USER_CHARGES

@<TRIPOS>ATOM
      1 C1         -0.0162    1.3457    0.0094 C.2       1 <0>        -0.2250
      2 C2          1.3218    1.7769   -0.0010 C.2       1 <0>        -0.0250
      3 C3          2.0956    0.6543   -0.0144 C.2       1 <0>        -0.1103
      4 O1          1.2778   -0.4173   -0.0124 O.3       1 <0>        -0.1692
      5 C4          0.0021   -0.0041    0.0020 C.2       1 <0>         0.0944
      6 C5          3.5669    0.6189   -0.0291 C.2       1 <0>         0.4517
      7 N1          4.2041   -0.5376   -0.0468 N.pl3     1 <0>        -0.5196
      8 C6          5.5589   -0.5885   -0.0600 C.2       1 <0>         0.2671
      9 C7          6.3616   -1.6750   -0.0777 C.2       1 <0>        -0.2187
     10 C8          7.7842   -1.1656   -0.0858 C.3       1 <0>         0.0908
     11 H1          8.3000   -1.4912   -0.9892 H         1 <0>         0.1749
     12 N2          7.6499    0.3013   -0.0705 N.3       1 <0>        -0.3858
     13 N3          6.3080    0.5783   -0.0557 N.pl3     1 <0>        -0.3506
     14 C9          5.6798    1.8030   -0.0382 C.2       1 <0>         0.2153
     15 C10         4.3345    1.8654   -0.0302 C.2       1 <0>        -0.2236
     16 C11         6.4951    3.0704   -0.0334 C.3       1 <0>         0.5166
     17 F1          5.6381    4.1761   -0.0151 F         1 <0>        -0.1380
     18 F2          7.3123    3.0949    1.1017 F         1 <0>        -0.1495
     19 F3          7.2916    3.1168   -1.1826 F         1 <0>        -0.1360
     20 C12         8.5206   -1.6419    1.1397 C.2       1 <0>         0.5081
     21 O2          8.9616   -0.8375    1.9331 O.2       1 <0>        -0.5137
     22 N4          8.6893   -2.9618    1.3541 N.am      1 <0>        -0.7155
     23 C13         9.4051   -3.4248    2.5455 C.3       1 <0>         0.1209
     24 C14         9.4558   -4.9540    2.5479 C.3       1 <0>        -0.1050
     25 C15        10.1922   -5.4303    3.7734 C.2       1 <0>         0.0675
     26 C16         9.6487   -5.8116    4.9517 C.ar      1 <0>        -0.1541
     27 C17         8.2623   -5.8931    5.4269 C.ar      1 <0>        -0.0180
     28 C18         8.0251   -6.3217    6.6884 C.ar      1 <0>        -0.0666
     29 C19         9.0689   -6.6886    7.5508 C.ar      1 <0>         0.0509
     30 C20        10.3672   -6.6402    7.1855 C.ar      1 <0>        -0.1838
     31 C21        10.7316   -6.2049    5.8813 C.ar      1 <0>         0.3303
     32 N5         11.8991   -6.0720    5.3002 N.pl3     1 <0>        -0.5716
     33 C22        11.6882   -5.5848    3.9325 C.3       1 <0>         0.0595
     34 Cl1         6.3868   -6.4196    7.2542 Cl        1 <0>        -0.0109
     35 H2         -0.8934    1.9755    0.0252 H         1 <0>         0.1853
     36 H3          1.6695    2.7994    0.0012 H         1 <0>         0.1849
     37 H4         -0.8670   -0.6452    0.0074 H         1 <0>         0.2383
     38 H5          6.0473   -2.7082   -0.0842 H         1 <0>         0.2006
     39 H6          8.1100    0.6981    0.7350 H         1 <0>         0.3869
     40 H7          3.8298    2.8202   -0.0207 H         1 <0>         0.2193
     41 H8          8.3366   -3.6051    0.7196 H         1 <0>         0.4131
     42 H9         10.4202   -3.0277    2.5367 H         1 <0>         0.0880
     43 H10         8.8867   -3.0770    3.4390 H         1 <0>         0.0849
     44 H11         8.4407   -5.3511    2.5567 H         1 <0>         0.1175
     45 H12         9.9742   -5.3017    1.6544 H         1 <0>         0.1245
     46 H13         7.4438   -5.6148    4.7795 H         1 <0>         0.1679
     47 H14         8.8236   -7.0231    8.5480 H         1 <0>         0.1734
     48 H15        11.1338   -6.9333    7.8875 H         1 <0>         0.1741
     49 H16        12.0701   -6.3071    3.2109 H         1 <0>         0.1819
     50 H17        12.1817   -4.6222    3.7986 H         1 <0>         0.1793
     51 H18        12.7586   -6.2669    5.7055 H         1 <0>         0.4610
     52 H19         3.6951   -1.3633   -0.0501 H         1 <0>         0.4619
@<TRIPOS>BOND
     1    1    5 2
     2    1    2 1
     3    1   35 1
     4    2    3 2
     5    2   36 1
     6    3    4 1
     7    3    6 1
     8    4    5 1
     9    5   37 1
    10    6   15 1
    11    6    7 2
    12    7    8 1
    13    7   52 1
    14    8   13 1
    15    8    9 2
    16    9   10 1
    17    9   38 1
    18   10   11 1
    19   10   12 1
    20   10   20 1
    21   12   13 1
    22   12   39 1
    23   13   14 1
    24   14   15 2
    25   14   16 1
    26   15   40 1
    27   16   17 1
    28   16   18 1
    29   16   19 1
    30   20   21 2
    31   20   22 am
    32   22   23 1
    33   22   41 1
    34   23   24 1
    35   23   42 1
    36   23   43 1
    37   24   25 1
    38   24   44 1
    39   24   45 1
    40   25   33 1
    41   25   26 2
    42   26   31 ar
    43   26   27 ar
    44   27   28 ar
    45   27   46 1
    46   28   29 ar
    47   28   34 1
    48   29   30 ar
    49   29   47 1
    50   30   31 ar
    51   30   48 1
    52   31   32 2
    53   32   33 1
    54   32   51 1
    55   33   49 1
    56   33   50 1
@<TRIPOS>MOLECULE
ZINC64604346
   46    49     0     0     0
SMALL
USER_CHARGES

@<TRIPOS>ATOM
      1 C1         -0.0146    1.3820    0.0191 C.ar      1 <0>        -0.0459
      2 C2          0.7776    1.3550    1.1520 C.ar      1 <0>        -0.1564
      3 C3          1.9858    0.6813    1.1375 C.ar      1 <0>         0.1378
      4 C4          2.4030    0.0310   -0.0178 C.ar      1 <0>         0.0519
      5 C5          1.6038    0.0604   -1.1545 C.ar      1 <0>         0.1409
      6 C6          0.3970    0.7363   -1.1321 C.ar      1 <0>        -0.1553
      7 F1          2.0053   -0.5699   -2.2800 F         1 <0>        -0.1225
      8 N1          3.6267   -0.6524   -0.0366 N.am      1 <0>        -0.6748
      9 C7          3.6852   -1.9406    0.3551 C.2       1 <0>         0.5236
     10 O1          2.6663   -2.5364    0.6346 O.2       1 <0>        -0.5123
     11 C8          5.0166   -2.6408    0.4459 C.3       1 <0>        -0.1349
     12 C9          4.8037   -4.0829    0.9105 C.3       1 <0>        -0.0347
     13 C10         6.1351   -4.7831    1.0013 C.2       1 <0>         0.3346
     14 N2          6.9024   -4.8325    2.0546 N.2       1 <0>        -0.5393
     15 C11         8.0079   -5.5360    1.7849 C.2       1 <0>         0.2310
     16 N3          7.9567   -5.9449    0.5498 N.2       1 <0>        -0.3006
     17 O2          6.7310   -5.4665    0.0160 O.3       1 <0>        -0.0643
     18 C12         9.1299   -5.8101    2.7529 C.3       1 <0>        -0.0632
     19 S1          8.7930   -7.3513    3.6483 S.3       1 <0>         0.0693
     20 C13        10.2171   -7.5350    4.7569 C.3       1 <0>         0.2217
     21 H1         10.1081   -8.4371    5.3590 H         1 <0>         0.2747
     22 N4         10.3328   -6.3587    5.6278 N.pl3     1 <0>        -0.4562
     23 C14        11.4868   -5.8068    5.3881 C.ar      1 <0>         0.3160
     24 C15        12.1602   -4.6213    5.9369 C.ar      1 <0>        -0.1110
     25 C16        13.3839   -4.2827    5.4853 C.ar      1 <0>         0.0292
     26 C17        14.0591   -5.0233    4.4965 C.ar      1 <0>         0.0892
     27 C18        13.5308   -6.1274    3.9278 C.ar      1 <0>        -0.1478
     28 C19        12.2003   -6.5899    4.3422 C.ar      1 <0>         0.3183
     29 N5         11.4589   -7.5974    3.9759 N.pl3     1 <0>        -0.4683
     30 Cl1        15.6334   -4.4961    3.9893 Cl        1 <0>         0.0935
     31 F2          2.7594    0.6558    2.2448 F         1 <0>        -0.1262
     32 H2         -0.9593    1.9050    0.0349 H         1 <0>         0.1538
     33 H3          0.4529    1.8609    2.0493 H         1 <0>         0.1518
     34 H4         -0.2246    0.7595   -2.0151 H         1 <0>         0.1529
     35 H5          4.4314   -0.1981   -0.3316 H         1 <0>         0.4149
     36 H6          5.4942   -2.6415   -0.5339 H         1 <0>         0.1115
     37 H7          5.6535   -2.1192    1.1602 H         1 <0>         0.1110
     38 H8          4.3261   -4.0822    1.8903 H         1 <0>         0.1345
     39 H9          4.1668   -4.6046    0.1962 H         1 <0>         0.1283
     40 H10        10.0673   -5.9057    2.2049 H         1 <0>         0.1332
     41 H11         9.2065   -4.9866    3.4629 H         1 <0>         0.1398
     42 H12        11.6773   -4.0251    6.6971 H         1 <0>         0.2190
     43 H13        13.8657   -3.4089    5.8983 H         1 <0>         0.2137
     44 H14        14.0830   -6.6672    3.1727 H         1 <0>         0.2153
     45 H15         9.6702   -6.0492    6.2651 H         1 <0>         0.5016
     46 H16        11.6854   -8.2657    3.3104 H         1 <0>         0.5006
@<TRIPOS>BOND
     1    1    6 ar
     2    1    2 ar
     3    1   32 1
     4    2    3 ar
     5    2   33 1
     6    3    4 ar
     7    3   31 1
     8    4    5 ar
     9    4    8 1
    10    5    6 ar
    11    5    7 1
    12    6   34 1
    13    8    9 am
    14    8   35 1
    15    9   10 2
    16    9   11 1
    17   11   12 1
    18   11   36 1
    19   11   37 1
    20   12   13 1
    21   12   38 1
    22   12   39 1
    23   13   17 1
    24   13   14 2
    25   14   15 1
    26   15   16 2
    27   15   18 1
    28   16   17 1
    29   18   19 1
    30   18   40 1
    31   18   41 1
    32   19   20 1
    33   20   21 1
    34   20   29 1
    35   20   22 1
    36   22   23 2
    37   22   45 1
    38   23   28 ar
    39   23   24 ar
    40   24   25 ar
    41   24   42 1
    42   25   26 ar
    43   25   43 1
    44   26   27 ar
    45   26   30 1
    46   27   28 ar
    47   27   44 1
    48   28   29 2
    49   29   46 1
@<TRIPOS>MOLECULE
ZINC10042455
   53    54     0     0     0
SMALL
USER_CHARGES
N-[1-[[5-bromo-2-(carbamoylmethoxy)phenyl]methyleneaminocarbamoyl]-2-methyl-propyl]-4-chloro-benzamide
@<TRIPOS>ATOM
      1 C1         -7.4589   -2.6355   -1.1873 C.3       1 <0>        -0.1396
      2 C2         -6.1469   -1.8483   -1.1961 C.3       1 <0>        -0.1015
      3 C3         -6.0930   -0.9608   -2.4412 C.3       1 <0>        -0.1509
      4 C4         -6.0682   -0.9742    0.0571 C.3       1 <0>         0.1392
      5 H1         -6.1066   -1.6065    0.9441 H         1 <0>         0.1181
      6 C5         -4.7760   -0.1989    0.0484 C.2       1 <0>         0.5179
      7 O1         -4.7963    1.0141    0.0551 O.2       1 <0>        -0.4532
      8 N1         -3.5977   -0.8530    0.0332 N.am      1 <0>        -0.5834
      9 N2         -2.3964   -0.1323    0.0251 N.2       1 <0>        -0.1778
     10 C6         -1.2617   -0.7623    0.0105 C.2       1 <0>         0.0887
     11 C7          0.0021   -0.0041    0.0020 C.ar      1 <0>        -0.0745
     12 C8          1.2253   -0.6781   -0.0133 C.ar      1 <0>        -0.0226
     13 C9          2.4048    0.0378   -0.0207 C.ar      1 <0>        -0.1335
     14 C10         2.3807    1.4229   -0.0126 C.ar      1 <0>        -0.0328
     15 C11         1.1764    2.1007    0.0021 C.ar      1 <0>        -0.2117
     16 C12        -0.0169    1.3972    0.0097 C.ar      1 <0>         0.1757
     17 O2         -1.2008    2.0630    0.0189 O.3       1 <0>        -0.2457
     18 C13        -1.1421    3.4907    0.0264 C.3       1 <0>         0.0319
     19 C14        -2.5411    4.0509    0.0361 C.2       1 <0>         0.5025
     20 O3         -3.4945    3.3013    0.0365 O.2       1 <0>        -0.4694
     21 N3         -2.7327    5.3850    0.0442 N.am      1 <0>        -0.8577
     22 Br1         4.0606   -0.8752   -0.0414 Br        1 <0>        -0.0425
     23 N4         -7.1975   -0.0410    0.0733 N.am      1 <0>        -0.7038
     24 C15        -8.3858   -0.4299    0.5763 C.2       1 <0>         0.5661
     25 O4         -8.5207   -1.5549    1.0166 O.2       1 <0>        -0.5265
     26 C16        -9.5250    0.5114    0.5927 C.ar      1 <0>        -0.1323
     27 C17        -9.3716    1.8060    0.0930 C.ar      1 <0>        -0.0708
     28 C18       -10.4400    2.6777    0.1048 C.ar      1 <0>        -0.1171
     29 C19       -11.6600    2.2753    0.6229 C.ar      1 <0>        -0.0099
     30 C20       -11.8165    0.9942    1.1257 C.ar      1 <0>        -0.1186
     31 C21       -10.7572    0.1115    1.1131 C.ar      1 <0>        -0.0447
     32 Cl1       -12.9983    3.3809    0.6415 Cl        1 <0>        -0.0595
     33 H2         -8.2991   -1.9412   -1.1753 H         1 <0>         0.0570
     34 H3         -7.5150   -3.2582   -2.0801 H         1 <0>         0.0541
     35 H4         -7.4973   -3.2678   -0.3003 H         1 <0>         0.0672
     36 H5         -5.3068   -2.5426   -1.2082 H         1 <0>         0.0817
     37 H6         -5.1584   -0.4000   -2.4475 H         1 <0>         0.0550
     38 H7         -6.1491   -1.5835   -3.3340 H         1 <0>         0.0623
     39 H8         -6.9332   -0.2665   -2.4292 H         1 <0>         0.0593
     40 H9         -3.5815   -1.8229    0.0278 H         1 <0>         0.3829
     41 H10        -1.2436   -1.8421    0.0045 H         1 <0>         0.1232
     42 H11         1.2479   -1.7579   -0.0189 H         1 <0>         0.1465
     43 H12         3.3082    1.9761   -0.0185 H         1 <0>         0.1394
     44 H13         1.1656    3.1807    0.0080 H         1 <0>         0.1409
     45 H14        -0.6096    3.8279    0.9157 H         1 <0>         0.0917
     46 H15        -0.6180    3.8375   -0.8642 H         1 <0>         0.0918
     47 H16        -1.9702    5.9845    0.0439 H         1 <0>         0.3988
     48 H17        -3.6332    5.7455    0.0505 H         1 <0>         0.4077
     49 H18        -7.0899    0.8567   -0.2780 H         1 <0>         0.4110
     50 H19        -8.4194    2.1225   -0.3064 H         1 <0>         0.1374
     51 H20       -10.3240    3.6778   -0.2861 H         1 <0>         0.1415
     52 H21       -12.7702    0.6860    1.5280 H         1 <0>         0.1427
     53 H22       -10.8807   -0.8874    1.5048 H         1 <0>         0.1477
@<TRIPOS>BOND
     1    1    2 1
     2    1   33 1
     3    1   34 1
     4    1   35 1
     5    2    3 1
     6    2    4 1
     7    2   36 1
     8    3   37 1
     9    3   38 1
    10    3   39 1
    11    4    5 1
    12    4    6 1
    13    4   23 1
    14    6    7 2
    15    6    8 am
    16    8    9 1
    17    8   40 1
    18    9   10 2
    19   10   11 1
    20   10   41 1
    21   11   16 ar
    22   11   12 ar
    23   12   13 ar
    24   12   42 1
    25   13   14 ar
    26   13   22 1
    27   14   15 ar
    28   14   43 1
    29   15   16 ar
    30   15   44 1
    31   16   17 1
    32   17   18 1
    33   18   19 1
    34   18   45 1
    35   18   46 1
    36   19   20 2
    37   19   21 am
    38   21   47 1
    39   21   48 1
    40   23   24 am
    41   23   49 1
    42   24   25 2
    43   24   26 1
    44   26   31 ar
    45   26   27 ar
    46   27   28 ar
    47   27   50 1
    48   28   29 ar
    49   28   51 1
    50   29   30 ar
    51   29   32 1
    52   30   31 ar
    53   30   52 1
    54   31   53 1
@<TRIPOS>MOLECULE
ZINC21323925
   50    52     0     0     0
SMALL
USER_CHARGES
2-[[4-amino-5-[(N'E)-N'-[(E)-1-methyl-3-phenyl-prop-2-enylidene]hydrazino]-1,2,4-triazol-3-yl]sulfanyl]-N-(2-bromophenyl)acetamide
@<TRIPOS>ATOM
      1 C1          3.6293    6.4263   -0.0829 C.3       1 <0>        -0.1554
      2 C2          2.3303    5.6625   -0.0721 C.2       1 <0>         0.1132
      3 N1          1.1964    6.3052   -0.0486 N.2       1 <0>        -0.2012
      4 N2          1.1854    7.7061   -0.0335 N.pl3     1 <0>        -0.5565
      5 C3         -0.0207    8.3898   -0.0086 C.2       1 <0>         0.4491
      6 N3         -1.2174    7.8565    0.0037 N.2       1 <0>        -0.2836
      7 N4         -2.1110    8.7797    0.0264 N.2       1 <0>        -0.2679
      8 C4         -1.5389    9.9592    0.0301 C.2       1 <0>         0.1139
      9 N5         -0.1850    9.7513    0.0139 N.pl3     1 <0>        -0.2430
     10 N6          0.7964   10.7015    0.0170 N.3       1 <0>        -0.7686
     11 S1         -2.3577   11.5191    0.0584 S.3       1 <0>         0.0785
     12 C5         -4.0819   10.9688    0.0790 C.3       1 <0>        -0.1463
     13 C6         -4.9922   12.1695    0.1050 C.2       1 <0>         0.5411
     14 O1         -4.5216   13.2873    0.1092 O.2       1 <0>        -0.5066
     15 N7         -6.3293   12.0011    0.1236 N.am      1 <0>        -0.6789
     16 C7         -7.1728   13.1116    0.2426 C.ar      1 <0>         0.1787
     17 C8         -6.8213   14.3188   -0.3467 C.ar      1 <0>        -0.1179
     18 C9         -7.6577   15.4118   -0.2308 C.ar      1 <0>        -0.0844
     19 C10        -8.8400   15.3079    0.4790 C.ar      1 <0>        -0.1283
     20 C11        -9.1912   14.1090    1.0713 C.ar      1 <0>        -0.0726
     21 C12        -8.3610   13.0101    0.9555 C.ar      1 <0>        -0.1208
     22 Br1        -8.8412   11.3710    1.7669 Br        1 <0>        -0.0418
     23 C13         2.3413    4.2457   -0.0874 C.2       1 <0>        -0.1291
     24 C14         1.1781    3.5617   -0.0777 C.2       1 <0>        -0.0494
     25 C15         1.1896    2.0901   -0.0936 C.ar      1 <0>        -0.0691
     26 C16        -0.0138    1.3777   -0.0837 C.ar      1 <0>        -0.0982
     27 C17         0.0053   -0.0009   -0.0992 C.ar      1 <0>        -0.1215
     28 C18         1.2112   -0.6797   -0.1245 C.ar      1 <0>        -0.1133
     29 C19         2.4064    0.0182   -0.1340 C.ar      1 <0>        -0.1222
     30 C20         2.4039    1.3970   -0.1188 C.ar      1 <0>        -0.1069
     31 H1          4.4708    5.7182   -0.1028 H         1 <0>         0.0890
     32 H2          3.6957    7.0495    0.8211 H         1 <0>         0.0754
     33 H3          3.6695    7.0688   -0.9749 H         1 <0>         0.0755
     34 H4          2.1336    8.2637   -0.0414 H         1 <0>         0.4085
     35 H5          0.5290   11.7683    0.0362 H         1 <0>         0.4517
     36 H6          1.8541   10.3998    0.0003 H         1 <0>         0.4394
     37 H7         -4.2872   10.3725   -0.8222 H         1 <0>         0.1344
     38 H8         -4.2600   10.3542    0.9737 H         1 <0>         0.1349
     39 H9         -6.7576   10.9909    0.0453 H         1 <0>         0.4423
     40 H10        -5.8964   14.4020   -0.8982 H         1 <0>         0.1484
     41 H11        -7.3860   16.3500   -0.6917 H         1 <0>         0.1340
     42 H12        -9.4903   16.1652    0.5712 H         1 <0>         0.1341
     43 H13       -10.1151   14.0311    1.6253 H         1 <0>         0.1372
     44 H14         3.2981    3.7034   -0.1072 H         1 <0>         0.1383
     45 H15         0.2213    4.1040   -0.0579 H         1 <0>         0.1400
     46 H16        -0.9557    1.9060   -0.0684 H         1 <0>         0.1277
     47 H17        -0.9232   -0.5526   -0.0919 H         1 <0>         0.1250
     48 H18         1.2196   -1.7596   -0.1365 H         1 <0>         0.1228
     49 H19         3.3433   -0.5186   -0.1531 H         1 <0>         0.1241
     50 H20         3.3374    1.9402   -0.1259 H         1 <0>         0.1262
@<TRIPOS>BOND
     1    1    2 1
     2    1   31 1
     3    1   32 1
     4    1   33 1
     5    2    3 2
     6    2   23 1
     7    3    4 1
     8    4    5 1
     9    4   34 1
    10    5    9 1
    11    5    6 2
    12    6    7 1
    13    7    8 2
    14    8    9 1
    15    8   11 1
    16    9   10 1
    17   10   35 1
    18   10   36 1
    19   11   12 1
    20   12   13 1
    21   12   37 1
    22   12   38 1
    23   13   14 2
    24   13   15 am
    25   15   16 1
    26   15   39 1
    27   16   21 ar
    28   16   17 ar
    29   17   18 ar
    30   17   40 1
    31   18   19 ar
    32   18   41 1
    33   19   20 ar
    34   19   42 1
    35   20   21 ar
    36   20   43 1
    37   21   22 1
    38   23   24 2
    39   23   44 1
    40   24   25 1
    41   24   45 1
    42   25   30 ar
    43   25   26 ar
    44   26   27 ar
    45   26   46 1
    46   27   28 ar
    47   27   47 1
    48   28   29 ar
    49   28   48 1
    50   29   30 ar
    51   29   49 1
    52   30   50 1
@<TRIPOS>MOLECULE
ZINC36543470
   59    61     0     0     0
SMALL
USER_CHARGES

@<TRIPOS>ATOM
      1 C1          0.6224   -1.7522    1.1819 C.3       1 <0>        -0.1545
      2 C2          1.3739   -2.8028    0.3618 C.3       1 <0>         0.1745
      3 C3          2.6741   -3.1742    1.0776 C.3       1 <0>        -0.1635
      4 C4          0.5015   -4.0504    0.2092 C.3       1 <0>        -0.1562
      5 N1          1.6838   -2.2586   -0.9626 N.am      1 <0>        -0.7136
      6 C5          2.4449   -1.1520   -1.0752 C.2       1 <0>         0.5308
      7 O1          2.8733   -0.6068   -0.0801 O.2       1 <0>        -0.5225
      8 C6          2.7637   -0.5922   -2.4375 C.3       1 <0>         0.1779
      9 H1          3.2954   -1.3421   -3.0232 H         1 <0>         0.1348
     10 C7          1.4833   -0.2211   -3.1403 C.ar      1 <0>        -0.1736
     11 C8          1.3481   -0.4495   -4.5014 C.ar      1 <0>         0.1744
     12 C9          0.1699   -0.1080   -5.1481 C.ar      1 <0>        -0.1827
     13 C10        -0.8734    0.4615   -4.4336 C.ar      1 <0>         0.1584
     14 C11        -0.7385    0.6890   -3.0723 C.ar      1 <0>        -0.1825
     15 C12         0.4382    0.3436   -2.4248 C.ar      1 <0>         0.1652
     16 O2          0.5686    0.5622   -1.0899 O.3       1 <0>        -0.4798
     17 O3         -2.0276    0.7969   -5.0675 O.3       1 <0>        -0.4931
     18 O4          2.3704   -1.0075   -5.2016 O.3       1 <0>        -0.4819
     19 N2          3.6037    0.5992   -2.2916 N.am      1 <0>        -0.5389
     20 C13         3.0726    1.7649   -1.7290 C.ar      1 <0>         0.1295
     21 C14         3.2046    2.0030   -0.3673 C.ar      1 <0>        -0.0787
     22 C15         2.6797    3.1549    0.1851 C.ar      1 <0>        -0.1188
     23 C16         2.0226    4.0710   -0.6159 C.ar      1 <0>        -0.0964
     24 C17         1.8890    3.8378   -1.9722 C.ar      1 <0>        -0.1174
     25 C18         2.4169    2.6898   -2.5326 C.ar      1 <0>        -0.0409
     26 Cl1         2.2547    2.4005   -4.2366 Cl        1 <0>        -0.0455
     27 C19         4.8880    0.5723   -2.6993 C.2       1 <0>         0.5817
     28 O5          5.3253   -0.4103   -3.2668 O.2       1 <0>        -0.4991
     29 C20         5.7632    1.7347   -2.4572 C.ar      1 <0>        -0.1559
     30 C21         5.9068    2.2492   -1.1662 C.ar      1 <0>        -0.0707
     31 C22         6.7263    3.3350   -0.9466 C.ar      1 <0>        -0.1326
     32 C23         7.4089    3.9201   -2.0007 C.ar      1 <0>        -0.0796
     33 C24         7.2757    3.4220   -3.2814 C.ar      1 <0>        -0.1517
     34 C25         6.4600    2.3258   -3.5198 C.ar      1 <0>         0.1585
     35 O6          6.3329    1.8316   -4.7767 O.3       1 <0>        -0.4830
     36 H2          1.2439   -0.8634    1.2906 H         1 <0>         0.0799
     37 H3         -0.3039   -1.4877    0.6719 H         1 <0>         0.0554
     38 H4          0.3918   -2.1571    2.1672 H         1 <0>         0.0552
     39 H5          2.4436   -3.5791    2.0630 H         1 <0>         0.0618
     40 H6          3.2095   -3.9226    0.4934 H         1 <0>         0.0519
     41 H7          3.2957   -2.2853    1.1864 H         1 <0>         0.0778
     42 H8         -0.4248   -3.7858   -0.3008 H         1 <0>         0.0607
     43 H9          1.0369   -4.7989   -0.3750 H         1 <0>         0.0604
     44 H10         0.2709   -4.4553    1.1946 H         1 <0>         0.0734
     45 H11         1.3412   -2.6946   -1.7584 H         1 <0>         0.3945
     46 H12         0.0648   -0.2852   -6.2083 H         1 <0>         0.1401
     47 H13        -1.5508    1.1329   -2.5159 H         1 <0>         0.1385
     48 H14         0.9297    1.4312   -0.8672 H         1 <0>         0.3873
     49 H15        -2.6868    0.0897   -5.0846 H         1 <0>         0.3972
     50 H16         2.3835   -1.9741   -5.1754 H         1 <0>         0.3953
     51 H17         3.7169    1.2880    0.2593 H         1 <0>         0.1576
     52 H18         2.7822    3.3404    1.2441 H         1 <0>         0.1378
     53 H19         1.6125    4.9705   -0.1810 H         1 <0>         0.1376
     54 H20         1.3753    4.5552   -2.5949 H         1 <0>         0.1383
     55 H21         5.3761    1.7968   -0.3415 H         1 <0>         0.1361
     56 H22         6.8366    3.7319    0.0517 H         1 <0>         0.1319
     57 H23         8.0488    4.7710   -1.8195 H         1 <0>         0.1320
     58 H24         7.8106    3.8840   -4.0981 H         1 <0>         0.1359
     59 H25         5.6146    2.2315   -5.2859 H         1 <0>         0.3909
@<TRIPOS>BOND
     1    1    2 1
     2    1   36 1
     3    1   37 1
     4    1   38 1
     5    2    3 1
     6    2    4 1
     7    2    5 1
     8    3   39 1
     9    3   40 1
    10    3   41 1
    11    4   42 1
    12    4   43 1
    13    4   44 1
    14    5    6 am
    15    5   45 1
    16    6    7 2
    17    6    8 1
    18    8    9 1
    19    8   10 1
    20    8   19 1
    21   10   15 ar
    22   10   11 ar
    23   11   12 ar
    24   11   18 1
    25   12   13 ar
    26   12   46 1
    27   13   14 ar
    28   13   17 1
    29   14   15 ar
    30   14   47 1
    31   15   16 1
    32   16   48 1
    33   17   49 1
    34   18   50 1
    35   19   20 1
    36   19   27 am
    37   20   25 ar
    38   20   21 ar
    39   21   22 ar
    40   21   51 1
    41   22   23 ar
    42   22   52 1
    43   23   24 ar
    44   23   53 1
    45   24   25 ar
    46   24   54 1
    47   25   26 1
    48   27   28 2
    49   27   29 1
    50   29   34 ar
    51   29   30 ar
    52   30   31 ar
    53   30   55 1
    54   31   32 ar
    55   31   56 1
    56   32   33 ar
    57   32   57 1
    58   33   34 ar
    59   33   58 1
    60   34   35 1
    61   35   59 1
@<TRIPOS>MOLECULE
ZINC39125168
   71    73     0     0     0
SMALL
USER_CHARGES

@<TRIPOS>ATOM
      1 C1         -1.1067   -1.8860    1.9664 C.3       1 <0>        -0.1512
      2 C2         -0.4287   -1.2421    0.7554 C.3       1 <0>        -0.1412
      3 C3          0.0649   -2.3356   -0.1941 C.3       1 <0>         0.1220
      4 N1          0.7141   -1.7190   -1.3537 N.pl3     1 <0>        -0.7059
      5 C4          1.3618   -2.5048   -2.2773 C.2       1 <0>         0.4831
      6 C5          1.3150   -3.8800   -2.1791 C.2       1 <0>        -0.1433
      7 C6          1.9900   -4.6534   -3.1426 C.2       1 <0>         0.5678
      8 O1          1.9646   -5.8709   -3.0797 O.2       1 <0>        -0.5088
      9 N2          2.6638   -4.0397   -4.1348 N.am      1 <0>        -0.5565
     10 C7          2.6989   -2.6977   -4.2152 C.2       1 <0>         0.7075
     11 O2          3.3147   -2.1700   -5.1213 O.2       1 <0>        -0.5189
     12 N3          2.0604   -1.9285   -3.3148 N.am      1 <0>        -0.4918
     13 C8          2.1111   -0.5331   -3.4302 C.ar      1 <0>         0.1017
     14 C9          3.0763    0.1876   -2.7393 C.ar      1 <0>        -0.0958
     15 C10         3.1239    1.5628   -2.8554 C.ar      1 <0>        -0.1105
     16 C11         2.2114    2.2224   -3.6585 C.ar      1 <0>        -0.0931
     17 C12         1.2492    1.5077   -4.3477 C.ar      1 <0>        -0.0778
     18 C13         1.2000    0.1314   -4.2401 C.ar      1 <0>        -0.0567
     19 C14         0.1549   -0.6475   -4.9965 C.3       1 <0>        -0.1197
     20 C15         0.2568    2.2303   -5.2217 C.3       1 <0>        -0.1187
     21 C16         3.3670   -4.8436   -5.1376 C.3       1 <0>         0.0826
     22 N4          0.6034   -4.5007   -1.1310 N.am      1 <0>        -0.6411
     23 C17         1.2551   -5.2765   -0.2398 C.2       1 <0>         0.5149
     24 O3          2.4637   -5.3711   -0.2875 O.2       1 <0>        -0.4879
     25 C18         0.4817   -6.0254    0.8147 C.3       1 <0>         0.0478
     26 O4          1.3878   -6.7700    1.6312 O.3       1 <0>        -0.2866
     27 C19         0.8480   -7.5072    2.6386 C.ar      1 <0>         0.0766
     28 C20        -0.5257   -7.5167    2.8314 C.ar      1 <0>        -0.1624
     29 C21        -1.0745   -8.2646    3.8543 C.ar      1 <0>        -0.1302
     30 C22        -0.2509   -9.0078    4.6898 C.ar      1 <0>         0.1897
     31 C23         1.1238   -8.9981    4.4957 C.ar      1 <0>        -0.1250
     32 C24         1.6708   -8.2536    3.4688 C.ar      1 <0>        -0.0657
     33 C25         3.1624   -8.2474    3.2544 C.3       1 <0>        -0.1099
     34 C26         2.0186   -9.8042    5.4017 C.3       1 <0>        -0.1075
     35 N5         -0.8062   -9.7656    5.7269 N.pl3     1 <0>        -0.8798
     36 C27        -2.5668   -8.2739    4.0643 C.3       1 <0>        -0.1052
     37 H1         -1.9529   -2.4864    1.6324 H         1 <0>         0.0604
     38 H2         -0.3918   -2.5235    2.4867 H         1 <0>         0.0603
     39 H3         -1.4583   -1.1070    2.6428 H         1 <0>         0.0653
     40 H4         -1.1435   -0.6046    0.2351 H         1 <0>         0.0722
     41 H5          0.4176   -0.6418    1.0894 H         1 <0>         0.0729
     42 H6          0.7798   -2.9731    0.3262 H         1 <0>         0.0832
     43 H7         -0.7814   -2.9359   -0.5281 H         1 <0>         0.0716
     44 H8          0.6870   -0.7564   -1.4697 H         1 <0>         0.4096
     45 H9          3.7887   -0.3269   -2.1114 H         1 <0>         0.1298
     46 H10         3.8744    2.1239   -2.3183 H         1 <0>         0.1355
     47 H11         2.2502    3.2981   -3.7472 H         1 <0>         0.1331
     48 H12        -0.7401   -0.7461   -4.3823 H         1 <0>         0.0758
     49 H13        -0.0933   -0.1219   -5.9186 H         1 <0>         0.0806
     50 H14         0.5423   -1.6378   -5.2358 H         1 <0>         0.0622
     51 H15         0.6567    2.3152   -6.2321 H         1 <0>         0.0766
     52 H16        -0.6791    1.6721   -5.2470 H         1 <0>         0.0714
     53 H17         0.0749    3.2264   -4.8180 H         1 <0>         0.0722
     54 H18         3.2305   -5.9020   -4.9156 H         1 <0>         0.1043
     55 H19         2.9639   -4.6248   -6.1264 H         1 <0>         0.0776
     56 H20         4.4297   -4.6021   -5.1169 H         1 <0>         0.0777
     57 H21        -0.3544   -4.3698   -1.0510 H         1 <0>         0.4034
     58 H22        -0.0674   -5.3167    1.4346 H         1 <0>         0.0879
     59 H23        -0.2197   -6.7080    0.3348 H         1 <0>         0.0923
     60 H24        -1.1660   -6.9386    2.1817 H         1 <0>         0.1253
     61 H25         3.6100   -7.4426    3.8377 H         1 <0>         0.0687
     62 H26         3.5793   -9.2026    3.5735 H         1 <0>         0.0657
     63 H27         3.3769   -8.0924    2.1970 H         1 <0>         0.0745
     64 H28         2.1506  -10.8034    4.9866 H         1 <0>         0.0687
     65 H29         2.9886   -9.3140    5.4841 H         1 <0>         0.0720
     66 H30         1.5637   -9.8782    6.3894 H         1 <0>         0.0608
     67 H31        -1.7667   -9.7719    5.8624 H         1 <0>         0.3959
     68 H32        -0.2307  -10.2846    6.3102 H         1 <0>         0.3965
     69 H33        -3.0107   -9.0809    3.4813 H         1 <0>         0.0670
     70 H34        -2.7841   -8.4272    5.1213 H         1 <0>         0.0605
     71 H35        -2.9850   -7.3203    3.7420 H         1 <0>         0.0659
@<TRIPOS>BOND
     1    1    2 1
     2    1   37 1
     3    1   38 1
     4    1   39 1
     5    2    3 1
     6    2   40 1
     7    2   41 1
     8    3    4 1
     9    3   42 1
    10    3   43 1
    11    4    5 1
    12    4   44 1
    13    5   12 1
    14    5    6 2
    15    6    7 1
    16    6   22 1
    17    7    8 2
    18    7    9 am
    19    9   10 am
    20    9   21 1
    21   10   11 2
    22   10   12 am
    23   12   13 1
    24   13   18 ar
    25   13   14 ar
    26   14   15 ar
    27   14   45 1
    28   15   16 ar
    29   15   46 1
    30   16   17 ar
    31   16   47 1
    32   17   18 ar
    33   17   20 1
    34   18   19 1
    35   19   48 1
    36   19   49 1
    37   19   50 1
    38   20   51 1
    39   20   52 1
    40   20   53 1
    41   21   54 1
    42   21   55 1
    43   21   56 1
    44   22   23 am
    45   22   57 1
    46   23   24 2
    47   23   25 1
    48   25   26 1
    49   25   58 1
    50   25   59 1
    51   26   27 1
    52   27   32 ar
    53   27   28 ar
    54   28   29 ar
    55   28   60 1
    56   29   30 ar
    57   29   36 1
    58   30   31 ar
    59   30   35 1
    60   31   32 ar
    61   31   34 1
    62   32   33 1
    63   33   61 1
    64   33   62 1
    65   33   63 1
    66   34   64 1
    67   34   65 1
    68   34   66 1
    69   35   67 1
    70   35   68 1
    71   36   69 1
    72   36   70 1
    73   36   71 1
@<TRIPOS>MOLECULE
ZINC59879732
   61    65     0     0     0
SMALL
USER_CHARGES

@<TRIPOS>ATOM
      1 C1         -0.0534    1.6019    0.0320 C.3       1 <0>        -0.1463
      2 C2         -0.0257    0.0722    0.0399 C.3       1 <0>        -0.1174
      3 H1          0.4916   -0.2864   -0.8500 H         1 <0>         0.1252
      4 C3          0.6980   -0.4107    1.2704 C.2       1 <0>         0.5408
      5 O1          0.0678   -0.7913    2.2343 O.2       1 <0>        -0.5170
      6 N1          2.0454   -0.4197    1.2999 N.am      1 <0>        -0.5165
      7 N2          2.7181   -0.8686    2.4439 N.am      1 <0>        -0.5219
      8 C4          4.0655   -0.8776    2.4733 C.2       1 <0>         0.5184
      9 O2          4.6956   -0.4971    1.5094 O.2       1 <0>        -0.5347
     10 C5          4.7891   -1.3605    3.7038 C.3       1 <0>        -0.1018
     11 C6          6.2993   -1.2682    3.4766 C.3       1 <0>        -0.1347
     12 C7          4.3991   -0.4894    4.8996 C.3       1 <0>        -0.1501
     13 S1         -1.7247   -0.5633    0.0491 S.3       1 <0>         0.1167
     14 C8         -2.3824   -0.0440   -1.5009 C.2       1 <0>         0.2199
     15 N3         -3.6236   -0.2834   -1.9378 N.2       1 <0>        -0.5218
     16 C9         -3.7819    0.2453   -3.1329 C.2       1 <0>         0.5621
     17 N4         -2.6221    0.8409   -3.4823 N.pl3     1 <0>        -0.5027
     18 N5         -1.7359    0.6449   -2.4109 N.2       1 <0>        -0.3193
     19 N6         -4.9343    0.1981   -3.8969 N.pl3     1 <0>        -0.5562
     20 N7         -6.0720   -0.4579   -3.4088 N.2       1 <0>        -0.2026
     21 C10        -7.1383   -0.5016   -4.1158 C.2       1 <0>         0.1217
     22 C11        -8.3345   -1.1912   -3.6026 C.ar      1 <0>        -0.0559
     23 C12        -9.5998   -1.1349   -4.3565 C.ar      1 <0>        -0.0920
     24 C13       -10.6754   -1.7485   -3.9069 C.ar      1 <0>        -0.1028
     25 C14       -10.6128   -2.4970   -2.6401 C.ar      1 <0>        -0.0351
     26 C15       -11.7975   -3.1939   -2.1109 C.ar      1 <0>        -0.1079
     27 C16       -11.7209   -3.8595   -0.9746 C.ar      1 <0>        -0.0946
     28 C17       -10.4504   -3.9080   -0.2312 C.ar      1 <0>        -0.0505
     29 C18       -10.3418   -4.6455    1.0390 C.ar      1 <0>        -0.1040
     30 C19        -9.1925   -4.6720    1.6824 C.ar      1 <0>        -0.1138
     31 C20        -8.0145   -3.9700    1.1419 C.ar      1 <0>        -0.0981
     32 C21        -8.1084   -3.3107    0.0078 C.ar      1 <0>        -0.0497
     33 C22        -9.3977   -3.2857   -0.7062 C.ar      1 <0>        -0.0318
     34 C23        -9.4832   -2.5428   -1.9746 C.ar      1 <0>        -0.0402
     35 C24        -8.2742   -1.8630   -2.4736 C.ar      1 <0>         0.0112
     36 C25        -7.0281   -1.9452   -1.6971 C.ar      1 <0>        -0.1369
     37 C26        -6.9544   -2.5991   -0.5619 C.ar      1 <0>        -0.0916
     38 H2          0.9675    1.9838    0.0264 H         1 <0>         0.0729
     39 H3         -0.5767    1.9512   -0.8581 H         1 <0>         0.0866
     40 H4         -0.5706    1.9606    0.9218 H         1 <0>         0.0772
     41 H5          2.5494   -0.1153    0.5290 H         1 <0>         0.4345
     42 H6          2.2141   -1.1730    3.2147 H         1 <0>         0.4337
     43 H7          4.5144   -2.3962    3.9038 H         1 <0>         0.1058
     44 H8          6.5740   -0.2325    3.2765 H         1 <0>         0.0646
     45 H9          6.8227   -1.6175    4.3666 H         1 <0>         0.0684
     46 H10         6.5772   -1.8888    2.6247 H         1 <0>         0.0644
     47 H11         3.3232   -0.5552    5.0615 H         1 <0>         0.0620
     48 H12         4.9225   -0.8387    5.7896 H         1 <0>         0.0755
     49 H13         4.6738    0.5463    4.6996 H         1 <0>         0.0643
     50 H14        -4.9546    0.6191   -4.7705 H         1 <0>         0.4001
     51 H15        -7.1609   -0.0328   -5.0885 H         1 <0>         0.1283
     52 H16        -9.6457   -0.5857   -5.2853 H         1 <0>         0.1341
     53 H17       -11.5991   -1.7025   -4.4646 H         1 <0>         0.1365
     54 H18       -12.7305   -3.1597   -2.6539 H         1 <0>         0.1339
     55 H19       -12.5912   -4.3694   -0.5886 H         1 <0>         0.1332
     56 H20       -11.2007   -5.1619    1.4413 H         1 <0>         0.1303
     57 H21        -9.1129   -5.2125    2.6140 H         1 <0>         0.1298
     58 H22        -7.0763   -3.9968    1.6762 H         1 <0>         0.1325
     59 H23        -6.1477   -1.4413   -2.0677 H         1 <0>         0.1931
     60 H24        -6.0134   -2.6219   -0.0324 H         1 <0>         0.1308
     61 H25        -2.4381    1.3137   -4.3090 H         1 <0>         0.4395
@<TRIPOS>BOND
     1    1    2 1
     2    1   38 1
     3    1   39 1
     4    1   40 1
     5    2    3 1
     6    2    4 1
     7    2   13 1
     8    4    5 2
     9    4    6 am
    10    6    7 1
    11    6   41 1
    12    7    8 am
    13    7   42 1
    14    8    9 2
    15    8   10 1
    16   10   11 1
    17   10   12 1
    18   10   43 1
    19   11   44 1
    20   11   45 1
    21   11   46 1
    22   12   47 1
    23   12   48 1
    24   12   49 1
    25   13   14 1
    26   14   18 2
    27   14   15 1
    28   15   16 2
    29   16   17 1
    30   16   19 1
    31   17   18 1
    32   17   61 1
    33   19   20 1
    34   19   50 1
    35   20   21 2
    36   21   22 1
    37   21   51 1
    38   22   35 ar
    39   22   23 ar
    40   23   24 ar
    41   23   52 1
    42   24   25 ar
    43   24   53 1
    44   25   34 ar
    45   25   26 ar
    46   26   27 ar
    47   26   54 1
    48   27   28 ar
    49   27   55 1
    50   28   33 ar
    51   28   29 ar
    52   29   30 ar
    53   29   56 1
    54   30   31 ar
    55   30   57 1
    56   31   32 ar
    57   31   58 1
    58   32   37 ar
    59   32   33 ar
    60   33   34 ar
    61   34   35 ar
    62   35   36 ar
    63   36   37 ar
    64   36   59 1
    65   37   60 1
@<TRIPOS>MOLECULE
ZINC12869117
   56    58     0     0     0
SMALL
USER_CHARGES
N-(2,5-dimethylphenyl)-N-[(1S)-2-(1,1-dimethylpropylamino)-2-oxo-1-(2-thienyl)ethyl]thiadiazole-4-carboxamide
@<TRIPOS>ATOM
      1 C1         -8.6290    2.8262   -3.8226 C.3       1 <0>        -0.1528
      2 C2         -7.2495    3.4842   -3.7516 C.3       1 <0>        -0.1258
      3 C3         -6.5704    3.1041   -2.4342 C.3       1 <0>         0.1765
      4 C4         -6.4148    1.5838   -2.3608 C.3       1 <0>        -0.1651
      5 C5         -7.4265    3.5864   -1.2615 C.3       1 <0>        -0.1635
      6 N1         -5.2496    3.7341   -2.3662 N.am      1 <0>        -0.7161
      7 C6         -4.4646    3.5388   -1.2881 C.2       1 <0>         0.5193
      8 O1         -4.8517    2.8416   -0.3744 O.2       1 <0>        -0.5003
      9 C7         -3.1059    4.1869   -1.2181 C.3       1 <0>         0.2237
     10 H1         -2.4960    3.8433   -2.0536 H         1 <0>         0.1326
     11 C8         -3.2592    5.6843   -1.2904 C.2       1 <0>        -0.1931
     12 C9         -3.0911    6.5092   -2.3528 C.2       1 <0>        -0.1345
     13 C10        -3.2885    7.8670   -2.1850 C.2       1 <0>        -0.1672
     14 C11        -3.6444    8.3334   -0.9630 C.2       1 <0>        -0.2099
     15 S1         -3.7169    6.8312   -0.0011 S.3       1 <0>         0.1571
     16 N2         -2.4557    3.8229    0.0433 N.am      1 <0>        -0.5373
     17 C12        -1.2364    3.1379    0.0293 C.ar      1 <0>         0.1361
     18 C13        -0.0408    3.8450    0.0213 C.ar      1 <0>        -0.0913
     19 C14         1.1613    3.1656    0.0071 C.ar      1 <0>        -0.0807
     20 C15         1.1757    1.7826    0.0004 C.ar      1 <0>        -0.0995
     21 C16        -0.0126    1.0758    0.0080 C.ar      1 <0>        -0.1074
     22 C17        -1.2185    1.7494    0.0173 C.ar      1 <0>        -0.0613
     23 C18        -2.5132    0.9782    0.0197 C.3       1 <0>        -0.1243
     24 C19         2.4589    3.9319   -0.0017 C.3       1 <0>        -0.1129
     25 C20        -3.0325    4.1483    1.2171 C.2       1 <0>         0.6195
     26 O2         -4.0926    4.7440    1.2293 O.2       1 <0>        -0.4800
     27 C21        -2.3782    3.7821    2.4864 C.2       1 <0>        -0.0282
     28 C22        -2.9086    4.0815    3.7331 C.2       1 <0>        -0.1958
     29 S2         -1.7031    3.4045    4.7766 S.3       1 <0>         0.4041
     30 N3         -0.7062    2.8430    3.6903 N.2       1 <0>        -0.2515
     31 N4         -1.2251    3.1277    2.5517 N.2       1 <0>        -0.2088
     32 H2         -9.1127    3.0970   -4.7611 H         1 <0>         0.0584
     33 H3         -8.5181    1.7431   -3.7703 H         1 <0>         0.0608
     34 H4         -9.2389    3.1698   -2.9871 H         1 <0>         0.0612
     35 H5         -7.3604    4.5672   -3.8039 H         1 <0>         0.0683
     36 H6         -6.6396    3.1406   -4.5871 H         1 <0>         0.0679
     37 H7         -5.9310    1.3130   -1.4223 H         1 <0>         0.0770
     38 H8         -7.3976    1.1151   -2.4114 H         1 <0>         0.0670
     39 H9         -5.8049    1.2402   -3.1963 H         1 <0>         0.0533
     40 H10        -7.5374    4.6694   -1.3138 H         1 <0>         0.0534
     41 H11        -8.4093    3.1176   -1.3121 H         1 <0>         0.0646
     42 H12        -6.9428    3.3156   -0.3230 H         1 <0>         0.0794
     43 H13        -4.9399    4.2917   -3.0970 H         1 <0>         0.3989
     44 H14        -2.8068    6.1117   -3.3158 H         1 <0>         0.1313
     45 H15        -3.1615    8.5460   -3.0151 H         1 <0>         0.1290
     46 H16        -3.8379    9.3497   -0.6528 H         1 <0>         0.1792
     47 H17        -0.0514    4.9249    0.0257 H         1 <0>         0.1178
     48 H18         2.1172    1.2536   -0.0111 H         1 <0>         0.1223
     49 H19         0.0021   -0.0041    0.0020 H         1 <0>         0.1231
     50 H20        -2.8204    0.7870    1.0479 H         1 <0>         0.0636
     51 H21        -3.2833    1.5596   -0.4874 H         1 <0>         0.0835
     52 H22        -2.3725    0.0303   -0.4997 H         1 <0>         0.0622
     53 H23         2.7620    4.1215   -1.0314 H         1 <0>         0.0696
     54 H24         2.3242    4.8805    0.5179 H         1 <0>         0.0633
     55 H25         3.2292    3.3479    0.5020 H         1 <0>         0.0674
     56 H26        -3.8241    4.5964    3.9844 H         1 <0>         0.2160
@<TRIPOS>BOND
     1    1    2 1
     2    1   32 1
     3    1   33 1
     4    1   34 1
     5    2    3 1
     6    2   35 1
     7    2   36 1
     8    3    4 1
     9    3    5 1
    10    3    6 1
    11    4   37 1
    12    4   38 1
    13    4   39 1
    14    5   40 1
    15    5   41 1
    16    5   42 1
    17    6    7 am
    18    6   43 1
    19    7    8 2
    20    7    9 1
    21    9   10 1
    22    9   11 1
    23    9   16 1
    24   11   15 1
    25   11   12 2
    26   12   13 1
    27   12   44 1
    28   13   14 2
    29   13   45 1
    30   14   15 1
    31   14   46 1
    32   16   17 1
    33   16   25 am
    34   17   22 ar
    35   17   18 ar
    36   18   19 ar
    37   18   47 1
    38   19   20 ar
    39   19   24 1
    40   20   21 ar
    41   20   48 1
    42   21   22 ar
    43   21   49 1
    44   22   23 1
    45   23   50 1
    46   23   51 1
    47   23   52 1
    48   24   53 1
    49   24   54 1
    50   24   55 1
    51   25   26 2
    52   25   27 1
    53   27   31 1
    54   27   28 2
    55   28   29 1
    56   28   56 1
    57   29   30 1
    58   30   31 2
@<TRIPOS>MOLECULE
ZINC20363148
   60    63     0     0     0
SMALL
USER_CHARGES
O3-benzyl O6-methyl (4R,6S,7R)-4-(2-fluorophenyl)-2,7-dimethyl-5-oxo-4,6,7,8-tetrahydro-1H-quinoline-3,6-dicarboxylate
@<TRIPOS>ATOM
      1 C1         -2.5205   -3.7330    8.5230 C.3       1 <0>        -0.1598
      2 C2         -1.9755   -3.1022    7.2401 C.3       1 <0>        -0.0634
      3 H1         -2.8205   -2.8530    6.5814 H         1 <0>         0.0947
      4 C3         -1.0381   -4.0860    6.5364 C.3       1 <0>        -0.0939
      5 C4         -0.4656   -3.4424    5.2979 C.2       1 <0>         0.2298
      6 C5         -0.2593   -2.1097    5.2388 C.2       1 <0>        -0.2778
      7 C6          0.3248   -1.4749    4.0019 C.3       1 <0>         0.0887
      8 H2         -0.2341   -0.5536    3.7809 H         1 <0>         0.0954
      9 C7          0.2073   -2.3917    2.8198 C.2       1 <0>        -0.2299
     10 C8         -0.0270   -3.7059    2.9773 C.2       1 <0>         0.1918
     11 N1         -0.1606   -4.2407    4.2281 N.pl3     1 <0>        -0.6443
     12 C9         -0.1377   -4.5967    1.7667 C.3       1 <0>        -0.1366
     13 C10         0.3398   -1.8619    1.5150 C.2       1 <0>         0.5335
     14 O1         -0.5602   -1.2000    1.0328 O.2       1 <0>        -0.4958
     15 O2          1.4643   -2.0906    0.8049 O.3       1 <0>        -0.3387
     16 C11         1.5301   -1.5254   -0.5059 C.3       1 <0>         0.1023
     17 C12         2.8487   -1.8833   -1.1417 C.ar      1 <0>        -0.0952
     18 C13         3.9405   -1.0501   -0.9847 C.ar      1 <0>        -0.0936
     19 C14         5.1512   -1.3806   -1.5642 C.ar      1 <0>        -0.1212
     20 C15         5.2677   -2.5397   -2.3084 C.ar      1 <0>        -0.1092
     21 C16         4.1745   -3.3702   -2.4698 C.ar      1 <0>        -0.1229
     22 C17         2.9649   -3.0419   -1.8867 C.ar      1 <0>        -0.0966
     23 C18         1.7794   -1.1645    4.2448 C.ar      1 <0>        -0.1066
     24 C19         2.6678   -2.1869    4.5201 C.ar      1 <0>        -0.0728
     25 C20         4.0021   -1.9026    4.7424 C.ar      1 <0>        -0.1330
     26 C21         4.4497   -0.5954    4.6893 C.ar      1 <0>        -0.0907
     27 C22         3.5633    0.4283    4.4147 C.ar      1 <0>        -0.1563
     28 C23         2.2273    0.1441    4.1866 C.ar      1 <0>         0.1164
     29 F1          1.3608    1.1437    3.9121 F         1 <0>        -0.1319
     30 C24        -0.5829   -1.2766    6.3242 C.2       1 <0>         0.4073
     31 O3         -0.3748   -0.0823    6.2423 O.2       1 <0>        -0.4350
     32 C25        -1.1825   -1.8372    7.5849 C.3       1 <0>        -0.1275
     33 H3         -0.3776   -2.0664    8.2987 H         1 <0>         0.1427
     34 C26        -2.1021   -0.8159    8.2034 C.2       1 <0>         0.4781
     35 O4         -3.2719   -1.0738    8.3619 O.2       1 <0>        -0.4994
     36 O5         -1.6217    0.3801    8.5781 O.3       1 <0>        -0.3376
     37 C27        -2.5647    1.3143    9.1667 C.3       1 <0>         0.0317
     38 H4         -3.0892   -4.6406    8.2724 H         1 <0>         0.0658
     39 H5         -3.1807   -3.0157    9.0325 H         1 <0>         0.0827
     40 H6         -1.6835   -3.9962    9.1864 H         1 <0>         0.0582
     41 H7         -0.2189   -4.3623    7.2166 H         1 <0>         0.1066
     42 H8         -1.5995   -4.9885    6.2530 H         1 <0>         0.1024
     43 H9         -0.0209   -5.3224    4.3712 H         1 <0>         0.4467
     44 H10        -0.3293   -5.6309    2.0888 H         1 <0>         0.0829
     45 H11         0.8020   -4.5585    1.1962 H         1 <0>         0.0977
     46 H12        -0.9666   -4.2509    1.1316 H         1 <0>         0.0891
     47 H13         0.7077   -1.9233   -1.1185 H         1 <0>         0.0783
     48 H14         1.4407   -0.4311   -0.4383 H         1 <0>         0.0781
     49 H15         3.8485   -0.1426   -0.4064 H         1 <0>         0.1235
     50 H16         6.0054   -0.7319   -1.4378 H         1 <0>         0.1256
     51 H17         6.2129   -2.7966   -2.7635 H         1 <0>         0.1245
     52 H18         4.2655   -4.2758   -3.0513 H         1 <0>         0.1254
     53 H19         2.1109   -3.6908   -2.0128 H         1 <0>         0.1233
     54 H20         2.3193   -3.2083    4.5618 H         1 <0>         0.1220
     55 H21         4.6956   -2.7021    4.9574 H         1 <0>         0.1265
     56 H22         5.4925   -0.3745    4.8628 H         1 <0>         0.1305
     57 H23         3.9131    1.4493    4.3736 H         1 <0>         0.1338
     58 H24        -2.0430    2.2474    9.4260 H         1 <0>         0.1048
     59 H25        -2.9996    0.8726   10.0754 H         1 <0>         0.0641
     60 H26        -3.3657    1.5306    8.4445 H         1 <0>         0.0646
@<TRIPOS>BOND
     1    1    2 1
     2    1   38 1
     3    1   39 1
     4    1   40 1
     5    2    3 1
     6    2   32 1
     7    2    4 1
     8    4    5 1
     9    4   41 1
    10    4   42 1
    11    5   11 1
    12    5    6 2
    13    6    7 1
    14    6   30 1
    15    7    8 1
    16    7    9 1
    17    7   23 1
    18    9   10 2
    19    9   13 1
    20   10   11 1
    21   10   12 1
    22   11   43 1
    23   12   44 1
    24   12   45 1
    25   12   46 1
    26   13   14 2
    27   13   15 1
    28   15   16 1
    29   16   17 1
    30   16   47 1
    31   16   48 1
    32   17   22 ar
    33   17   18 ar
    34   18   19 ar
    35   18   49 1
    36   19   20 ar
    37   19   50 1
    38   20   21 ar
    39   20   51 1
    40   21   22 ar
    41   21   52 1
    42   22   53 1
    43   23   28 ar
    44   23   24 ar
    45   24   25 ar
    46   24   54 1
    47   25   26 ar
    48   25   55 1
    49   26   27 ar
    50   26   56 1
    51   27   28 ar
    52   27   57 1
    53   28   29 1
    54   30   31 2
    55   30   32 1
    56   32   33 1
    57   32   34 1
    58   34   35 2
    59   34   36 1
    60   36   37 1
    61   37   58 1
    62   37   59 1
    63   37   60 1
@<TRIPOS>MOLECULE
ZINC36636632
   58    61     0     0     0
SMALL
USER_CHARGES

@<TRIPOS>ATOM
      1 C1         -0.0184    1.5028    0.0103 C.3       1 <0>        -0.1193
      2 C2          0.0021   -0.0041    0.0020 C.ar      1 <0>        -0.0833
      3 C3          0.0057   -0.6888   -1.1991 C.ar      1 <0>        -0.1118
      4 C4          0.0245   -2.0707   -1.2067 C.ar      1 <0>        -0.1164
      5 C5          0.0400   -2.7685   -0.0132 C.ar      1 <0>        -0.0968
      6 C6          0.0373   -2.0840    1.1875 C.ar      1 <0>        -0.1031
      7 C7          0.0229   -0.7015    1.1951 C.ar      1 <0>        -0.0811
      8 C8          0.0252    0.0449    2.5043 C.3       1 <0>        -0.1190
      9 C9          0.0595   -4.2753   -0.0215 C.3       1 <0>         0.1869
     10 H1          0.4210   -4.6393    0.9403 H         1 <0>         0.0993
     11 C10        -1.3558   -4.8023   -0.2670 C.3       1 <0>        -0.1593
     12 N1          0.9476   -4.7464   -1.0871 N.am      1 <0>        -0.7168
     13 C11         1.5235   -5.9615   -0.9964 C.2       1 <0>         0.5389
     14 O1          1.3064   -6.6650   -0.0326 O.2       1 <0>        -0.5203
     15 C12         2.4371   -6.4461   -2.0925 C.3       1 <0>        -0.1507
     16 S1          3.0489   -8.1036   -1.6812 S.3       1 <0>         0.0883
     17 C13         4.0882   -8.5238   -3.0406 C.2       1 <0>         0.1501
     18 N2          4.3404   -7.7751   -4.0893 N.2       1 <0>        -0.2876
     19 N3          5.1385   -8.3871   -4.8889 N.2       1 <0>        -0.2751
     20 C14         5.4470   -9.5663   -4.4015 C.2       1 <0>         0.2811
     21 N4          4.7887   -9.6903   -3.1981 N.pl3     1 <0>        -0.4125
     22 C15         4.8252  -10.7826   -2.3201 C.ar      1 <0>         0.1037
     23 C16         6.0097  -11.1211   -1.6801 C.ar      1 <0>        -0.0965
     24 C17         6.0427  -12.1979   -0.8156 C.ar      1 <0>        -0.1085
     25 C18         4.8974  -12.9384   -0.5874 C.ar      1 <0>        -0.0991
     26 C19         3.7162  -12.6038   -1.2238 C.ar      1 <0>        -0.1036
     27 C20         3.6756  -11.5244   -2.0846 C.ar      1 <0>        -0.0960
     28 C21         6.3379  -10.5693   -5.0238 C.2       1 <0>        -0.1402
     29 C22         6.6872  -11.8941   -4.4954 C.2       1 <0>        -0.1985
     30 C23         7.5185  -12.4448   -5.3952 C.2       1 <0>        -0.0270
     31 O2          7.7011  -11.5835   -6.4075 O.3       1 <0>        -0.1724
     32 C24         6.9993  -10.4585   -6.2075 C.2       1 <0>         0.0681
     33 C25         6.9540   -9.2713   -7.1347 C.3       1 <0>        -0.0832
     34 H2          1.0042    1.8801    0.0026 H         1 <0>         0.0718
     35 H3         -0.5455    1.8639   -0.8728 H         1 <0>         0.0673
     36 H4         -0.5286    1.8543    0.9071 H         1 <0>         0.0698
     37 H5         -0.0064   -0.1437   -2.1314 H         1 <0>         0.1244
     38 H6          0.0266   -2.6056   -2.1449 H         1 <0>         0.1202
     39 H7          0.0491   -2.6290    2.1199 H         1 <0>         0.1248
     40 H8         -1.0017    0.2110    2.8297 H         1 <0>         0.0724
     41 H9          0.5542   -0.5412    3.2558 H         1 <0>         0.0676
     42 H10         0.5249    1.0049    2.3743 H         1 <0>         0.0701
     43 H11        -1.3417   -5.8922   -0.2730 H         1 <0>         0.0666
     44 H12        -2.0166   -4.4518    0.5259 H         1 <0>         0.0704
     45 H13        -1.7173   -4.4383   -1.2287 H         1 <0>         0.0605
     46 H14         1.1212   -4.1837   -1.8579 H         1 <0>         0.4038
     47 H15         1.8876   -6.4847   -3.0330 H         1 <0>         0.1273
     48 H16         3.2799   -5.7621   -2.1919 H         1 <0>         0.1272
     49 H17         6.9046  -10.5434   -1.8582 H         1 <0>         0.1307
     50 H18         6.9639  -12.4620   -0.3177 H         1 <0>         0.1373
     51 H19         4.9256  -13.7799    0.0889 H         1 <0>         0.1348
     52 H20         2.8234  -13.1842   -1.0439 H         1 <0>         0.1377
     53 H21         2.7516  -11.2604   -2.5774 H         1 <0>         0.1325
     54 H22         6.3456  -12.3356   -3.5709 H         1 <0>         0.1564
     55 H23         7.9681  -13.4236   -5.3163 H         1 <0>         0.2103
     56 H24         7.7480   -8.5730   -6.8699 H         1 <0>         0.0898
     57 H25         7.0933   -9.6072   -8.1622 H         1 <0>         0.0808
     58 H26         5.9880   -8.7749   -7.0425 H         1 <0>         0.1073
@<TRIPOS>BOND
     1    1    2 1
     2    1   34 1
     3    1   35 1
     4    1   36 1
     5    2    7 ar
     6    2    3 ar
     7    3    4 ar
     8    3   37 1
     9    4    5 ar
    10    4   38 1
    11    5    6 ar
    12    5    9 1
    13    6    7 ar
    14    6   39 1
    15    7    8 1
    16    8   40 1
    17    8   41 1
    18    8   42 1
    19    9   10 1
    20    9   11 1
    21    9   12 1
    22   11   43 1
    23   11   44 1
    24   11   45 1
    25   12   13 am
    26   12   46 1
    27   13   14 2
    28   13   15 1
    29   15   16 1
    30   15   47 1
    31   15   48 1
    32   16   17 1
    33   17   21 1
    34   17   18 2
    35   18   19 1
    36   19   20 2
    37   20   21 1
    38   20   28 1
    39   21   22 1
    40   22   27 ar
    41   22   23 ar
    42   23   24 ar
    43   23   49 1
    44   24   25 ar
    45   24   50 1
    46   25   26 ar
    47   25   51 1
    48   26   27 ar
    49   26   52 1
    50   27   53 1
    51   28   32 2
    52   28   29 1
    53   29   30 2
    54   29   54 1
    55   30   31 1
    56   30   55 1
    57   31   32 1
    58   32   33 1
    59   33   56 1
    60   33   57 1
    61   33   58 1
@<TRIPOS>MOLECULE
ZINC40851168
   56    58     0     0     0
SMALL
USER_CHARGES

@<TRIPOS>ATOM
      1 C1         -0.0465    1.5740    0.0068 C.3       1 <0>        -0.1447
      2 C2         -0.0151    0.0443    0.0042 C.3       1 <0>        -0.0786
      3 C3         -1.4252   -0.4871    0.0146 C.ar      1 <0>         0.2215
      4 C4         -2.0711   -0.7297    1.2110 C.ar      1 <0>        -0.1882
      5 C5         -3.3780   -1.2223    1.1738 C.ar      1 <0>         0.1867
      6 N1         -3.9519   -1.4393   -0.0063 N.ar      1 <0>        -0.5411
      7 C6         -3.2974   -1.1933   -1.1290 C.ar      1 <0>         0.5785
      8 N2         -2.0611   -0.7215   -1.1241 N.ar      1 <0>        -0.5113
      9 N3         -3.9286   -1.4325   -2.3497 N.pl3     1 <0>        -0.3189
     10 C7         -5.1922   -1.9035   -2.5192 C.2       1 <0>         0.1121
     11 C8         -5.4203   -1.9930   -3.8492 C.2       1 <0>        -0.2570
     12 C9         -4.2655   -1.5653   -4.5153 C.2       1 <0>         0.0908
     13 N4         -3.3754   -1.2244   -3.6198 N.2       1 <0>        -0.2585
     14 C10        -4.0819   -1.5021   -6.0097 C.3       1 <0>        -0.0744
     15 C11        -6.1631   -2.2617   -1.4237 C.3       1 <0>        -0.0944
     16 S1         -4.2526   -1.5515    2.6676 S.3       1 <0>        -0.0211
     17 C12        -5.8666   -2.1600    2.1062 C.3       1 <0>        -0.0996
     18 C13        -6.7383   -2.4882    3.3201 C.3       1 <0>        -0.1277
     19 C14        -8.0792   -2.9936    2.8537 C.2       1 <0>         0.5191
     20 O1         -8.3145   -3.0826    1.6672 O.2       1 <0>        -0.5047
     21 N5         -9.0169   -3.3468    3.7550 N.am      1 <0>        -0.6673
     22 C15       -10.2996   -3.7057    3.3261 C.ar      1 <0>         0.1585
     23 C16       -10.7851   -3.2339    2.1136 C.ar      1 <0>        -0.1206
     24 C17       -12.0522   -3.5907    1.6927 C.ar      1 <0>        -0.0190
     25 C18       -12.8366   -4.4169    2.4789 C.ar      1 <0>        -0.1240
     26 C19       -12.3553   -4.8873    3.6864 C.ar      1 <0>        -0.0867
     27 C20       -11.0872   -4.5390    4.1093 C.ar      1 <0>        -0.1123
     28 C21       -10.5615   -5.0576    5.4230 C.3       1 <0>        -0.1172
     29 Cl1       -12.6607   -3.0018    0.1772 Cl        1 <0>        -0.0631
     30 C22        -1.3821   -0.4697    2.5258 C.3       1 <0>        -0.1055
     31 H1          0.9735    1.9583   -0.0006 H         1 <0>         0.0709
     32 H2         -0.5747    1.9281   -0.8784 H         1 <0>         0.0604
     33 H3         -0.5606    1.9253    0.9015 H         1 <0>         0.0580
     34 H4          0.4990   -0.3070   -0.8904 H         1 <0>         0.0923
     35 H5          0.5131   -0.3098    0.8895 H         1 <0>         0.0943
     36 H6         -6.3326   -2.3346   -4.3155 H         1 <0>         0.1597
     37 H7         -4.3962   -0.5238   -6.3733 H         1 <0>         0.0823
     38 H8         -3.0314   -1.6601   -6.2537 H         1 <0>         0.0769
     39 H9         -4.6854   -2.2767   -6.4830 H         1 <0>         0.0828
     40 H10        -6.7557   -1.3849   -1.1625 H         1 <0>         0.0798
     41 H11        -6.8236   -3.0569   -1.7692 H         1 <0>         0.0834
     42 H12        -5.6121   -2.6022   -0.5470 H         1 <0>         0.0942
     43 H13        -6.3550   -1.3930    1.5050 H         1 <0>         0.1054
     44 H14        -5.7272   -3.0586    1.5054 H         1 <0>         0.1047
     45 H15        -6.2500   -3.2551    3.9213 H         1 <0>         0.1105
     46 H16        -6.8777   -1.5895    3.9209 H         1 <0>         0.1119
     47 H17        -8.8026   -3.3522    4.7010 H         1 <0>         0.4152
     48 H18       -10.1734   -2.5887    1.5005 H         1 <0>         0.1567
     49 H19       -13.8267   -4.6943    2.1484 H         1 <0>         0.1354
     50 H20       -12.9699   -5.5312    4.2980 H         1 <0>         0.1373
     51 H21       -10.8252   -4.3622    6.2199 H         1 <0>         0.0754
     52 H22       -11.0019   -6.0327    5.6311 H         1 <0>         0.0762
     53 H23        -9.4770   -5.1530    5.3682 H         1 <0>         0.0646
     54 H24        -1.5780    0.5547    2.8424 H         1 <0>         0.0822
     55 H25        -1.7616   -1.1613    3.2779 H         1 <0>         0.0768
     56 H26        -0.3081   -0.6145    2.4081 H         1 <0>         0.0816
@<TRIPOS>BOND
     1    1    2 1
     2    1   31 1
     3    1   32 1
     4    1   33 1
     5    2    3 1
     6    2   34 1
     7    2   35 1
     8    3    8 ar
     9    3    4 ar
    10    4    5 ar
    11    4   30 1
    12    5    6 ar
    13    5   16 1
    14    6    7 ar
    15    7    8 ar
    16    7    9 1
    17    9   13 1
    18    9   10 1
    19   10   11 2
    20   10   15 1
    21   11   12 1
    22   11   36 1
    23   12   13 2
    24   12   14 1
    25   14   37 1
    26   14   38 1
    27   14   39 1
    28   15   40 1
    29   15   41 1
    30   15   42 1
    31   16   17 1
    32   17   18 1
    33   17   43 1
    34   17   44 1
    35   18   19 1
    36   18   45 1
    37   18   46 1
    38   19   20 2
    39   19   21 am
    40   21   22 1
    41   21   47 1
    42   22   27 ar
    43   22   23 ar
    44   23   24 ar
    45   23   48 1
    46   24   25 ar
    47   24   29 1
    48   25   26 ar
    49   25   49 1
    50   26   27 ar
    51   26   50 1
    52   27   28 1
    53   28   51 1
    54   28   52 1
    55   28   53 1
    56   30   54 1
    57   30   55 1
    58   30   56 1
@<TRIPOS>MOLECULE
ZINC19951940
   53    55     0     0     0
SMALL
USER_CHARGES

@<TRIPOS>ATOM
      1 C1         -0.9814    1.3949   -0.3931 C.3       1 <0>        -0.1228
      2 C2         -0.7049   -0.0832   -0.2943 C.ar      1 <0>        -0.0668
      3 C3         -1.2426   -0.9498   -1.2283 C.ar      1 <0>        -0.1038
      4 C4         -0.9913   -2.3048   -1.1408 C.ar      1 <0>        -0.1079
      5 C5         -0.1968   -2.7980   -0.1132 C.ar      1 <0>         0.1309
      6 C6          0.3425   -1.9260    0.8234 C.ar      1 <0>        -0.0734
      7 C7          0.0912   -0.5700    0.7277 C.ar      1 <0>        -0.0288
      8 Cl1         0.7699    0.5224    1.8938 Cl        1 <0>        -0.0558
      9 N1          0.0585   -4.1682   -0.0221 N.pl3     1 <0>        -0.9263
     10 C8          0.7442   -4.8598   -1.1164 C.3       1 <0>         0.1085
     11 C9          2.2347   -4.7174   -0.9450 C.2       1 <0>         0.5130
     12 O1          2.6803   -4.0989   -0.0015 O.2       1 <0>        -0.4819
     13 N2          3.0725   -5.2772   -1.8401 N.am      1 <0>        -0.5823
     14 N3          4.4581   -5.1448   -1.6808 N.2       1 <0>        -0.2263
     15 C10         5.2647   -5.6837   -2.5426 C.2       1 <0>         0.1360
     16 C11         4.7110   -6.4521   -3.7148 C.3       1 <0>        -0.1578
     17 C12         6.7233   -5.5443   -2.3748 C.ar      1 <0>        -0.0505
     18 C13         7.5945   -6.1183   -3.3037 C.ar      1 <0>        -0.0937
     19 C14         8.9575   -5.9835   -3.1408 C.ar      1 <0>        -0.1243
     20 C15         9.4624   -5.2821   -2.0602 C.ar      1 <0>        -0.1032
     21 C16         8.6054   -4.7109   -1.1361 C.ar      1 <0>        -0.1237
     22 C17         7.2400   -4.8328   -1.2895 C.ar      1 <0>        -0.0783
     23 S1         -0.4138   -5.0108    1.3230 S.o2      1 <0>         2.6824
     24 O2          0.4064   -6.1696    1.3851 O.2       1 <0>        -0.9408
     25 O3         -0.4864   -4.0710    2.3863 O.2       1 <0>        -0.9325
     26 C18        -2.0586   -5.5730    1.0346 C.ar      1 <0>        -0.6776
     27 C19        -3.1329   -4.7823    1.3976 C.ar      1 <0>        -0.0151
     28 C20        -4.4233   -5.2233    1.1713 C.ar      1 <0>        -0.1374
     29 C21        -4.6395   -6.4548    0.5817 C.ar      1 <0>        -0.0598
     30 C22        -3.5652   -7.2451    0.2179 C.ar      1 <0>        -0.1387
     31 C23        -2.2747   -6.8022    0.4403 C.ar      1 <0>        -0.0235
     32 H1         -0.2165    1.8672   -1.0095 H         1 <0>         0.0786
     33 H2         -1.9606    1.5519   -0.8454 H         1 <0>         0.0736
     34 H3         -0.9671    1.8347    0.6041 H         1 <0>         0.0762
     35 H4         -1.8601   -0.5663   -2.0270 H         1 <0>         0.1389
     36 H5         -1.4123   -2.9807   -1.8704 H         1 <0>         0.1349
     37 H6          0.9601   -2.3063    1.6236 H         1 <0>         0.1474
     38 H7          0.4763   -5.9163   -1.1030 H         1 <0>         0.1233
     39 H8          0.4444   -4.4210   -2.0681 H         1 <0>         0.1233
     40 H9          2.7161   -5.7718   -2.5946 H         1 <0>         0.3864
     41 H10         4.5591   -5.7741   -4.5546 H         1 <0>         0.0888
     42 H11         5.4143   -7.2339   -4.0016 H         1 <0>         0.0909
     43 H12         3.7591   -6.9042   -3.4360 H         1 <0>         0.0702
     44 H13         7.2017   -6.6665   -4.1473 H         1 <0>         0.1294
     45 H14         9.6322   -6.4267   -3.8582 H         1 <0>         0.1277
     46 H15        10.5305   -5.1803   -1.9372 H         1 <0>         0.1253
     47 H16         9.0064   -4.1652   -0.2948 H         1 <0>         0.1274
     48 H17         6.5721   -4.3826   -0.5700 H         1 <0>         0.1350
     49 H18        -2.9640   -3.8202    1.8582 H         1 <0>         0.1407
     50 H19        -5.2626   -4.6059    1.4556 H         1 <0>         0.1357
     51 H20        -5.6477   -6.7997    0.4056 H         1 <0>         0.1337
     52 H21        -3.7341   -8.2073   -0.2424 H         1 <0>         0.1355
     53 H22        -1.4354   -7.4179    0.1526 H         1 <0>         0.1393
@<TRIPOS>BOND
     1    1    2 1
     2    1   32 1
     3    1   33 1
     4    1   34 1
     5    2    7 ar
     6    2    3 ar
     7    3    4 ar
     8    3   35 1
     9    4    5 ar
    10    4   36 1
    11    5    6 ar
    12    5    9 1
    13    6    7 ar
    14    6   37 1
    15    7    8 1
    16    9   10 1
    17    9   23 1
    18   10   11 1
    19   10   38 1
    20   10   39 1
    21   11   12 2
    22   11   13 am
    23   13   14 1
    24   13   40 1
    25   14   15 2
    26   15   16 1
    27   15   17 1
    28   16   41 1
    29   16   42 1
    30   16   43 1
    31   17   22 ar
    32   17   18 ar
    33   18   19 ar
    34   18   44 1
    35   19   20 ar
    36   19   45 1
    37   20   21 ar
    38   20   46 1
    39   21   22 ar
    40   21   47 1
    41   22   48 1
    42   23   24 2
    43   23   25 2
    44   23   26 1
    45   26   31 ar
    46   26   27 ar
    47   27   28 ar
    48   27   49 1
    49   28   29 ar
    50   28   50 1
    51   29   30 ar
    52   29   51 1
    53   30   31 ar
    54   30   52 1
    55   31   53 1
@<TRIPOS>MOLECULE
ZINC07472078
   55    59     0     0     0
SMALL
USER_CHARGES
N-(1-adamantylmethyl)-2-(4-cyclopropyl-4-methyl-2,5-dioxo-imidazolidin-1-yl)-acetamide
@<TRIPOS>ATOM
      1 C1          1.0109    1.7487   10.4601 C.3       1 <0>        -0.1451
      2 C2          1.2250    1.0158    9.1342 C.3       1 <0>         0.1557
      3 C3          0.8026    1.8879    7.9685 C.2       1 <0>         0.5416
      4 O1          1.2660    2.9626    7.6524 O.2       1 <0>        -0.4584
      5 N1         -0.1949    1.2197    7.3563 N.am      1 <0>        -0.5609
      6 C4         -0.4619    0.0610    7.9697 C.2       1 <0>         0.7117
      7 O2         -1.3239   -0.7139    7.6042 O.2       1 <0>        -0.5386
      8 N2          0.3328   -0.1521    9.0340 N.am      1 <0>        -0.7172
      9 C5         -0.9034    1.7050    6.1694 C.3       1 <0>         0.0982
     10 C6         -0.1981    1.2190    4.9295 C.2       1 <0>         0.5005
     11 O3          0.7984    0.5346    5.0276 O.2       1 <0>        -0.5244
     12 N3         -0.6746    1.5449    3.7117 N.am      1 <0>        -0.7224
     13 C7          0.0111    1.0724    2.5063 C.3       1 <0>         0.1308
     14 C8         -0.7288    1.5792    1.2668 C.3       1 <0>        -0.0647
     15 C9         -0.0127    1.0858    0.0080 C.3       1 <0>        -0.1002
     16 C10        -0.7527    1.5927   -1.2315 C.3       1 <0>        -0.0848
     17 C11        -0.7734    3.1225   -1.2231 C.3       1 <0>        -0.1093
     18 C12        -1.4896    3.6159    0.0357 C.3       1 <0>        -0.0861
     19 C13        -0.7496    3.1091    1.2752 C.3       1 <0>        -0.1022
     20 C14        -2.9250    3.0863    0.0466 C.3       1 <0>        -0.1090
     21 C15        -2.9042    1.5565    0.0381 C.3       1 <0>        -0.0861
     22 C16        -2.1881    1.0631   -1.2207 C.3       1 <0>        -0.1094
     23 C17        -2.1642    1.0497    1.2777 C.3       1 <0>        -0.1024
     24 C18         2.6872    0.5905    8.9861 C.3       1 <0>        -0.1621
     25 C19         2.9681   -0.8869    8.7044 C.3       1 <0>        -0.1643
     26 C20         3.2789   -0.2982   10.0820 C.3       1 <0>        -0.1635
     27 H1         -0.0421    2.0101   10.5648 H         1 <0>         0.0691
     28 H2          1.3084    1.1015   11.2851 H         1 <0>         0.0824
     29 H3          1.6139    2.6566   10.4749 H         1 <0>         0.0871
     30 H4          0.3184   -0.9227    9.6230 H         1 <0>         0.4399
     31 H5         -0.9182    2.7949    6.1754 H         1 <0>         0.1262
     32 H6         -1.9260    1.3277    6.1772 H         1 <0>         0.1287
     33 H7         -1.4715    2.0922    3.6332 H         1 <0>         0.4015
     34 H8          0.0259   -0.0175    2.5003 H         1 <0>         0.0700
     35 H9          1.0337    1.4497    2.4986 H         1 <0>         0.0697
     36 H10         0.0021   -0.0041    0.0020 H         1 <0>         0.0660
     37 H11         1.0099    1.4631    0.0003 H         1 <0>         0.0659
     38 H12        -0.2425    1.2411   -2.1283 H         1 <0>         0.0717
     39 H13         0.2491    3.4998   -1.2308 H         1 <0>         0.0621
     40 H14        -1.3006    3.4836   -2.1062 H         1 <0>         0.0625
     41 H15        -1.5044    4.7058    0.0417 H         1 <0>         0.0707
     42 H16         0.2730    3.4864    1.2675 H         1 <0>         0.0655
     43 H17        -1.2598    3.4606    2.1720 H         1 <0>         0.0607
     44 H18        -3.4522    3.4474   -0.8365 H         1 <0>         0.0626
     45 H19        -3.4352    3.4378    0.9434 H         1 <0>         0.0613
     46 H20        -3.9268    1.1792    0.0459 H         1 <0>         0.0708
     47 H21        -2.7153    1.4241   -2.1037 H         1 <0>         0.0625
     48 H22        -2.1733   -0.0268   -1.2266 H         1 <0>         0.0621
     49 H23        -2.6744    1.4012    2.1745 H         1 <0>         0.0609
     50 H24        -2.1494   -0.0402    1.2717 H         1 <0>         0.0657
     51 H25         3.3461    1.3255    8.5237 H         1 <0>         0.1248
     52 H26         2.1112   -1.5558    8.6246 H         1 <0>         0.0997
     53 H27         3.8119   -1.1241    8.0564 H         1 <0>         0.1009
     54 H28         4.3271   -0.1482   10.3403 H         1 <0>         0.1036
     55 H29         2.6266   -0.5796   10.9087 H         1 <0>         0.0982
@<TRIPOS>BOND
     1    1    2 1
     2    1   27 1
     3    1   28 1
     4    1   29 1
     5    2    8 1
     6    2    3 1
     7    2   24 1
     8    3    4 2
     9    3    5 am
    10    5    6 am
    11    5    9 1
    12    6    7 2
    13    6    8 am
    14    8   30 1
    15    9   10 1
    16    9   31 1
    17    9   32 1
    18   10   11 2
    19   10   12 am
    20   12   13 1
    21   12   33 1
    22   13   14 1
    23   13   34 1
    24   13   35 1
    25   14   19 1
    26   14   23 1
    27   14   15 1
    28   15   16 1
    29   15   36 1
    30   15   37 1
    31   16   22 1
    32   16   17 1
    33   16   38 1
    34   17   18 1
    35   17   39 1
    36   17   40 1
    37   18   19 1
    38   18   20 1
    39   18   41 1
    40   19   42 1
    41   19   43 1
    42   20   21 1
    43   20   44 1
    44   20   45 1
    45   21   22 1
    46   21   23 1
    47   21   46 1
    48   22   47 1
    49   22   48 1
    50   23   49 1
    51   23   50 1
    52   24   26 1
    53   24   25 1
    54   24   51 1
    55   25   26 1
    56   25   52 1
    57   25   53 1
    58   26   54 1
    59   26   55 1
@<TRIPOS>MOLECULE
ZINC17070353
   48    50     0     0     0
SMALL
USER_CHARGES
1-(4-ethylphenyl)-N-[3-(1-hydroxyethyl)phenyl]-5-methyl-triazole-4-carboxamide
@<TRIPOS>ATOM
      1 C1          1.2933   -0.6938   -7.3958 C.3       1 <0>        -0.1494
      2 C2          0.4006    0.3133   -6.6679 C.3       1 <0>        -0.0899
      3 C3          0.3723   -0.0120   -5.1967 C.ar      1 <0>        -0.0635
      4 C4          1.3065    0.5517   -4.3473 C.ar      1 <0>        -0.0998
      5 C5          1.2831    0.2554   -2.9984 C.ar      1 <0>        -0.1069
      6 C6          0.3203   -0.6092   -2.4957 C.ar      1 <0>         0.1137
      7 C7         -0.6131   -1.1777   -3.3518 C.ar      1 <0>        -0.0888
      8 C8         -0.5876   -0.8740   -4.6989 C.ar      1 <0>        -0.1009
      9 N1          0.2943   -0.9123   -1.1268 N.pl3     1 <0>        -0.3110
     10 C9          0.4769   -0.0463   -0.1063 C.2       1 <0>         0.1379
     11 C10         0.3622   -0.7674    1.0486 C.2       1 <0>        -0.1103
     12 N2          0.1198   -2.0499    0.7274 N.2       1 <0>        -0.1970
     13 N3          0.0763   -2.1731   -0.5535 N.2       1 <0>        -0.0501
     14 C11         0.4839   -0.2294    2.4164 C.2       1 <0>         0.6119
     15 O1          0.7055    0.9541    2.5869 O.2       1 <0>        -0.5139
     16 N4          0.3493   -1.0494    3.4775 N.am      1 <0>        -0.6582
     17 C12         0.3618   -0.5238    4.7735 C.ar      1 <0>         0.1460
     18 C13         0.9018   -1.2621    5.8189 C.ar      1 <0>        -0.1401
     19 C14         0.9186   -0.7375    7.0962 C.ar      1 <0>        -0.1015
     20 C15         0.3869    0.5163    7.3374 C.ar      1 <0>        -0.1061
     21 C16        -0.1570    1.2511    6.3002 C.ar      1 <0>        -0.0659
     22 C17        -0.1709    0.7349    5.0191 C.ar      1 <0>        -0.1115
     23 C18        -0.7348    2.6170    6.5676 C.3       1 <0>         0.1436
     24 H1         -1.4790    2.8521    5.8067 H         1 <0>         0.0644
     25 C19         0.3833    3.6607    6.5270 C.3       1 <0>        -0.1810
     26 O2         -1.3514    2.6294    7.8567 O.3       1 <0>        -0.5633
     27 C20         0.7485    1.4317   -0.2197 C.3       1 <0>        -0.1001
     28 H2          1.3138   -0.4585   -8.4599 H         1 <0>         0.0626
     29 H3          2.3046   -0.6408   -6.9924 H         1 <0>         0.0573
     30 H4          0.8976   -1.6994   -7.2536 H         1 <0>         0.0576
     31 H5         -0.6106    0.2603   -7.0712 H         1 <0>         0.0776
     32 H6          0.7963    1.3189   -6.8101 H         1 <0>         0.0776
     33 H7          2.0555    1.2240   -4.7390 H         1 <0>         0.1383
     34 H8          2.0132    0.6957   -2.3355 H         1 <0>         0.1351
     35 H9         -1.3607   -1.8539   -2.9642 H         1 <0>         0.1372
     36 H10        -1.3158   -1.3130   -5.3648 H         1 <0>         0.1379
     37 H11         0.2439   -2.0042    3.3423 H         1 <0>         0.4197
     38 H12         1.3126   -2.2433    5.6321 H         1 <0>         0.1276
     39 H13         1.3427   -1.3090    7.9085 H         1 <0>         0.1290
     40 H14         0.3968    0.9223    8.3381 H         1 <0>         0.1290
     41 H15        -0.5959    1.3094    4.2093 H         1 <0>         0.1353
     42 H16         0.8536    3.6512    5.5438 H         1 <0>         0.0704
     43 H17        -0.0347    4.6486    6.7204 H         1 <0>         0.0620
     44 H18         1.1274    3.4256    7.2880 H         1 <0>         0.0657
     45 H19        -1.7456    3.4793    8.0960 H         1 <0>         0.3813
     46 H20         1.8224    1.6093   -0.1621 H         1 <0>         0.0981
     47 H21         0.3702    1.7985   -1.1739 H         1 <0>         0.0809
     48 H22         0.2493    1.9564    0.5949 H         1 <0>         0.1117
@<TRIPOS>BOND
     1    1    2 1
     2    1   28 1
     3    1   29 1
     4    1   30 1
     5    2    3 1
     6    2   31 1
     7    2   32 1
     8    3    8 ar
     9    3    4 ar
    10    4    5 ar
    11    4   33 1
    12    5    6 ar
    13    5   34 1
    14    6    7 ar
    15    6    9 1
    16    7    8 ar
    17    7   35 1
    18    8   36 1
    19    9   13 1
    20    9   10 1
    21   10   11 2
    22   10   27 1
    23   11   12 1
    24   11   14 1
    25   12   13 2
    26   14   15 2
    27   14   16 am
    28   16   17 1
    29   16   37 1
    30   17   22 ar
    31   17   18 ar
    32   18   19 ar
    33   18   38 1
    34   19   20 ar
    35   19   39 1
    36   20   21 ar
    37   20   40 1
    38   21   22 ar
    39   21   23 1
    40   22   41 1
    41   23   24 1
    42   23   25 1
    43   23   26 1
    44   25   42 1
    45   25   43 1
    46   25   44 1
    47   26   45 1
    48   27   46 1
    49   27   47 1
    50   27   48 1
@<TRIPOS>MOLECULE
ZINC02859241
   37    39     0     0     0
SMALL
USER_CHARGES

@<TRIPOS>ATOM
      1 C1          2.6837    0.4299    0.7259 C.3       1 <0>         0.0256
      2 O1          1.8011   -0.6665    0.4791 O.3       1 <0>        -0.3169
      3 C2          1.5068   -0.9419   -0.8198 C.ar      1 <0>         0.1344
      4 C3          2.0599   -0.1774   -1.8340 C.ar      1 <0>        -0.1912
      5 C4          1.7598   -0.4577   -3.1541 C.ar      1 <0>        -0.0582
      6 C5          0.9069   -1.5016   -3.4667 C.ar      1 <0>        -0.0628
      7 C6          0.3508   -2.2693   -2.4597 C.ar      1 <0>        -0.0261
      8 C7          0.6530   -1.9969   -1.1334 C.ar      1 <0>         0.1034
      9 N1          0.0960   -2.7770   -0.1118 N.pl3     1 <0>        -0.6102
     10 C8          0.0608   -4.1189   -0.2316 C.2       1 <0>         0.5105
     11 S1          0.8203   -4.8796   -1.5640 S.2       1 <0>        -0.4788
     12 N2         -0.5723   -4.8621    0.6976 N.am      1 <0>        -0.6377
     13 C9         -0.6074   -6.2041    0.5779 C.2       1 <0>         0.5410
     14 O2         -0.0682   -6.7442   -0.3682 O.2       1 <0>        -0.3948
     15 C10        -1.3004   -7.0175    1.5950 C.ar      1 <0>        -0.1292
     16 C11        -1.9259   -6.3981    2.6803 C.ar      1 <0>        -0.0754
     17 C12        -2.5721   -7.1593    3.6292 C.ar      1 <0>        -0.1059
     18 C13        -2.6052   -8.5426    3.5116 C.ar      1 <0>         0.0674
     19 C14        -1.9828   -9.1675    2.4300 C.ar      1 <0>         0.0293
     20 C15        -1.3380   -8.4092    1.4726 C.ar      1 <0>        -0.0349
     21 O3         -2.1580  -10.5165    2.5469 O.3       1 <0>        -0.3013
     22 C16        -2.5377  -10.7366    3.9182 C.3       1 <0>         0.2116
     23 O4         -3.1683   -9.5006    4.3019 O.3       1 <0>        -0.3026
     24 Cl1         0.5338   -1.8479   -5.1264 Cl        1 <0>        -0.0574
     25 H1          3.6421    0.2408    0.2422 H         1 <0>         0.0612
     26 H2          2.2481    1.3446    0.3240 H         1 <0>         0.0607
     27 H3          2.8343    0.5405    1.7998 H         1 <0>         0.1041
     28 H4          2.7257    0.6383   -1.5933 H         1 <0>         0.1449
     29 H5          2.1918    0.1397   -3.9433 H         1 <0>         0.1416
     30 H6         -0.3149   -3.0833   -2.7060 H         1 <0>         0.1556
     31 H7         -0.2644   -2.3513    0.6818 H         1 <0>         0.4116
     32 H8         -1.0026   -4.4311    1.4526 H         1 <0>         0.4100
     33 H9         -1.9023   -5.3225    2.7753 H         1 <0>         0.1389
     34 H10        -3.0543   -6.6788    4.4676 H         1 <0>         0.1468
     35 H11        -0.8596   -8.8913    0.6329 H         1 <0>         0.1550
     36 H12        -3.2422  -11.5650    3.9922 H         1 <0>         0.1385
     37 H13        -1.6579  -10.9247    4.5336 H         1 <0>         0.0912
@<TRIPOS>BOND
     1    1    2 1
     2    1   25 1
     3    1   26 1
     4    1   27 1
     5    2    3 1
     6    3    8 ar
     7    3    4 ar
     8    4    5 ar
     9    4   28 1
    10    5    6 ar
    11    5   29 1
    12    6    7 ar
    13    6   24 1
    14    7    8 ar
    15    7   30 1
    16    8    9 1
    17    9   10 1
    18    9   31 1
    19   10   11 2
    20   10   12 1
    21   12   13 am
    22   12   32 1
    23   13   14 2
    24   13   15 1
    25   15   20 ar
    26   15   16 ar
    27   16   17 ar
    28   16   33 1
    29   17   18 ar
    30   17   34 1
    31   18   23 1
    32   18   19 ar
    33   19   20 ar
    34   19   21 1
    35   20   35 1
    36   21   22 1
    37   22   23 1
    38   22   36 1
    39   22   37 1
@<TRIPOS>MOLECULE
ZINC14233552
   46    49     0     0     0
SMALL
USER_CHARGES

@<TRIPOS>ATOM
      1 C1         -0.0167    1.3783    0.0096 C.ar      1 <0>        -0.1391
      2 C2          1.1702    2.0884    0.0021 C.ar      1 <0>        -0.0884
      3 C3          2.3772    1.4180   -0.0206 C.ar      1 <0>        -0.1529
      4 C4          2.3996    0.0296   -0.0409 C.ar      1 <0>         0.1591
      5 C5          1.2067   -0.6800   -0.0158 C.ar      1 <0>        -0.1212
      6 C6          0.0021   -0.0041    0.0020 C.ar      1 <0>        -0.0818
      7 C7          1.2242   -2.1866    0.0129 C.3       1 <0>        -0.0751
      8 C8          2.4252   -2.7026   -0.7801 C.3       1 <0>        -0.1068
      9 H1          2.5553   -3.7678   -0.5890 H         1 <0>         0.1158
     10 C9          3.6682   -1.9631   -0.3604 C.2       1 <0>         0.5260
     11 O1          4.7230   -2.5566   -0.2831 O.2       1 <0>        -0.5228
     12 N1          3.6196   -0.6514   -0.0711 N.am      1 <0>        -0.6618
     13 C10         2.1821   -2.4798   -2.2742 C.3       1 <0>        -0.0916
     14 C11         3.3245   -3.1067   -3.0759 C.3       1 <0>        -0.1462
     15 C12         3.0851   -2.8873   -4.5474 C.2       1 <0>         0.5153
     16 O2          2.0979   -2.2883   -4.9185 O.2       1 <0>        -0.5369
     17 N2          3.9680   -3.3565   -5.4512 N.am      1 <0>        -0.7297
     18 C13         3.7352   -3.1431   -6.8818 C.3       1 <0>         0.1658
     19 C14         4.8604   -3.7607   -7.6714 C.ar      1 <0>        -0.1025
     20 C15         5.9835   -3.0127   -7.9724 C.ar      1 <0>        -0.0879
     21 C16         7.0185   -3.5749   -8.6961 C.ar      1 <0>        -0.1012
     22 C17         6.9322   -4.8904   -9.1220 C.ar      1 <0>         0.0415
     23 C18         5.8009   -5.6439   -8.8188 C.ar      1 <0>         0.0308
     24 C19         4.7699   -5.0756   -8.0882 C.ar      1 <0>        -0.0813
     25 O3          5.9560   -6.8943   -9.3437 O.3       1 <0>        -0.3073
     26 C20         7.0092   -6.7743  -10.3183 C.3       1 <0>         0.2128
     27 O4          7.7962   -5.6688   -9.8368 O.3       1 <0>        -0.3074
     28 H2         -0.9596    1.9046    0.0260 H         1 <0>         0.1267
     29 H3          1.1530    3.1682    0.0137 H         1 <0>         0.1285
     30 H4          3.3035    1.9733   -0.0230 H         1 <0>         0.1276
     31 H5         -0.9261   -0.5561    0.0103 H         1 <0>         0.1299
     32 H6          1.2970   -2.5290    1.0452 H         1 <0>         0.0856
     33 H7          0.3050   -2.5686   -0.4313 H         1 <0>         0.0953
     34 H8          4.4411   -0.1718    0.1189 H         1 <0>         0.4107
     35 H9          1.2388   -2.9439   -2.5620 H         1 <0>         0.0899
     36 H10         2.1384   -1.4102   -2.4796 H         1 <0>         0.0776
     37 H11         4.2678   -2.6426   -2.7880 H         1 <0>         0.0949
     38 H12         3.3683   -4.1763   -2.8704 H         1 <0>         0.1005
     39 H13         4.7575   -3.8355   -5.1544 H         1 <0>         0.4039
     40 H14         2.7919   -3.6073   -7.1696 H         1 <0>         0.0804
     41 H15         3.6914   -2.0736   -7.0872 H         1 <0>         0.0820
     42 H16         6.0522   -1.9868   -7.6418 H         1 <0>         0.1412
     43 H17         7.8946   -2.9882   -8.9298 H         1 <0>         0.1396
     44 H18         3.8934   -5.6590   -7.8478 H         1 <0>         0.1382
     45 H19         7.6072   -7.6850  -10.3501 H         1 <0>         0.1346
     46 H20         6.5968   -6.5510  -11.3023 H         1 <0>         0.0874
@<TRIPOS>BOND
     1    1    6 ar
     2    1    2 ar
     3    1   28 1
     4    2    3 ar
     5    2   29 1
     6    3    4 ar
     7    3   30 1
     8    4   12 1
     9    4    5 ar
    10    5    6 ar
    11    5    7 1
    12    6   31 1
    13    7    8 1
    14    7   32 1
    15    7   33 1
    16    8    9 1
    17    8   10 1
    18    8   13 1
    19   10   11 2
    20   10   12 am
    21   12   34 1
    22   13   14 1
    23   13   35 1
    24   13   36 1
    25   14   15 1
    26   14   37 1
    27   14   38 1
    28   15   16 2
    29   15   17 am
    30   17   18 1
    31   17   39 1
    32   18   19 1
    33   18   40 1
    34   18   41 1
    35   19   24 ar
    36   19   20 ar
    37   20   21 ar
    38   20   42 1
    39   21   22 ar
    40   21   43 1
    41   22   27 1
    42   22   23 ar
    43   23   24 ar
    44   23   25 1
    45   24   44 1
    46   25   26 1
    47   26   27 1
    48   26   45 1
    49   26   46 1
@<TRIPOS>MOLECULE
ZINC67255540
   42    43     0     0     0
SMALL
USER_CHARGES

@<TRIPOS>ATOM
      1 C1          0.0103    1.5269    0.0540 C.3       1 <0>         0.0767
      2 N1          0.2148    0.0764    0.0393 N.am      1 <0>        -0.6124
      3 C2          0.3800   -0.6529    1.2991 C.3       1 <0>         0.1176
      4 C3         -0.9685   -1.1018    1.8003 C.2       1 <0>         0.4972
      5 O1         -1.9690   -0.8385    1.1673 O.2       1 <0>        -0.5009
      6 N2         -1.0626   -1.7958    2.9517 N.am      1 <0>        -0.6715
      7 C4         -2.3201   -2.1285    3.4672 C.ar      1 <0>         0.2053
      8 C5         -2.5292   -2.1351    4.8398 C.ar      1 <0>        -0.1918
      9 C6         -3.7733   -2.4644    5.3475 C.ar      1 <0>         0.1523
     10 C7         -4.8095   -2.7878    4.4877 C.ar      1 <0>        -0.2064
     11 C8         -4.6031   -2.7818    3.1185 C.ar      1 <0>         0.1526
     12 C9         -3.3621   -2.4471    2.6066 C.ar      1 <0>        -0.1681
     13 F1         -5.6155   -3.0982    2.2818 F         1 <0>        -0.1249
     14 F2         -3.9773   -2.4709    6.6830 F         1 <0>        -0.1258
     15 C10         0.2511   -0.5873   -1.1332 C.2       1 <0>         0.7134
     16 O2          0.4208   -1.7912   -1.1454 O.2       1 <0>        -0.5654
     17 N3          0.0991    0.0836   -2.2922 N.am      1 <0>        -0.6823
     18 C11         0.0280   -0.6165   -3.5018 C.ar      1 <0>         0.1713
     19 C12         0.5528   -0.0590   -4.6603 C.ar      1 <0>        -0.1459
     20 C13         0.4815   -0.7527   -5.8525 C.ar      1 <0>        -0.0835
     21 C14        -0.1117   -2.0011   -5.8932 C.ar      1 <0>        -0.1123
     22 C15        -0.6356   -2.5588   -4.7414 C.ar      1 <0>        -0.0835
     23 C16        -0.5623   -1.8727   -3.5450 C.ar      1 <0>        -0.1173
     24 C17        -0.1878   -2.7553   -7.1957 C.3       1 <0>         0.0199
     25 C18         1.0134   -3.5922   -7.3490 C.1       1 <0>         0.2055
     26 N4          1.9405   -4.2380   -7.4674 N.1       1 <0>        -0.4306
     27 H1          0.9759    2.0305    0.0077 H         1 <0>         0.0654
     28 H2         -0.5927    1.8176   -0.8062 H         1 <0>         0.0717
     29 H3         -0.5045    1.8120    0.9715 H         1 <0>         0.0798
     30 H4          1.0147   -1.5236    1.1344 H         1 <0>         0.1245
     31 H5          0.8436   -0.0001    2.0388 H         1 <0>         0.1194
     32 H6         -0.2586   -2.0647    3.4231 H         1 <0>         0.4187
     33 H7         -1.7211   -1.8836    5.5107 H         1 <0>         0.1478
     34 H8         -5.7800   -3.0453    4.8857 H         1 <0>         0.1515
     35 H9         -3.2028   -2.4379    1.5385 H         1 <0>         0.1574
     36 H10         0.0390    1.0518   -2.2879 H         1 <0>         0.4088
     37 H11         1.0159    0.9162   -4.6292 H         1 <0>         0.1283
     38 H12         0.8891   -0.3194   -6.7539 H         1 <0>         0.1312
     39 H13        -1.0986   -3.5340   -4.7766 H         1 <0>         0.1299
     40 H14        -0.9674   -2.3109   -2.6448 H         1 <0>         0.1381
     41 H15        -1.0747   -3.3889   -7.1974 H         1 <0>         0.1191
     42 H16        -0.2454   -2.0474   -8.0226 H         1 <0>         0.1192
@<TRIPOS>BOND
     1    1    2 1
     2    1   27 1
     3    1   28 1
     4    1   29 1
     5    2    3 1
     6    2   15 am
     7    3    4 1
     8    3   30 1
     9    3   31 1
    10    4    5 2
    11    4    6 am
    12    6    7 1
    13    6   32 1
    14    7   12 ar
    15    7    8 ar
    16    8    9 ar
    17    8   33 1
    18    9   10 ar
    19    9   14 1
    20   10   11 ar
    21   10   34 1
    22   11   12 ar
    23   11   13 1
    24   12   35 1
    25   15   16 2
    26   15   17 am
    27   17   18 1
    28   17   36 1
    29   18   23 ar
    30   18   19 ar
    31   19   20 ar
    32   19   37 1
    33   20   21 ar
    34   20   38 1
    35   21   22 ar
    36   21   24 1
    37   22   23 ar
    38   22   39 1
    39   23   40 1
    40   24   25 1
    41   24   41 1
    42   24   42 1
    43   25   26 3
@<TRIPOS>MOLECULE
ZINC09455699
   57    60     0     0     0
SMALL
USER_CHARGES
(2-phenylsulfanylphenyl)carbamoylmethyl 4-oxo-3-propyl-phthalazine-1-carboxylate
@<TRIPOS>ATOM
      1 C1         -2.1111    0.3735    3.8947 C.3       1 <0>        -0.1482
      2 C2         -1.9612    1.8522    3.5316 C.3       1 <0>        -0.1395
      3 C3         -2.0959    2.7039    4.7954 C.3       1 <0>         0.1085
      4 N1         -1.9523    4.1198    4.4476 N.am      1 <0>        -0.3542
      5 C4         -3.0618    4.8110    4.1149 C.2       1 <0>         0.5150
      6 O1         -4.1525    4.2705    4.1046 O.2       1 <0>        -0.4884
      7 C5         -2.9241    6.2329    3.7705 C.ar      1 <0>        -0.1404
      8 C6         -4.0062    7.0336    3.4187 C.ar      1 <0>        -0.0491
      9 C7         -3.7920    8.3586    3.1039 C.ar      1 <0>        -0.1148
     10 C8         -2.5125    8.8977    3.1348 C.ar      1 <0>        -0.0815
     11 C9         -1.4272    8.1205    3.4804 C.ar      1 <0>        -0.1023
     12 C10        -1.6212    6.7817    3.8020 C.ar      1 <0>        -0.0294
     13 C11        -0.5174    5.8848    4.1816 C.2       1 <0>         0.0516
     14 N2         -0.7807    4.6330    4.4709 N.2       1 <0>        -0.1451
     15 C12         0.8682    6.3877    4.2355 C.2       1 <0>         0.5548
     16 O2          1.1039    7.5488    3.9660 O.2       1 <0>        -0.4875
     17 O3          1.8726    5.5595    4.5836 O.3       1 <0>        -0.3102
     18 C13         3.2105    6.1228    4.6155 C.3       1 <0>         0.0488
     19 C14         4.1949    5.0568    5.0225 C.2       1 <0>         0.5189
     20 O4          3.8070    3.9328    5.2622 O.2       1 <0>        -0.4849
     21 N3          5.5062    5.3523    5.1203 N.am      1 <0>        -0.6635
     22 C15         6.4067    4.3924    5.6006 C.ar      1 <0>         0.1968
     23 C16         6.1371    3.0422    5.4363 C.ar      1 <0>        -0.1397
     24 C17         7.0274    2.0968    5.9101 C.ar      1 <0>        -0.0675
     25 C18         8.1884    2.4927    6.5492 C.ar      1 <0>        -0.1429
     26 C19         8.4657    3.8359    6.7176 C.ar      1 <0>        -0.0445
     27 C20         7.5802    4.7923    6.2405 C.ar      1 <0>        -0.1732
     28 S1          7.9343    6.5059    6.4472 S.3       1 <0>        -0.0025
     29 C21         8.4496    7.0308    4.8460 C.ar      1 <0>        -0.1123
     30 C22         8.6144    6.0999    3.8273 C.ar      1 <0>        -0.1253
     31 C23         9.0123    6.5157    2.5722 C.ar      1 <0>        -0.1015
     32 C24         9.2583    7.8552    2.3313 C.ar      1 <0>        -0.1195
     33 C25         9.1013    8.7837    3.3443 C.ar      1 <0>        -0.1015
     34 C26         8.6977    8.3760    4.6003 C.ar      1 <0>        -0.0965
     35 H1         -3.0909    0.2068    4.3425 H         1 <0>         0.0600
     36 H2         -2.0152   -0.2333    2.9944 H         1 <0>         0.0637
     37 H3         -1.3342    0.0935    4.6061 H         1 <0>         0.0614
     38 H4         -0.9815    2.0188    3.0838 H         1 <0>         0.0731
     39 H5         -2.7381    2.1322    2.8202 H         1 <0>         0.0689
     40 H6         -3.0756    2.5373    5.2431 H         1 <0>         0.1087
     41 H7         -1.3189    2.4239    5.5068 H         1 <0>         0.1074
     42 H8         -5.0040    6.6213    3.3929 H         1 <0>         0.1446
     43 H9         -4.6286    8.9845    2.8305 H         1 <0>         0.1386
     44 H10        -2.3658    9.9381    2.8851 H         1 <0>         0.1385
     45 H11        -0.4356    8.5480    3.5019 H         1 <0>         0.1683
     46 H12         3.4703    6.4984    3.6258 H         1 <0>         0.1120
     47 H13         3.2431    6.9412    5.3348 H         1 <0>         0.1145
     48 H14         5.8265    6.2296    4.8582 H         1 <0>         0.4162
     49 H15         5.2316    2.7292    4.9378 H         1 <0>         0.1579
     50 H16         6.8160    1.0456    5.7805 H         1 <0>         0.1340
     51 H17         8.8804    1.7498    6.9174 H         1 <0>         0.1327
     52 H18         9.3735    4.1415    7.2165 H         1 <0>         0.1382
     53 H19         8.4268    5.0531    4.0159 H         1 <0>         0.1222
     54 H20         9.1360    5.7934    1.7788 H         1 <0>         0.1253
     55 H21         9.5741    8.1769    1.3499 H         1 <0>         0.1261
     56 H22         9.2942    9.8289    3.1527 H         1 <0>         0.1297
     57 H23         8.5753    9.1015    5.3909 H         1 <0>         0.1294
@<TRIPOS>BOND
     1    1    2 1
     2    1   35 1
     3    1   36 1
     4    1   37 1
     5    2    3 1
     6    2   38 1
     7    2   39 1
     8    3    4 1
     9    3   40 1
    10    3   41 1
    11    4   14 1
    12    4    5 am
    13    5    6 2
    14    5    7 1
    15    7   12 ar
    16    7    8 ar
    17    8    9 ar
    18    8   42 1
    19    9   10 ar
    20    9   43 1
    21   10   11 ar
    22   10   44 1
    23   11   12 ar
    24   11   45 1
    25   12   13 1
    26   13   14 2
    27   13   15 1
    28   15   16 2
    29   15   17 1
    30   17   18 1
    31   18   19 1
    32   18   46 1
    33   18   47 1
    34   19   20 2
    35   19   21 am
    36   21   22 1
    37   21   48 1
    38   22   27 ar
    39   22   23 ar
    40   23   24 ar
    41   23   49 1
    42   24   25 ar
    43   24   50 1
    44   25   26 ar
    45   25   51 1
    46   26   27 ar
    47   26   52 1
    48   27   28 1
    49   28   29 1
    50   29   34 ar
    51   29   30 ar
    52   30   31 ar
    53   30   53 1
    54   31   32 ar
    55   31   54 1
    56   32   33 ar
    57   32   55 1
    58   33   34 ar
    59   33   56 1
    60   34   57 1
@<TRIPOS>MOLECULE
ZINC19760955
   70    74     0     0     0
SMALL
USER_CHARGES
[(2S)-tetrahydrofuran-2-yl]methyl (4S)-4-(4-benzyloxy-3-methoxy-phenyl)-2-methyl-5-oxo-4,6,7,8-tetrahydro-1H-quinoline-3-carboxylate
@<TRIPOS>ATOM
      1 C1          0.2460    1.7384    4.8748 C.3       1 <0>        -0.2244
      2 C2         -0.5759    1.8849    3.6202 C.2       1 <0>         0.2513
      3 C3         -1.9175    1.8411    3.6919 C.2       1 <0>        -0.2647
      4 C4         -2.7681    1.9916    2.4649 C.3       1 <0>         0.0844
      5 H1         -3.5742    1.2446    2.5102 H         1 <0>         0.0916
      6 C5         -1.9599    1.7551    1.2139 C.2       1 <0>        -0.2694
      7 C6         -0.6119    1.8017    1.2446 C.2       1 <0>         0.2102
      8 N1          0.0477    2.0617    2.4167 N.pl3     1 <0>        -0.6457
      9 C7          0.2041    1.5666   -0.0023 C.3       1 <0>        -0.0969
     10 C8         -0.5856    2.0310   -1.2280 C.3       1 <0>        -0.1124
     11 C9         -1.9102    1.2618   -1.2728 C.3       1 <0>        -0.1702
     12 C10        -2.6492    1.4861    0.0184 C.2       1 <0>         0.4007
     13 O1         -3.8631    1.4341    0.0280 O.2       1 <0>        -0.4633
     14 C11        -3.3410    3.3849    2.4279 C.ar      1 <0>        -0.0562
     15 C12        -2.4956    4.4767    2.3585 C.ar      1 <0>        -0.1076
     16 C13        -3.0163    5.7568    2.3234 C.ar      1 <0>        -0.1777
     17 C14        -4.3883    5.9479    2.3582 C.ar      1 <0>         0.0955
     18 C15        -5.2392    4.8490    2.4285 C.ar      1 <0>         0.0992
     19 C16        -4.7109    3.5684    2.4577 C.ar      1 <0>        -0.1385
     20 O2         -6.5864    5.0314    2.4630 O.3       1 <0>        -0.3074
     21 C17        -7.3983    3.8577    2.5351 C.3       1 <0>         0.0234
     22 O3         -4.9022    7.2065    2.3233 O.3       1 <0>        -0.2978
     23 C18        -3.9691    8.2864    2.2507 C.3       1 <0>         0.0999
     24 C19        -4.7163    9.5948    2.2210 C.ar      1 <0>        -0.0940
     25 C20        -5.0912   10.1493    1.0115 C.ar      1 <0>        -0.0951
     26 C21        -5.7812   11.3468    0.9845 C.ar      1 <0>        -0.1230
     27 C22        -6.0868   11.9952    2.1665 C.ar      1 <0>        -0.1105
     28 C23        -5.7070   11.4435    3.3757 C.ar      1 <0>        -0.1233
     29 C24        -5.0219   10.2432    3.4030 C.ar      1 <0>        -0.0953
     30 C25        -2.5393    1.6492    4.9478 C.2       1 <0>         0.5330
     31 O4         -1.8639    1.4038    5.9299 O.2       1 <0>        -0.5179
     32 O5         -3.8814    1.7381    5.0569 O.3       1 <0>        -0.3270
     33 C26        -4.4417    1.5329    6.3554 C.3       1 <0>         0.0537
     34 C27        -5.9636    1.6719    6.2818 C.3       1 <0>         0.0788
     35 H2         -6.2287    2.6120    5.7758 H         1 <0>         0.0924
     36 C28        -6.5682    1.5662    7.6984 C.3       1 <0>        -0.1503
     37 C29        -7.8575    0.7380    7.4455 C.3       1 <0>        -0.1544
     38 C30        -7.3868   -0.1975    6.3035 C.3       1 <0>         0.0491
     39 O6         -6.5115    0.6065    5.4967 O.3       1 <0>        -0.3667
     40 H3         -0.4229    1.6059    5.7379 H         1 <0>         0.1852
     41 H4          0.8575    2.6411    5.0200 H         1 <0>         0.0734
     42 H5          0.9033    0.8612    4.7822 H         1 <0>         0.0794
     43 H6          1.0886    2.4158    2.3834 H         1 <0>         0.4444
     44 H7          1.1446    2.1334    0.0627 H         1 <0>         0.0898
     45 H8          0.4283    0.4939   -0.0970 H         1 <0>         0.1007
     46 H9         -0.7808    3.1108   -1.1508 H         1 <0>         0.0757
     47 H10        -0.0025    1.8280   -2.1384 H         1 <0>         0.0865
     48 H11        -2.5166    1.6248   -2.1157 H         1 <0>         0.0975
     49 H12        -1.7068    0.1886   -1.4028 H         1 <0>         0.1004
     50 H13        -1.4261    4.3291    2.3313 H         1 <0>         0.1134
     51 H14        -2.3538    6.6080    2.2691 H         1 <0>         0.1293
     52 H15        -5.3692    2.7137    2.5078 H         1 <0>         0.1376
     53 H16        -8.4595    4.1467    2.5565 H         1 <0>         0.0985
     54 H17        -7.1524    3.2973    3.4492 H         1 <0>         0.0573
     55 H18        -7.2080    3.2256    1.6552 H         1 <0>         0.0571
     56 H19        -3.3094    8.2608    3.1306 H         1 <0>         0.0690
     57 H20        -3.3651    8.1883    1.3366 H         1 <0>         0.0692
     58 H21        -4.8485    9.6450    0.0879 H         1 <0>         0.1236
     59 H22        -6.0783   11.7777    0.0398 H         1 <0>         0.1252
     60 H23        -6.6227   12.9327    2.1452 H         1 <0>         0.1241
     61 H24        -5.9458   11.9501    4.2992 H         1 <0>         0.1250
     62 H25        -4.7252    9.8121    4.3477 H         1 <0>         0.1233
     63 H26        -4.1823    0.5250    6.7116 H         1 <0>         0.0732
     64 H27        -4.0382    2.2829    7.0516 H         1 <0>         0.0783
     65 H28        -5.8554    1.0577    8.3642 H         1 <0>         0.0815
     66 H29        -6.7753    2.5750    8.0849 H         1 <0>         0.0882
     67 H30        -8.1359    0.2030    8.3654 H         1 <0>         0.0864
     68 H31        -8.6751    1.4128    7.1521 H         1 <0>         0.0816
     69 H32        -6.8608   -1.0633    6.7321 H         1 <0>         0.0616
     70 H33        -8.2594   -0.5452    5.7311 H         1 <0>         0.0897
@<TRIPOS>BOND
     1    1    2 1
     2    1   40 1
     3    1   41 1
     4    1   42 1
     5    2    8 1
     6    2    3 2
     7    3    4 1
     8    3   30 1
     9    4    5 1
    10    4    6 1
    11    4   14 1
    12    6   12 1
    13    6    7 2
    14    7    8 1
    15    7    9 1
    16    8   43 1
    17    9   10 1
    18    9   44 1
    19    9   45 1
    20   10   11 1
    21   10   46 1
    22   10   47 1
    23   11   12 1
    24   11   48 1
    25   11   49 1
    26   12   13 2
    27   14   19 ar
    28   14   15 ar
    29   15   16 ar
    30   15   50 1
    31   16   17 ar
    32   16   51 1
    33   17   18 ar
    34   17   22 1
    35   18   19 ar
    36   18   20 1
    37   19   52 1
    38   20   21 1
    39   21   53 1
    40   21   54 1
    41   21   55 1
    42   22   23 1
    43   23   24 1
    44   23   56 1
    45   23   57 1
    46   24   29 ar
    47   24   25 ar
    48   25   26 ar
    49   25   58 1
    50   26   27 ar
    51   26   59 1
    52   27   28 ar
    53   27   60 1
    54   28   29 ar
    55   28   61 1
    56   29   62 1
    57   30   31 2
    58   30   32 1
    59   32   33 1
    60   33   34 1
    61   33   63 1
    62   33   64 1
    63   34   35 1
    64   34   39 1
    65   34   36 1
    66   36   37 1
    67   36   65 1
    68   36   66 1
    69   37   38 1
    70   37   67 1
    71   37   68 1
    72   38   39 1
    73   38   69 1
    74   38   70 1
@<TRIPOS>MOLECULE
ZINC01420243
   68    70     0     0     0
SMALL
USER_CHARGES

@<TRIPOS>ATOM
      1 C1         -2.8718   -8.5822   -1.9239 C.3       1 <0>        -0.1183
      2 C2         -1.9551   -7.4205   -1.6394 C.ar      1 <0>        -0.0778
      3 C3         -2.2011   -6.5946   -0.5585 C.ar      1 <0>        -0.1210
      4 C4         -1.3602   -5.5289   -0.2974 C.ar      1 <0>        -0.0969
      5 C5         -0.2731   -5.2894   -1.1170 C.ar      1 <0>        -0.1145
      6 C6         -0.0266   -6.1158   -2.1974 C.ar      1 <0>        -0.1057
      7 C7         -0.8651   -7.1840   -2.4559 C.ar      1 <0>        -0.1188
      8 C8          0.6430   -4.1270   -0.8330 C.3       1 <0>         0.1408
      9 N1          1.8213   -4.6010   -0.1029 N.am      1 <0>        -0.5792
     10 C9          1.7626   -4.7714    1.3510 C.3       1 <0>         0.1244
     11 H1          2.7274   -5.1250    1.7147 H         1 <0>         0.1295
     12 C10         0.6796   -5.7938    1.7013 C.3       1 <0>        -0.1659
     13 C11         1.4350   -3.4507    1.9987 C.2       1 <0>         0.5065
     14 O1          1.1668   -2.4881    1.3113 O.2       1 <0>        -0.5135
     15 N2          1.4400   -3.3393    3.3419 N.am      1 <0>        -0.6638
     16 C12         1.0296   -2.1438    3.9474 C.ar      1 <0>         0.0840
     17 C13         1.6143   -1.7321    5.1376 C.ar      1 <0>        -0.0929
     18 C14         1.2105   -0.5543    5.7340 C.ar      1 <0>        -0.1761
     19 C15         0.2194    0.2189    5.1434 C.ar      1 <0>         0.2029
     20 C16        -0.3654   -0.1931    3.9528 C.ar      1 <0>        -0.1787
     21 C17         0.0424   -1.3684    3.3540 C.ar      1 <0>        -0.0686
     22 N3         -0.1903    1.4121    5.7477 N.pl3     1 <0>        -0.6394
     23 C18         0.4263    1.8463    7.0038 C.3       1 <0>         0.0956
     24 C19        -1.2358    2.2276    5.1247 C.3       1 <0>         0.0923
     25 C20         2.9594   -4.8803   -0.7687 C.2       1 <0>         0.5424
     26 O2          3.9583   -5.1948   -0.1569 O.2       1 <0>        -0.5183
     27 C21         2.9907   -4.8018   -2.2733 C.3       1 <0>        -0.1558
     28 S1          4.6964   -5.0112   -2.8543 S.3       1 <0>         0.0844
     29 C22         4.5666   -4.8962   -4.6077 C.ar      1 <0>         0.2928
     30 N4          3.3774   -4.6921   -5.1566 N.ar      1 <0>        -0.5382
     31 C23         3.2456   -4.6005   -6.4694 C.ar      1 <0>         0.1930
     32 C24         4.3694   -4.7206   -7.2720 C.ar      1 <0>        -0.2397
     33 C25         5.5975   -4.9335   -6.6654 C.ar      1 <0>         0.1955
     34 N5          5.6612   -5.0104   -5.3466 N.ar      1 <0>        -0.5058
     35 C26         6.8459   -5.0706   -7.4984 C.3       1 <0>        -0.1081
     36 C27         1.8898   -4.3688   -7.0854 C.3       1 <0>        -0.1075
     37 H2         -2.5142   -9.4654   -1.3946 H         1 <0>         0.0717
     38 H3         -3.8800   -8.3405   -1.5874 H         1 <0>         0.0674
     39 H4         -2.8844   -8.7811   -2.9956 H         1 <0>         0.0669
     40 H5         -3.0504   -6.7817    0.0818 H         1 <0>         0.1229
     41 H6         -1.5528   -4.8833    0.5466 H         1 <0>         0.1239
     42 H7          0.8225   -5.9285   -2.8379 H         1 <0>         0.1215
     43 H8         -0.6704   -7.8319   -3.2978 H         1 <0>         0.1217
     44 H9          0.9564   -3.6733   -1.7732 H         1 <0>         0.0925
     45 H10         0.1155   -3.3874   -0.2307 H         1 <0>         0.1096
     46 H11        -0.3033   -5.3410    1.5711 H         1 <0>         0.0756
     47 H12         0.7709   -6.6592    1.0448 H         1 <0>         0.0782
     48 H13         0.7997   -6.1097    2.7376 H         1 <0>         0.0748
     49 H14         1.7276   -4.0865    3.8895 H         1 <0>         0.4097
     50 H15         2.3848   -2.3335    5.5970 H         1 <0>         0.1250
     51 H16         1.6651   -0.2343    6.6599 H         1 <0>         0.1251
     52 H17        -1.1361    0.4080    3.4934 H         1 <0>         0.1253
     53 H18        -0.4091   -1.6865    2.4259 H         1 <0>         0.1326
     54 H19         1.4977    1.9807    6.8552 H         1 <0>         0.0537
     55 H20        -0.0180    2.7904    7.3193 H         1 <0>         0.0730
     56 H21         0.2578    1.0910    7.7714 H         1 <0>         0.0540
     57 H22        -2.2109    1.9162    5.4991 H         1 <0>         0.0482
     58 H23        -1.0713    3.2772    5.3682 H         1 <0>         0.0666
     59 H24        -1.2029    2.0960    4.0431 H         1 <0>         0.0685
     60 H25         2.3651   -5.5904   -2.6914 H         1 <0>         0.1288
     61 H26         2.6142   -3.8306   -2.5944 H         1 <0>         0.1244
     62 H27         4.2898   -4.6501   -8.3468 H         1 <0>         0.1486
     63 H28         7.2955   -4.0884   -7.6436 H         1 <0>         0.0885
     64 H29         7.5542   -5.7224   -6.9869 H         1 <0>         0.0853
     65 H30         6.5909   -5.5003   -8.4671 H         1 <0>         0.0834
     66 H31         1.7110   -3.2976   -7.1779 H         1 <0>         0.0875
     67 H32         1.8558   -4.8295   -8.0727 H         1 <0>         0.0831
     68 H33         1.1221   -4.8119   -6.4511 H         1 <0>         0.0827
@<TRIPOS>BOND
     1    1    2 1
     2    1   37 1
     3    1   38 1
     4    1   39 1
     5    2    7 ar
     6    2    3 ar
     7    3    4 ar
     8    3   40 1
     9    4    5 ar
    10    4   41 1
    11    5    6 ar
    12    5    8 1
    13    6    7 ar
    14    6   42 1
    15    7   43 1
    16    8    9 1
    17    8   44 1
    18    8   45 1
    19    9   10 1
    20    9   25 am
    21   10   11 1
    22   10   12 1
    23   10   13 1
    24   12   46 1
    25   12   47 1
    26   12   48 1
    27   13   14 2
    28   13   15 am
    29   15   16 1
    30   15   49 1
    31   16   21 ar
    32   16   17 ar
    33   17   18 ar
    34   17   50 1
    35   18   19 ar
    36   18   51 1
    37   19   20 ar
    38   19   22 1
    39   20   21 ar
    40   20   52 1
    41   21   53 1
    42   22   23 1
    43   22   24 1
    44   23   54 1
    45   23   55 1
    46   23   56 1
    47   24   57 1
    48   24   58 1
    49   24   59 1
    50   25   26 2
    51   25   27 1
    52   27   28 1
    53   27   60 1
    54   27   61 1
    55   28   29 1
    56   29   34 ar
    57   29   30 ar
    58   30   31 ar
    59   31   32 ar
    60   31   36 1
    61   32   33 ar
    62   32   62 1
    63   33   34 ar
    64   33   35 1
    65   35   63 1
    66   35   64 1
    67   35   65 1
    68   36   66 1
    69   36   67 1
    70   36   68 1
@<TRIPOS>MOLECULE
ZINC40345647
   66    70     0     0     0
SMALL
USER_CHARGES

@<TRIPOS>ATOM
      1 C1         -0.0187    1.5258    0.0104 C.3       1 <0>        -0.1483
      2 C2          0.0021   -0.0041    0.0020 C.3       1 <0>        -0.0933
      3 C3          0.7421   -0.5109    1.2415 C.3       1 <0>        -0.1537
      4 C4         -1.4333   -0.5336    0.0129 C.3       1 <0>        -0.1155
      5 C5         -1.4157   -2.0577   -0.1212 C.3       1 <0>         0.0571
      6 O1         -2.7563   -2.5523   -0.1111 O.3       1 <0>        -0.3122
      7 C6         -2.9187   -3.8970   -0.2223 C.ar      1 <0>         0.1468
      8 C7         -1.8102   -4.7239   -0.3330 C.ar      1 <0>        -0.2105
      9 C8         -1.9779   -6.0905   -0.4454 C.ar      1 <0>        -0.0616
     10 C9         -3.2492   -6.6343   -0.4482 C.ar      1 <0>        -0.1446
     11 C10        -4.3555   -5.8123   -0.3384 C.ar      1 <0>        -0.0394
     12 C11        -4.1929   -4.4456   -0.2195 C.ar      1 <0>        -0.1494
     13 C12        -3.4292   -8.1254   -0.5715 C.3       1 <0>         0.2549
     14 H1         -2.5113   -8.6387   -0.2848 H         1 <0>         0.1135
     15 C13        -3.8054   -8.4865   -1.9823 C.2       1 <0>        -0.1692
     16 C14        -3.4515   -8.4798   -3.3357 C.2       1 <0>         0.1225
     17 N1         -4.4355   -9.0489   -4.0037 N.2       1 <0>        -0.2455
     18 N2         -5.3753   -9.4143   -3.2064 N.pl3     1 <0>        -0.3340
     19 H2         -6.1963   -9.8540   -3.4775 H         1 <0>         0.4530
     20 C15        -5.0459   -9.0918   -1.9206 C.2       1 <0>        -0.0622
     21 C16        -5.4768   -9.1306   -0.5186 C.2       1 <0>         0.6008
     22 O2         -6.5281   -9.6013   -0.1282 O.2       1 <0>        -0.5137
     23 N3         -4.5434   -8.5717    0.2749 N.am      1 <0>        -0.5934
     24 C17        -4.6246   -8.4318    1.7310 C.3       1 <0>         0.1810
     25 C18        -5.2785   -7.1180    2.0737 C.ar      1 <0>        -0.0775
     26 C19        -4.5198   -5.9692    2.2382 C.ar      1 <0>        -0.1373
     27 C20        -5.1543   -4.7823    2.5523 C.ar      1 <0>         0.1004
     28 N4         -6.4643   -4.7352    2.6958 N.ar      1 <0>        -0.4755
     29 C21        -7.2172   -5.8076    2.5468 C.ar      1 <0>         0.0930
     30 C22        -6.6536   -7.0281    2.2264 C.ar      1 <0>        -0.1496
     31 C23        -2.1988   -7.9317   -3.9137 C.ar      1 <0>        -0.0541
     32 C24        -1.6094   -6.7994   -3.3552 C.ar      1 <0>        -0.0644
     33 C25        -0.4452   -6.2926   -3.8940 C.ar      1 <0>        -0.1502
     34 C26         0.1390   -6.9094   -4.9918 C.ar      1 <0>         0.1378
     35 C27        -0.4462   -8.0374   -5.5506 C.ar      1 <0>        -0.2094
     36 C28        -1.6071   -8.5521   -5.0121 C.ar      1 <0>        -0.0485
     37 O3          1.2857   -6.4077   -5.5209 O.3       1 <0>        -0.3160
     38 C29         1.8328   -7.0917   -6.6500 C.3       1 <0>         0.0253
     39 H3          1.0039    1.9031    0.0027 H         1 <0>         0.0581
     40 H4         -0.5459    1.8868   -0.8726 H         1 <0>         0.0565
     41 H5         -0.5289    1.8773    0.9072 H         1 <0>         0.0568
     42 H6          0.5123   -0.3556   -0.8948 H         1 <0>         0.0729
     43 H7          1.7647   -0.1336    1.2338 H         1 <0>         0.0578
     44 H8          0.2319   -0.1594    2.1383 H         1 <0>         0.0576
     45 H9          0.7568   -1.6008    1.2356 H         1 <0>         0.0549
     46 H10        -1.9156   -0.2570    0.9504 H         1 <0>         0.0752
     47 H11        -1.9862   -0.1019   -0.8214 H         1 <0>         0.0744
     48 H12        -0.9334   -2.3344   -1.0587 H         1 <0>         0.0630
     49 H13        -0.8628   -2.4894    0.7131 H         1 <0>         0.0663
     50 H14        -0.8171   -4.2995   -0.3316 H         1 <0>         0.1323
     51 H15        -1.1153   -6.7346   -0.5317 H         1 <0>         0.1319
     52 H16        -5.3474   -6.2394   -0.3411 H         1 <0>         0.1188
     53 H17        -5.0572   -3.8043   -0.1293 H         1 <0>         0.1289
     54 H18        -5.2158   -9.2501    2.1422 H         1 <0>         0.1041
     55 H19        -3.6209   -8.4597    2.1552 H         1 <0>         0.1024
     56 H20        -3.4465   -6.0016    2.1227 H         1 <0>         0.1323
     57 H21        -4.5705   -3.8830    2.6821 H         1 <0>         0.1520
     58 H22        -8.2871   -5.7303    2.6725 H         1 <0>         0.1549
     59 H23        -7.2760   -7.9018    2.1008 H         1 <0>         0.1371
     60 H24        -2.0639   -6.3187   -2.5015 H         1 <0>         0.1428
     61 H25         0.0121   -5.4150   -3.4615 H         1 <0>         0.1334
     62 H26         0.0103   -8.5150   -6.4049 H         1 <0>         0.1321
     63 H27        -2.0593   -9.4326   -5.4441 H         1 <0>         0.1299
     64 H28         2.0630   -8.1210   -6.3748 H         1 <0>         0.0573
     65 H29         1.1080   -7.0867   -7.4641 H         1 <0>         0.0572
     66 H30         2.7448   -6.5892   -6.9724 H         1 <0>         0.1017
@<TRIPOS>BOND
     1    1    2 1
     2    1   39 1
     3    1   40 1
     4    1   41 1
     5    2    3 1
     6    2    4 1
     7    2   42 1
     8    3   43 1
     9    3   44 1
    10    3   45 1
    11    4    5 1
    12    4   46 1
    13    4   47 1
    14    5    6 1
    15    5   48 1
    16    5   49 1
    17    6    7 1
    18    7   12 ar
    19    7    8 ar
    20    8    9 ar
    21    8   50 1
    22    9   10 ar
    23    9   51 1
    24   10   11 ar
    25   10   13 1
    26   11   12 ar
    27   11   52 1
    28   12   53 1
    29   13   14 1
    30   13   23 1
    31   13   15 1
    32   15   20 2
    33   15   16 1
    34   16   17 2
    35   16   31 1
    36   17   18 1
    37   18   19 1
    38   18   20 1
    39   20   21 1
    40   21   22 2
    41   21   23 am
    42   23   24 1
    43   24   25 1
    44   24   54 1
    45   24   55 1
    46   25   30 ar
    47   25   26 ar
    48   26   27 ar
    49   26   56 1
    50   27   28 ar
    51   27   57 1
    52   28   29 ar
    53   29   30 ar
    54   29   58 1
    55   30   59 1
    56   31   36 ar
    57   31   32 ar
    58   32   33 ar
    59   32   60 1
    60   33   34 ar
    61   33   61 1
    62   34   35 ar
    63   34   37 1
    64   35   36 ar
    65   35   62 1
    66   36   63 1
    67   37   38 1
    68   38   64 1
    69   38   65 1
    70   38   66 1
@<TRIPOS>MOLECULE
ZINC59213060
   51    54     0     0     0
SMALL
USER_CHARGES

@<TRIPOS>ATOM
      1 C1         -0.0187    1.5258    0.0104 C.3       1 <0>        -0.1519
      2 C2          0.0021   -0.0041    0.0020 C.3       1 <0>         0.0569
      3 O1         -1.3386   -0.4987    0.0122 O.3       1 <0>        -0.3406
      4 C3         -1.4972   -1.8384    0.0065 C.2       1 <0>         0.5294
      5 O2         -0.5224   -2.5663   -0.0067 O.2       1 <0>        -0.4864
      6 C4         -2.8407   -2.4156    0.0162 C.2       1 <0>        -0.2046
      7 C5         -3.5523   -2.7159   -1.2146 C.2       1 <0>         0.0145
      8 C6         -4.7928   -3.2500   -1.0547 C.2       1 <0>        -0.2208
      9 S1         -4.9762   -3.3373    0.7127 S.3       1 <0>         0.3302
     10 C7         -3.4990   -2.7102    1.2000 C.2       1 <0>         0.0443
     11 N1         -3.0407   -2.5258    2.4947 N.am      1 <0>        -0.6113
     12 C8         -3.8182   -2.8702    3.5403 C.2       1 <0>         0.5384
     13 O3         -4.9189   -3.3416    3.3481 O.2       1 <0>        -0.4783
     14 C9         -3.3198   -2.6696    4.9483 C.3       1 <0>        -0.1623
     15 S2         -4.5856   -3.2253    6.1228 S.3       1 <0>         0.1604
     16 C10        -3.8615   -2.9294    7.7016 C.2       1 <0>         0.1164
     17 N2         -2.6747   -2.4150    7.9282 N.2       1 <0>        -0.2854
     18 N3         -2.4745   -2.3430    9.1970 N.2       1 <0>        -0.2661
     19 C11        -3.5235   -2.8076    9.8308 C.2       1 <0>         0.2233
     20 O4         -4.4259   -3.1837    8.8975 O.3       1 <0>        -0.1959
     21 C12        -3.6908   -2.8988   11.2959 C.ar      1 <0>        -0.0393
     22 C13        -4.8661   -3.4241   11.8361 C.ar      1 <0>        -0.0759
     23 C14        -5.0158   -3.5063   13.2050 C.ar      1 <0>        -0.1222
     24 C15        -4.0045   -3.0692   14.0421 C.ar      1 <0>        -0.0548
     25 C16        -2.8372   -2.5475   13.5134 C.ar      1 <0>        -0.1223
     26 C17        -2.6719   -2.4653   12.1463 C.ar      1 <0>        -0.0590
     27 C18        -4.1756   -3.1612   15.5366 C.3       1 <0>        -0.1226
     28 C19        -2.9689   -2.4581   -2.5475 C.2       1 <0>        -0.1075
     29 C20        -2.8780   -3.2966   -3.6265 C.2       1 <0>        -0.1324
     30 C21        -2.2842   -2.8294   -4.7799 C.2       1 <0>        -0.1571
     31 C22        -1.8098   -1.5585   -4.8113 C.2       1 <0>        -0.1728
     32 S3         -2.2061   -0.9701   -3.1731 S.3       1 <0>         0.0624
     33 H1          1.0039    1.9031    0.0027 H         1 <0>         0.0812
     34 H2         -0.5459    1.8868   -0.8726 H         1 <0>         0.0688
     35 H3         -0.5289    1.8773    0.9072 H         1 <0>         0.0666
     36 H4          0.5123   -0.3556   -0.8948 H         1 <0>         0.0703
     37 H5          0.5293   -0.3651    0.8851 H         1 <0>         0.0675
     38 H6         -5.4970   -3.5489   -1.8171 H         1 <0>         0.1989
     39 H7         -2.1603   -2.1487    2.6485 H         1 <0>         0.4247
     40 H8         -2.4077   -3.2477    5.0967 H         1 <0>         0.1416
     41 H9         -3.1107   -1.6126    5.1126 H         1 <0>         0.1419
     42 H10        -5.6565   -3.7650   11.1838 H         1 <0>         0.1333
     43 H11        -5.9245   -3.9124   13.6242 H         1 <0>         0.1347
     44 H12        -2.0517   -2.2081   14.1724 H         1 <0>         0.1364
     45 H13        -1.7584   -2.0621   11.7348 H         1 <0>         0.1407
     46 H14        -3.8018   -4.1235   15.8865 H         1 <0>         0.0780
     47 H15        -3.6164   -2.3580   16.0164 H         1 <0>         0.0723
     48 H16        -5.2322   -3.0687   15.7877 H         1 <0>         0.0719
     49 H17        -3.2635   -4.3041   -3.5749 H         1 <0>         0.1381
     50 H18        -2.1974   -3.4670   -5.6473 H         1 <0>         0.1381
     51 H19        -1.3220   -1.0358   -5.6207 H         1 <0>         0.1882
@<TRIPOS>BOND
     1    1    2 1
     2    1   33 1
     3    1   34 1
     4    1   35 1
     5    2    3 1
     6    2   36 1
     7    2   37 1
     8    3    4 1
     9    4    5 2
    10    4    6 1
    11    6   10 2
    12    6    7 1
    13    7    8 2
    14    7   28 1
    15    8    9 1
    16    8   38 1
    17    9   10 1
    18   10   11 1
    19   11   12 am
    20   11   39 1
    21   12   13 2
    22   12   14 1
    23   14   15 1
    24   14   40 1
    25   14   41 1
    26   15   16 1
    27   16   20 1
    28   16   17 2
    29   17   18 1
    30   18   19 2
    31   19   20 1
    32   19   21 1
    33   21   26 ar
    34   21   22 ar
    35   22   23 ar
    36   22   42 1
    37   23   24 ar
    38   23   43 1
    39   24   25 ar
    40   24   27 1
    41   25   26 ar
    42   25   44 1
    43   26   45 1
    44   27   46 1
    45   27   47 1
    46   27   48 1
    47   28   32 1
    48   28   29 2
    49   29   30 1
    50   29   49 1
    51   30   31 2
    52   30   50 1
    53   31   32 1
    54   31   51 1
@<TRIPOS>MOLECULE
ZINC06300454
   67    70     0     0     0
SMALL
USER_CHARGES
1-(1,3-benzodioxol-5-ylmethyl)-3-(3-dimethylaminopropyl)-1-[(6,8-dimethyl-2-oxo-1H-quinolin-3-yl)methyl]thiourea
@<TRIPOS>ATOM
      1 C1         -3.7924   12.5147    4.9574 C.3       1 <0>        -0.1157
      2 C2         -2.6864   11.9234    4.1219 C.ar      1 <0>        -0.1087
      3 C3         -1.4166   12.4832    4.1658 C.ar      1 <0>        -0.0605
      4 C4         -0.3916   11.9621    3.4063 C.ar      1 <0>        -0.1262
      5 C5         -0.6267   10.8566    2.5951 C.ar      1 <0>         0.1804
      6 C6         -1.9152   10.2919    2.5533 C.ar      1 <0>        -0.1311
      7 C7         -2.9419   10.8412    3.3286 C.ar      1 <0>        -0.0551
      8 C8         -2.1544    9.1326    1.6916 C.2       1 <0>         0.0398
      9 C9         -1.1212    8.6438    0.9620 C.2       1 <0>        -0.2360
     10 C10         0.1523    9.2472    1.0400 C.2       1 <0>         0.5460
     11 O1          1.0674    8.7914    0.3764 O.2       1 <0>        -0.5480
     12 N1          0.3814   10.3120    1.8284 N.am      1 <0>        -0.6271
     13 H1          1.2688   10.7024    1.8584 H         1 <0>         0.4156
     14 C11        -1.3334    7.4516    0.0650 C.3       1 <0>         0.1739
     15 N2         -1.6032    7.9095   -1.3002 N.pl3     1 <0>        -0.5466
     16 C12        -0.4919    8.1687   -2.2189 C.3       1 <0>         0.1312
     17 C13        -0.0923    6.8846   -2.8989 C.ar      1 <0>        -0.1100
     18 C14         0.7951    6.0236   -2.2803 C.ar      1 <0>        -0.0769
     19 C15         1.1602    4.8418   -2.8976 C.ar      1 <0>        -0.0943
     20 C16         0.6465    4.5232   -4.1443 C.ar      1 <0>         0.0478
     21 C17        -0.2432    5.3931   -4.7698 C.ar      1 <0>         0.0308
     22 C18        -0.6094    6.5728   -4.1425 C.ar      1 <0>        -0.0916
     23 O2         -0.6012    4.8593   -5.9740 O.3       1 <0>        -0.3118
     24 C19         0.3902    3.8548   -6.2593 C.3       1 <0>         0.2132
     25 O3          0.8459    3.4445   -4.9565 O.3       1 <0>        -0.3029
     26 C20        -2.8737    8.0922   -1.7109 C.2       1 <0>         0.5635
     27 S1         -4.1662    7.9085   -0.6034 S.2       1 <0>        -0.6300
     28 N3         -3.1268    8.4197   -2.9936 N.pl3     1 <0>        -0.6966
     29 C21        -4.5079    8.6184   -3.4401 C.3       1 <0>         0.1305
     30 C22        -4.5163    8.9793   -4.9269 C.3       1 <0>        -0.1702
     31 C23        -5.9586    9.1868   -5.3932 C.3       1 <0>         0.0002
     32 C24        -7.3326    9.5082   -7.3608 C.3       1 <0>        -0.0427
     33 C25        -5.3343   10.8395   -7.0489 C.3       1 <0>        -0.0480
     34 C26         0.9803   12.5836    3.4589 C.3       1 <0>        -0.1175
     35 H2         -4.3089   13.2846    4.3842 H         1 <0>         0.0722
     36 H3         -4.4986   11.7312    5.2323 H         1 <0>         0.0702
     37 H4         -3.3698   12.9559    5.8601 H         1 <0>         0.0697
     38 H5         -1.2313   13.3387    4.7984 H         1 <0>         0.1342
     39 H6         -3.9324   10.4117    3.2997 H         1 <0>         0.1377
     40 H7         -3.1321    8.6771    1.6380 H         1 <0>         0.1666
     41 H8         -0.4382    6.8297    0.0694 H         1 <0>         0.1030
     42 H9         -2.1813    6.8704    0.4275 H         1 <0>         0.1258
     43 H10        -0.8027    8.8957   -2.9692 H         1 <0>         0.0806
     44 H11         0.3569    8.5633   -1.6603 H         1 <0>         0.1301
     45 H12         1.2004    6.2728   -1.3108 H         1 <0>         0.1485
     46 H13         1.8504    4.1692   -2.4102 H         1 <0>         0.1441
     47 H14        -1.2995    7.2491   -4.6251 H         1 <0>         0.1195
     48 H15         1.2115    4.2802   -6.8360 H         1 <0>         0.0891
     49 H16        -0.0551    3.0143   -6.7916 H         1 <0>         0.1365
     50 H17        -2.3945    8.5239   -3.6211 H         1 <0>         0.3951
     51 H18        -5.0752    7.7006   -3.2858 H         1 <0>         0.0981
     52 H19        -4.9621    9.4269   -2.8673 H         1 <0>         0.0969
     53 H20        -3.9490    9.8972   -5.0812 H         1 <0>         0.0935
     54 H21        -4.0620    8.1708   -5.4996 H         1 <0>         0.0940
     55 H22        -6.5260    8.2690   -5.2389 H         1 <0>         0.1371
     56 H23        -6.4129    9.9954   -4.8204 H         1 <0>         0.1386
     57 H24        -7.9493   10.2282   -6.8229 H         1 <0>         0.1249
     58 H25        -7.3097    9.7684   -8.4190 H         1 <0>         0.1236
     59 H26        -7.7522    8.5094   -7.2413 H         1 <0>         0.1234
     60 H27        -4.3012   10.8085   -6.7026 H         1 <0>         0.1199
     61 H28        -5.3538   11.0715   -8.1138 H         1 <0>         0.1240
     62 H29        -5.8787   11.6077   -6.4997 H         1 <0>         0.1254
     63 H30         1.5654   12.1065    4.2451 H         1 <0>         0.0781
     64 H31         1.4791   12.4449    2.4997 H         1 <0>         0.0616
     65 H32         0.8886   13.6491    3.6700 H         1 <0>         0.0793
     66 N4         -5.9513    9.5136   -6.8347 N.4       1 <0>        -0.3980
     67 H33        -5.4013    8.8051   -7.3345 H         1 <0>         0.4314
@<TRIPOS>BOND
     1    1    2 1
     2    1   35 1
     3    1   36 1
     4    1   37 1
     5    2    7 ar
     6    2    3 ar
     7    3    4 ar
     8    3   38 1
     9    4    5 ar
    10    4   34 1
    11    5   12 1
    12    5    6 ar
    13    6    7 ar
    14    6    8 1
    15    7   39 1
    16    8    9 2
    17    8   40 1
    18    9   10 1
    19    9   14 1
    20   10   11 2
    21   10   12 am
    22   12   13 1
    23   14   15 1
    24   14   41 1
    25   14   42 1
    26   15   16 1
    27   15   26 1
    28   16   17 1
    29   16   43 1
    30   16   44 1
    31   17   22 ar
    32   17   18 ar
    33   18   19 ar
    34   18   45 1
    35   19   20 ar
    36   19   46 1
    37   20   25 1
    38   20   21 ar
    39   21   22 ar
    40   21   23 1
    41   22   47 1
    42   23   24 1
    43   24   25 1
    44   24   48 1
    45   24   49 1
    46   26   27 2
    47   26   28 1
    48   28   29 1
    49   28   50 1
    50   29   30 1
    51   29   51 1
    52   29   52 1
    53   30   31 1
    54   30   53 1
    55   30   54 1
    56   31   55 1
    57   31   56 1
    58   31   66 1
    59   32   57 1
    60   32   58 1
    61   32   59 1
    62   32   66 1
    63   33   60 1
    64   33   61 1
    65   33   62 1
    66   33   66 1
    67   34   63 1
    68   34   64 1
    69   34   65 1
    70   66   67 1
@<TRIPOS>MOLECULE
ZINC35746720
   69    72     0     0     0
SMALL
USER_CHARGES

@<TRIPOS>ATOM
      1 C1         -3.5754    1.1896   -1.0471 C.3       1 <0>        -0.1304
      2 C2         -3.3386   -0.2983   -1.0127 C.2       1 <0>         0.0309
      3 C3         -2.5306   -0.9007   -1.9788 C.2       1 <0>        -0.2253
      4 C4         -1.8121   -0.2819   -3.1162 C.2       1 <0>         0.5644
      5 O1         -1.8762    0.9178   -3.3175 O.2       1 <0>        -0.4720
      6 N1         -1.0854   -1.0801   -3.9224 N.am      1 <0>        -0.6241
      7 H1         -0.6084   -0.6906   -4.6719 H         1 <0>         0.4294
      8 C5         -1.0066   -2.4164   -3.7077 C.2       1 <0>         0.3785
      9 N2         -1.6271   -2.9937   -2.7149 N.2       1 <0>        -0.4914
     10 C6         -2.3697   -2.3006   -1.8614 C.2       1 <0>         0.0796
     11 S1         -3.3395   -2.7038   -0.4304 S.3       1 <0>         0.2796
     12 C7         -3.9092   -1.0595   -0.0337 C.2       1 <0>        -0.2196
     13 C8         -4.7759   -0.6332    1.0670 C.2       1 <0>         0.5522
     14 O2         -5.0704    0.5405    1.1897 O.2       1 <0>        -0.4723
     15 O3         -5.2478   -1.5423    1.9449 O.3       1 <0>        -0.3425
     16 C9         -6.0878   -1.0561    2.9938 C.3       1 <0>         0.0964
     17 C10        -6.5152   -2.2061    3.8689 C.2       1 <0>        -0.1692
     18 C11        -6.4761   -2.0868    5.1729 C.2       1 <0>        -0.1563
     19 C12        -0.1788   -3.2600   -4.6427 C.3       1 <0>         0.0387
     20 N3         -0.0968   -4.6312   -4.1221 N.4       1 <0>        -0.3698
     21 C13         0.1782   -5.5589   -5.2274 C.3       1 <0>        -0.0572
     22 C14         0.1606   -6.9962   -4.7032 C.3       1 <0>         0.0909
     23 H2          0.9330   -7.1153   -3.9433 H         1 <0>         0.1254
     24 C15         0.4279   -7.9636   -5.8580 C.3       1 <0>        -0.1049
     25 C16         0.5325   -9.3684   -5.3226 C.ar      1 <0>        -0.0965
     26 C17         1.7583   -9.8653   -4.9208 C.ar      1 <0>        -0.1167
     27 C18         1.8543  -11.1539   -4.4296 C.ar      1 <0>        -0.1167
     28 C19         0.7245  -11.9454   -4.3399 C.ar      1 <0>        -0.1111
     29 C20        -0.5014  -11.4481   -4.7409 C.ar      1 <0>        -0.1160
     30 C21        -0.5981  -10.1580   -5.2280 C.ar      1 <0>        -0.1010
     31 O4         -1.1180   -7.2790   -4.1311 O.3       1 <0>        -0.5448
     32 C22         0.9849   -4.7151   -3.1317 C.3       1 <0>         0.0216
     33 C23         0.7103   -3.7319   -1.9921 C.3       1 <0>        -0.1367
     34 C24         1.8369   -3.8193   -0.9606 C.3       1 <0>        -0.1194
     35 C25         3.1679   -3.4676   -1.6280 C.3       1 <0>        -0.1308
     36 C26         3.4425   -4.4508   -2.7676 C.3       1 <0>        -0.1160
     37 C27         2.3159   -4.3634   -3.7992 C.3       1 <0>        -0.1444
     38 H3         -2.8069    1.6934   -0.4608 H         1 <0>         0.0883
     39 H4         -3.5341    1.5404   -2.0783 H         1 <0>         0.0882
     40 H5         -4.5565    1.4112   -0.6269 H         1 <0>         0.0975
     41 H6         -5.5383   -0.3291    3.5919 H         1 <0>         0.0801
     42 H7         -6.9687   -0.5805    2.5628 H         1 <0>         0.0848
     43 H8         -6.8539   -3.1287    3.4210 H         1 <0>         0.1227
     44 H9         -6.1374   -1.1642    5.6207 H         1 <0>         0.1026
     45 H10        -6.7824   -2.9109    5.8000 H         1 <0>         0.1130
     46 H11        -0.6438   -3.2728   -5.6284 H         1 <0>         0.1696
     47 H12         0.8241   -2.8399   -4.7194 H         1 <0>         0.1681
     48 H13        -0.5850   -5.4435   -5.9970 H         1 <0>         0.1400
     49 H14         1.1580   -5.3388   -5.6513 H         1 <0>         0.1477
     50 H15        -0.3910   -7.9082   -6.5753 H         1 <0>         0.0883
     51 H16         1.3615   -7.6921   -6.3508 H         1 <0>         0.0931
     52 H17         2.6410   -9.2470   -4.9909 H         1 <0>         0.1201
     53 H18         2.8121  -11.5424   -4.1163 H         1 <0>         0.1255
     54 H19         0.7997  -12.9524   -3.9568 H         1 <0>         0.1259
     55 H20        -1.3840  -12.0666   -4.6711 H         1 <0>         0.1256
     56 H21        -1.5565   -9.7682   -5.5378 H         1 <0>         0.1199
     57 H22        -1.8544   -7.1927   -4.7519 H         1 <0>         0.3869
     58 H23         1.0348   -5.7284   -2.7332 H         1 <0>         0.1475
     59 H24         0.6604   -2.7186   -2.3906 H         1 <0>         0.0698
     60 H25        -0.2380   -3.9824   -1.5166 H         1 <0>         0.1052
     61 H26         1.6413   -3.1188   -0.1487 H         1 <0>         0.0818
     62 H27         1.8868   -4.8326   -0.5620 H         1 <0>         0.0772
     63 H28         3.1180   -2.4543   -2.0265 H         1 <0>         0.0666
     64 H29         3.9706   -3.5299   -0.8931 H         1 <0>         0.0802
     65 H30         4.3908   -4.2003   -3.2432 H         1 <0>         0.0860
     66 H31         3.4924   -5.4642   -2.3691 H         1 <0>         0.0774
     67 H32         2.5115   -5.0639   -4.6111 H         1 <0>         0.0909
     68 H33         2.2660   -3.3501   -4.1977 H         1 <0>         0.0841
     69 H34        -0.9724   -4.8782   -3.6856 H         1 <0>         0.4432
@<TRIPOS>BOND
     1    1    2 1
     2    1   38 1
     3    1   39 1
     4    1   40 1
     5    2   12 2
     6    2    3 1
     7    3   10 2
     8    3    4 1
     9    4    5 2
    10    4    6 am
    11    6    7 1
    12    6    8 1
    13    8    9 2
    14    8   19 1
    15    9   10 1
    16   10   11 1
    17   11   12 1
    18   12   13 1
    19   13   14 2
    20   13   15 1
    21   15   16 1
    22   16   17 1
    23   16   41 1
    24   16   42 1
    25   17   18 2
    26   17   43 1
    27   18   44 1
    28   18   45 1
    29   19   20 1
    30   19   46 1
    31   19   47 1
    32   20   21 1
    33   20   32 1
    34   20   69 1
    35   21   22 1
    36   21   48 1
    37   21   49 1
    38   22   23 1
    39   22   24 1
    40   22   31 1
    41   24   25 1
    42   24   50 1
    43   24   51 1
    44   25   30 ar
    45   25   26 ar
    46   26   27 ar
    47   26   52 1
    48   27   28 ar
    49   27   53 1
    50   28   29 ar
    51   28   54 1
    52   29   30 ar
    53   29   55 1
    54   30   56 1
    55   31   57 1
    56   32   37 1
    57   32   33 1
    58   32   58 1
    59   33   34 1
    60   33   59 1
    61   33   60 1
    62   34   35 1
    63   34   61 1
    64   34   62 1
    65   35   36 1
    66   35   63 1
    67   35   64 1
    68   36   37 1
    69   36   65 1
    70   36   66 1
    71   37   67 1
    72   37   68 1
@<TRIPOS>MOLECULE
ZINC38597168
   68    71     0     0     0
SMALL
USER_CHARGES

@<TRIPOS>ATOM
      1 C1          0.0054    1.4907    0.0100 C.3       1 <0>        -0.1671
      2 C2          0.0139   -0.0393    0.0032 C.3       1 <0>         0.1478
      3 H1          0.5376   -0.4036    0.8870 H         1 <0>         0.1021
      4 C3          0.7268   -0.5398   -1.2546 C.3       1 <0>         0.1726
      5 H2          0.8115   -1.6258   -1.2165 H         1 <0>         0.0818
      6 C4         -0.0645   -0.1401   -2.4733 C.2       1 <0>        -0.1846
      7 C5         -0.9234   -0.8820   -3.2144 C.2       1 <0>        -0.1311
      8 C6         -1.5450   -0.2996   -4.3030 C.2       1 <0>        -0.1619
      9 C7         -1.2773    0.9962   -4.5973 C.2       1 <0>        -0.1620
     10 S1         -0.1201    1.4356   -3.3107 S.3       1 <0>         0.0824
     11 N1          2.0687    0.0538   -1.3258 N.3       1 <0>        -0.5266
     12 C8          2.8408   -0.2424   -0.1108 C.3       1 <0>         0.0161
     13 C9          4.2068    0.4417   -0.1987 C.3       1 <0>        -0.0007
     14 N2          4.9228   -0.0449   -1.3853 N.4       1 <0>        -0.3855
     15 C10         4.1513    0.2800   -2.5923 C.3       1 <0>        -0.0048
     16 C11         2.7849   -0.4055   -2.5243 C.3       1 <0>         0.0265
     17 C12         6.2413    0.5986   -1.4594 C.3       1 <0>         0.0459
     18 C13         7.0238    0.0103   -2.6051 C.ar      1 <0>        -0.1624
     19 C14         7.8261   -1.0962   -2.3981 C.ar      1 <0>        -0.0940
     20 C15         8.5438   -1.6359   -3.4491 C.ar      1 <0>        -0.1131
     21 C16         8.4589   -1.0693   -4.7071 C.ar      1 <0>        -0.0838
     22 C17         7.6559    0.0367   -4.9143 C.ar      1 <0>        -0.1132
     23 C18         6.9348    0.5737   -3.8643 C.ar      1 <0>        -0.0969
     24 N3         -1.3645   -0.5354    0.0133 N.am      1 <0>        -0.6964
     25 C19        -2.0227   -0.6729    1.1813 C.2       1 <0>         0.5189
     26 O1         -1.4735   -0.3858    2.2248 O.2       1 <0>        -0.5077
     27 C20        -3.4278   -1.1786    1.1916 C.2       1 <0>         0.5055
     28 O2         -3.9771   -1.4658    0.1479 O.2       1 <0>        -0.4971
     29 N4         -4.0859   -1.3162    2.3597 N.am      1 <0>        -0.6277
     30 C21        -5.4310   -1.7000    2.3635 C.ar      1 <0>         0.1142
     31 C22        -5.9041   -2.5874    1.4069 C.ar      1 <0>        -0.0736
     32 C23        -7.2342   -2.9651    1.4131 C.ar      1 <0>        -0.0553
     33 C24        -8.0958   -2.4598    2.3712 C.ar      1 <0>        -0.0727
     34 C25        -7.6310   -1.5757    3.3269 C.ar      1 <0>        -0.1783
     35 C26        -6.2984   -1.1970    3.3314 C.ar      1 <0>         0.1196
     36 O3         -5.8391   -0.3317    4.2744 O.3       1 <0>        -0.3143
     37 C27        -6.7847    0.1431    5.2349 C.3       1 <0>         0.0248
     38 Cl1        -7.8248   -4.0750    0.2161 Cl        1 <0>        -0.0572
     39 H3          1.0309    1.8598    0.0025 H         1 <0>         0.0787
     40 H4         -0.5184    1.8550   -0.8738 H         1 <0>         0.0707
     41 H5         -0.5026    1.8472    0.9061 H         1 <0>         0.0666
     42 H6         -1.1189   -1.9128   -2.9584 H         1 <0>         0.1348
     43 H7         -2.2334   -0.8686   -4.9103 H         1 <0>         0.1398
     44 H8         -1.6662    1.6059   -5.3994 H         1 <0>         0.1893
     45 H9          2.3032    0.1295    0.7614 H         1 <0>         0.1311
     46 H10         2.9788   -1.3199   -0.0212 H         1 <0>         0.0670
     47 H11         4.0688    1.5202   -0.2745 H         1 <0>         0.1409
     48 H12         4.7866    0.2116    0.6952 H         1 <0>         0.1390
     49 H13         4.0136    1.3594   -2.6559 H         1 <0>         0.1396
     50 H14         4.6900   -0.0700   -3.4729 H         1 <0>         0.1368
     51 H15         2.9219   -1.4857   -2.4745 H         1 <0>         0.0638
     52 H16         2.2065   -0.1525   -3.4129 H         1 <0>         0.1268
     53 H17         6.1146    1.6695   -1.6179 H         1 <0>         0.1371
     54 H18         6.7805    0.4306   -0.5270 H         1 <0>         0.1376
     55 H19         7.8925   -1.5389   -1.4153 H         1 <0>         0.1306
     56 H20         9.1712   -2.4999   -3.2872 H         1 <0>         0.1359
     57 H21         9.0202   -1.4905   -5.5281 H         1 <0>         0.1358
     58 H22         7.5898    0.4795   -5.8971 H         1 <0>         0.1363
     59 H23         6.3045    1.4355   -4.0269 H         1 <0>         0.1316
     60 H24        -1.8035   -0.7648   -0.8207 H         1 <0>         0.4156
     61 H25        -3.6269   -1.1489    3.1976 H         1 <0>         0.4284
     62 H26        -5.2338   -2.9824    0.6579 H         1 <0>         0.1571
     63 H27        -9.1341   -2.7569    2.3720 H         1 <0>         0.1428
     64 H28        -8.3062   -1.1831    4.0728 H         1 <0>         0.1470
     65 H29        -6.2891    0.8238    5.9270 H         1 <0>         0.1064
     66 H30        -7.5903    0.6690    4.7224 H         1 <0>         0.0609
     67 H31        -7.1962   -0.7014    5.7878 H         1 <0>         0.0616
     68 H32         5.0403   -1.0449   -1.3205 H         1 <0>         0.4200
@<TRIPOS>BOND
     1    1    2 1
     2    1   39 1
     3    1   40 1
     4    1   41 1
     5    2    3 1
     6    2    4 1
     7    2   24 1
     8    4    5 1
     9    4    6 1
    10    4   11 1
    11    6   10 1
    12    6    7 2
    13    7    8 1
    14    7   42 1
    15    8    9 2
    16    8   43 1
    17    9   10 1
    18    9   44 1
    19   11   16 1
    20   11   12 1
    21   12   13 1
    22   12   45 1
    23   12   46 1
    24   13   14 1
    25   13   47 1
    26   13   48 1
    27   14   15 1
    28   14   17 1
    29   14   68 1
    30   15   16 1
    31   15   49 1
    32   15   50 1
    33   16   51 1
    34   16   52 1
    35   17   18 1
    36   17   53 1
    37   17   54 1
    38   18   23 ar
    39   18   19 ar
    40   19   20 ar
    41   19   55 1
    42   20   21 ar
    43   20   56 1
    44   21   22 ar
    45   21   57 1
    46   22   23 ar
    47   22   58 1
    48   23   59 1
    49   24   25 am
    50   24   60 1
    51   25   26 2
    52   25   27 1
    53   27   28 2
    54   27   29 am
    55   29   30 1
    56   29   61 1
    57   30   35 ar
    58   30   31 ar
    59   31   32 ar
    60   31   62 1
    61   32   33 ar
    62   32   38 1
    63   33   34 ar
    64   33   63 1
    65   34   35 ar
    66   34   64 1
    67   35   36 1
    68   36   37 1
    69   37   65 1
    70   37   66 1
    71   37   67 1
@<TRIPOS>MOLECULE
ZINC43526680
   75    79     0     0     0
SMALL
USER_CHARGES

@<TRIPOS>ATOM
      1 C1          1.9375    0.1554   -0.6961 C.3       1 <0>        -0.1172
      2 C2          1.0544   -1.0372   -0.4336 C.ar      1 <0>        -0.0676
      3 C3          0.2458   -1.5328   -1.4400 C.ar      1 <0>        -0.1071
      4 C4         -0.5656   -2.6272   -1.2033 C.ar      1 <0>        -0.0714
      5 C5         -0.5707   -3.2290    0.0398 C.ar      1 <0>        -0.1261
      6 C6          0.2402   -2.7337    1.0527 C.ar      1 <0>         0.1144
      7 C7          1.0579   -1.6376    0.8101 C.ar      1 <0>        -0.0774
      8 N1          0.2374   -3.3409    2.3129 N.pl3     1 <0>        -0.6163
      9 C8          0.2563   -2.5821    3.4266 C.2       1 <0>         0.5438
     10 S1          0.1420   -0.8784    3.3036 S.2       1 <0>        -0.5622
     11 N2          0.3653   -3.1645    4.6371 N.pl3     1 <0>        -0.7142
     12 C9          0.3860   -2.3397    5.8477 C.3       1 <0>         0.1063
     13 C10         0.5162   -3.2412    7.0769 C.3       1 <0>         0.0167
     14 H1          1.4819   -3.7461    7.0546 H         1 <0>         0.1469
     15 C11         0.4178   -2.3892    8.3443 C.3       1 <0>        -0.1276
     16 C12        -0.7767   -2.8747    9.1759 C.3       1 <0>        -0.0885
     17 H2         -0.8635   -2.2882   10.0905 H         1 <0>         0.1222
     18 C13        -2.0474   -2.7292    8.3283 C.3       1 <0>        -0.1433
     19 C14        -1.8849   -3.5539    7.0495 C.3       1 <0>        -0.0047
     20 N3         -0.5550   -4.2403    7.0626 N.4       1 <0>        -0.3854
     21 C15        -0.4331   -5.1435    8.2094 C.3       1 <0>         0.0002
     22 C16        -0.5615   -4.3561    9.5127 C.3       1 <0>        -0.0326
     23 H3          0.3498   -4.4686   10.1000 H         1 <0>         0.1203
     24 C17        -1.7392   -4.8714   10.2993 C.2       1 <0>         0.0724
     25 C18        -2.9029   -5.3229    9.7828 C.2       1 <0>        -0.2585
     26 C19        -3.7306   -5.7082   10.8553 C.2       1 <0>         0.1346
     27 N4         -3.0722   -5.4895   11.9739 N.2       1 <0>        -0.2667
     28 N5         -1.8146   -4.9684   11.6440 N.pl3     1 <0>        -0.3537
     29 C20        -0.7646   -4.5906   12.5933 C.3       1 <0>         0.0905
     30 C21        -5.1030   -6.2620   10.7440 C.ar      1 <0>        -0.0304
     31 C22        -5.6809   -6.4473    9.4897 C.ar      1 <0>        -0.0891
     32 C23        -6.9572   -6.9624    9.3866 C.ar      1 <0>        -0.1760
     33 C24        -7.6669   -7.2970   10.5298 C.ar      1 <0>         0.1188
     34 C25        -7.0940   -7.1144   11.7857 C.ar      1 <0>         0.1031
     35 C26        -5.8131   -6.6029   11.8933 C.ar      1 <0>        -0.1429
     36 O1         -7.7916   -7.4432   12.9058 O.3       1 <0>        -0.3019
     37 C27        -7.1422   -7.2294   14.1607 C.3       1 <0>         0.0244
     38 O2         -8.9243   -7.8039   10.4243 O.3       1 <0>        -0.3012
     39 C28        -9.4505   -7.9644    9.1054 C.3       1 <0>         0.0236
     40 C29        -1.4456   -3.1636   -2.3029 C.3       1 <0>        -0.1170
     41 H4          2.9059   -0.1835   -1.0639 H         1 <0>         0.0730
     42 H5          1.4694    0.7967   -1.4429 H         1 <0>         0.0710
     43 H6          2.0758    0.7156    0.2286 H         1 <0>         0.0711
     44 H7          0.2477   -1.0638   -2.4129 H         1 <0>         0.1288
     45 H8         -1.2049   -4.0835    0.2241 H         1 <0>         0.1228
     46 H9          1.6927   -1.2527    1.5945 H         1 <0>         0.1400
     47 H10         0.2217   -4.3081    2.3852 H         1 <0>         0.4059
     48 H11         0.4302   -4.1298    4.7068 H         1 <0>         0.3872
     49 H12         1.2339   -1.6560    5.8071 H         1 <0>         0.1331
     50 H13        -0.5394   -1.7674    5.9132 H         1 <0>         0.1158
     51 H14         1.3339   -2.4925    8.9259 H         1 <0>         0.1110
     52 H15         0.2721   -1.3440    8.0714 H         1 <0>         0.1158
     53 H16        -2.9061   -3.0943    8.8918 H         1 <0>         0.1114
     54 H17        -2.1964   -1.6807    8.0703 H         1 <0>         0.1079
     55 H18        -2.6715   -4.3070    7.0024 H         1 <0>         0.1313
     56 H19        -1.9631   -2.8971    6.1832 H         1 <0>         0.1367
     57 H20        -1.2211   -5.8952    8.1631 H         1 <0>         0.1428
     58 H21         0.5380   -5.6376    8.1790 H         1 <0>         0.1400
     59 H22        -3.1541   -5.3783    8.7339 H         1 <0>         0.1442
     60 H23        -0.8892   -3.5453   12.8758 H         1 <0>         0.0839
     61 H24        -0.8353   -5.2180   13.4819 H         1 <0>         0.0995
     62 H25         0.2118   -4.7275   12.1286 H         1 <0>         0.0889
     63 H26        -5.1301   -6.1873    8.5979 H         1 <0>         0.1257
     64 H27        -7.4041   -7.1047    8.4138 H         1 <0>         0.1418
     65 H28        -5.3658   -6.4646   12.8666 H         1 <0>         0.1434
     66 H29        -7.8066   -7.5322   14.9699 H         1 <0>         0.1059
     67 H30        -6.2271   -7.8203   14.2015 H         1 <0>         0.0564
     68 H31        -6.8974   -6.1727   14.2677 H         1 <0>         0.0566
     69 H32        -8.8125   -8.6436    8.5399 H         1 <0>         0.0572
     70 H33       -10.4579   -8.3763    9.1638 H         1 <0>         0.1058
     71 H34        -9.4823   -6.9958    8.6065 H         1 <0>         0.0574
     72 H35        -0.9005   -3.9193   -2.8684 H         1 <0>         0.0742
     73 H36        -2.3396   -3.6102   -1.8675 H         1 <0>         0.0667
     74 H37        -1.7332   -2.3493   -2.9679 H         1 <0>         0.0724
     75 H38        -0.4671   -4.7905    6.2214 H         1 <0>         0.4155
@<TRIPOS>BOND
     1    1    2 1
     2    1   41 1
     3    1   42 1
     4    1   43 1
     5    2    7 ar
     6    2    3 ar
     7    3    4 ar
     8    3   44 1
     9    4    5 ar
    10    4   40 1
    11    5    6 ar
    12    5   45 1
    13    6    7 ar
    14    6    8 1
    15    7   46 1
    16    8    9 1
    17    8   47 1
    18    9   10 2
    19    9   11 1
    20   11   12 1
    21   11   48 1
    22   12   13 1
    23   12   49 1
    24   12   50 1
    25   13   14 1
    26   13   20 1
    27   13   15 1
    28   15   16 1
    29   15   51 1
    30   15   52 1
    31   16   17 1
    32   16   22 1
    33   16   18 1
    34   18   19 1
    35   18   53 1
    36   18   54 1
    37   19   20 1
    38   19   55 1
    39   19   56 1
    40   20   21 1
    41   20   75 1
    42   21   22 1
    43   21   57 1
    44   21   58 1
    45   22   23 1
    46   22   24 1
    47   24   28 1
    48   24   25 2
    49   25   26 1
    50   25   59 1
    51   26   27 2
    52   26   30 1
    53   27   28 1
    54   28   29 1
    55   29   60 1
    56   29   61 1
    57   29   62 1
    58   30   35 ar
    59   30   31 ar
    60   31   32 ar
    61   31   63 1
    62   32   33 ar
    63   32   64 1
    64   33   34 ar
    65   33   38 1
    66   34   35 ar
    67   34   36 1
    68   35   65 1
    69   36   37 1
    70   37   66 1
    71   37   67 1
    72   37   68 1
    73   38   39 1
    74   39   69 1
    75   39   70 1
    76   39   71 1
    77   40   72 1
    78   40   73 1
    79   40   74 1
@<TRIPOS>MOLECULE
ZINC63588498
   68    71     0     0     0
SMALL
USER_CHARGES

@<TRIPOS>ATOM
      1 C1         -4.0236   -3.8937   -3.0129 C.3       1 <0>         0.0909
      2 N1         -3.2094   -4.9325   -3.6487 N.pl3     1 <0>        -0.6387
      3 C2         -3.4815   -6.3459   -3.3756 C.3       1 <0>         0.0946
      4 C3         -2.1736   -4.5754   -4.5155 C.ar      1 <0>         0.2011
      5 C4         -1.4046   -5.5611   -5.1234 C.ar      1 <0>        -0.1662
      6 C5         -0.3794   -5.2123   -5.9818 C.ar      1 <0>        -0.0897
      7 C6         -0.1123   -3.8830   -6.2412 C.ar      1 <0>        -0.1165
      8 C7         -0.8779   -2.8865   -5.6357 C.ar      1 <0>        -0.0796
      9 C8         -1.9160   -3.2377   -4.7741 C.ar      1 <0>        -0.1439
     10 C9         -0.5924   -1.4595   -5.9118 C.2       1 <0>         0.5441
     11 O1         -1.2621   -0.5908   -5.3822 O.2       1 <0>        -0.5361
     12 N2          0.4022   -1.1244   -6.7439 N.2       1 <0>        -0.6491
     13 C10         0.5940    0.1451   -7.0695 C.2       1 <0>         0.6995
     14 N3         -0.1278    1.1246   -6.4513 N.pl3     1 <0>        -0.6940
     15 C11        -0.8711    2.0340   -7.2141 C.ar      1 <0>         0.1782
     16 C12        -1.5046    1.6113   -8.3753 C.ar      1 <0>        -0.1485
     17 C13        -2.2384    2.5072   -9.1291 C.ar      1 <0>        -0.1412
     18 C14        -2.3438    3.8293   -8.7280 C.ar      1 <0>         0.0777
     19 C15        -1.7105    4.2559   -7.5646 C.ar      1 <0>         0.1281
     20 C16        -0.9793    3.3566   -6.8063 C.ar      1 <0>        -0.2116
     21 O2         -1.8129    5.5534   -7.1704 O.3       1 <0>        -0.3012
     22 C17        -1.1370    5.9208   -5.9662 C.3       1 <0>         0.0248
     23 O3         -3.0660    4.7105   -9.4718 O.3       1 <0>        -0.3056
     24 C18        -3.6888    4.2039  -10.6539 C.3       1 <0>         0.0245
     25 N4          1.5129    0.4735   -8.0228 N.pl3     1 <0>        -0.6907
     26 C19         1.7765    1.8810   -8.3321 C.3       1 <0>         0.1162
     27 C20         2.8432    1.9719   -9.4251 C.3       1 <0>        -0.1043
     28 C21         3.2021    3.4169   -9.6579 C.2       1 <0>         0.0684
     29 C22         4.2060    4.1098   -9.0735 C.ar      1 <0>        -0.1644
     30 C23         5.2244    3.7401   -8.0833 C.ar      1 <0>        -0.0146
     31 C24         6.1167    4.6731   -7.6802 C.ar      1 <0>        -0.1486
     32 C25         6.0928    5.9814   -8.1828 C.ar      1 <0>         0.0544
     33 C26         5.1878    6.3959   -9.0944 C.ar      1 <0>        -0.2091
     34 C27         4.2025    5.4975   -9.5890 C.ar      1 <0>         0.3281
     35 N5          3.2341    5.6564  -10.4583 N.pl3     1 <0>        -0.5819
     36 C28         2.5167    4.3841  -10.5971 C.3       1 <0>         0.0594
     37 H1         -3.5718   -3.6088   -2.0628 H         1 <0>         0.0493
     38 H2         -4.0760   -3.0226   -3.6661 H         1 <0>         0.0681
     39 H3         -5.0287   -4.2768   -2.8369 H         1 <0>         0.0689
     40 H4         -4.3186   -6.4274   -2.6823 H         1 <0>         0.0752
     41 H5         -3.7303   -6.8546   -4.3070 H         1 <0>         0.0550
     42 H6         -2.5980   -6.8073   -2.9344 H         1 <0>         0.0553
     43 H7         -1.6089   -6.6027   -4.9239 H         1 <0>         0.1248
     44 H8          0.2151   -5.9823   -6.4511 H         1 <0>         0.1270
     45 H9          0.6899   -3.6145   -6.9126 H         1 <0>         0.1336
     46 H10        -2.5150   -2.4704   -4.3064 H         1 <0>         0.1311
     47 H11        -0.1259    1.1910   -5.4836 H         1 <0>         0.4302
     48 H12        -1.4234    0.5813   -8.6897 H         1 <0>         0.1266
     49 H13        -2.7301    2.1767  -10.0321 H         1 <0>         0.1419
     50 H14        -0.4905    3.6848   -5.9010 H         1 <0>         0.1393
     51 H15        -1.5265    5.3310   -5.1364 H         1 <0>         0.0601
     52 H16        -0.0692    5.7317   -6.0766 H         1 <0>         0.0504
     53 H17        -1.2996    6.9800   -5.7669 H         1 <0>         0.1050
     54 H18        -2.9264    3.8095  -11.3257 H         1 <0>         0.0534
     55 H19        -4.3839    3.4082  -10.3860 H         1 <0>         0.0584
     56 H20        -4.2311    5.0077  -11.1518 H         1 <0>         0.1043
     57 H21         1.9918   -0.2249   -8.4958 H         1 <0>         0.4268
     58 H22         0.8585    2.3546   -8.6801 H         1 <0>         0.0870
     59 H23         2.1305    2.3899   -7.4356 H         1 <0>         0.0812
     60 H24         3.7314    1.4228   -9.1125 H         1 <0>         0.1208
     61 H25         2.4555    1.5406  -10.3480 H         1 <0>         0.1222
     62 H26         5.2606    2.7379   -7.6824 H         1 <0>         0.1610
     63 H27         6.8669    4.4032   -6.9517 H         1 <0>         0.1584
     64 H28         6.8286    6.6867   -7.8257 H         1 <0>         0.1614
     65 H29         5.2118    7.4155   -9.4499 H         1 <0>         0.1612
     66 H30         2.5838    4.0226  -11.6232 H         1 <0>         0.1765
     67 H31         1.4728    4.5105  -10.3102 H         1 <0>         0.1740
     68 H32         3.0287    6.4768  -10.9333 H         1 <0>         0.4568
@<TRIPOS>BOND
     1    1    2 1
     2    1   37 1
     3    1   38 1
     4    1   39 1
     5    2    3 1
     6    2    4 1
     7    3   40 1
     8    3   41 1
     9    3   42 1
    10    4    9 ar
    11    4    5 ar
    12    5    6 ar
    13    5   43 1
    14    6    7 ar
    15    6   44 1
    16    7    8 ar
    17    7   45 1
    18    8    9 ar
    19    8   10 1
    20    9   46 1
    21   10   12 1
    22   10   11 2
    23   12   13 2
    24   13   14 1
    25   13   25 1
    26   14   15 1
    27   14   47 1
    28   15   20 ar
    29   15   16 ar
    30   16   17 ar
    31   16   48 1
    32   17   18 ar
    33   17   49 1
    34   18   19 ar
    35   18   23 1
    36   19   20 ar
    37   19   21 1
    38   20   50 1
    39   21   22 1
    40   22   51 1
    41   22   52 1
    42   22   53 1
    43   23   24 1
    44   24   54 1
    45   24   55 1
    46   24   56 1
    47   25   26 1
    48   25   57 1
    49   26   27 1
    50   26   58 1
    51   26   59 1
    52   27   28 1
    53   27   60 1
    54   27   61 1
    55   28   36 1
    56   28   29 2
    57   29   34 ar
    58   29   30 ar
    59   30   31 ar
    60   30   62 1
    61   31   32 ar
    62   31   63 1
    63   32   33 ar
    64   32   64 1
    65   33   34 ar
    66   33   65 1
    67   34   35 2
    68   35   36 1
    69   35   68 1
    70   36   66 1
    71   36   67 1
@<TRIPOS>MOLECULE
ZINC09426313
   54    57     0     0     0
SMALL
USER_CHARGES
2-(1-cyclohex-3-enyl)-4-[(4-methoxyphenyl)methylamino]-8-methyl-1,3,5,7-tetrazabicyclo[4.4.0]deca-3,6,8-trien-10-one
@<TRIPOS>ATOM
      1 C1         -0.0127    1.0858    0.0080 C.3       1 <0>        -0.1159
      2 C2         -0.7181    1.5718    1.2479 C.2       1 <0>         0.1961
      3 C3         -0.8525    2.9108    1.4727 C.2       1 <0>        -0.2675
      4 C4         -1.5244    3.3443    2.6321 C.2       1 <0>         0.5412
      5 O1         -1.6569    4.5338    2.8692 O.2       1 <0>        -0.4970
      6 N1         -2.0121    2.4159    3.4742 N.am      1 <0>        -0.5439
      7 C5         -1.8264    1.0891    3.2079 C.2       1 <0>         0.5900
      8 N2         -1.2037    0.6917    2.1239 N.2       1 <0>        -0.4995
      9 N3         -2.3170    0.1884    4.1343 N.pl3     1 <0>        -0.6257
     10 C6         -2.2436    0.5794    5.4670 C.cat     1 <0>         0.7306
     11 C7         -2.7563    2.7904    4.6804 C.3       1 <0>         0.3379
     12 H1         -2.4712    3.7968    4.9870 H         1 <0>         0.1619
     13 C8         -4.2578    2.7482    4.3892 C.3       1 <0>        -0.1055
     14 H2         -4.5413    1.7448    4.0716 H         1 <0>         0.0888
     15 C9         -5.0390    3.1289    5.6531 C.3       1 <0>        -0.1143
     16 C10        -6.5293    2.9062    5.3864 C.3       1 <0>        -0.0903
     17 C11        -6.9247    3.5523    4.0910 C.2       1 <0>        -0.1538
     18 C12        -6.0845    3.9179    3.1767 C.2       1 <0>        -0.1548
     19 C13        -4.5968    3.7559    3.2887 C.3       1 <0>        -0.0813
     20 N4         -1.9750   -0.3361    6.4566 N.pl3     1 <0>        -0.6482
     21 C14        -1.7618   -1.7443    6.1135 C.3       1 <0>         0.1425
     22 C15        -1.4875   -2.5313    7.3691 C.ar      1 <0>        -0.1863
     23 C16        -0.1883   -2.6882    7.8153 C.ar      1 <0>        -0.0455
     24 C17         0.0653   -3.4044    8.9690 C.ar      1 <0>        -0.2117
     25 C18        -0.9840   -3.9760    9.6739 C.ar      1 <0>         0.1630
     26 C19        -2.2862   -3.8219    9.2210 C.ar      1 <0>        -0.1537
     27 C20        -2.5350   -3.1000    8.0698 C.ar      1 <0>        -0.0484
     28 O2         -0.7367   -4.6854   10.8064 O.3       1 <0>        -0.3090
     29 C21         0.6281   -4.8028   11.2133 C.3       1 <0>         0.0219
     30 H3          0.0021   -0.0041    0.0020 H         1 <0>         0.0893
     31 H4          1.0099    1.4631    0.0003 H         1 <0>         0.0976
     32 H5         -0.5399    1.4469   -0.8751 H         1 <0>         0.0987
     33 H6         -0.4532    3.6274    0.7702 H         1 <0>         0.1769
     34 H7         -2.6912   -0.6667    3.8702 H         1 <0>         0.4681
     35 H8         -4.7180    2.5021    6.4851 H         1 <0>         0.0671
     36 H9         -4.8622    4.1778    5.8912 H         1 <0>         0.0833
     37 H10        -6.7308    1.8364    5.3329 H         1 <0>         0.0760
     38 H11        -7.1109    3.3433    6.1981 H         1 <0>         0.0854
     39 H12        -7.9757    3.7232    3.9104 H         1 <0>         0.1127
     40 H13        -6.4786    4.3678    2.2774 H         1 <0>         0.1144
     41 H14        -4.1456    4.7186    3.5288 H         1 <0>         0.0940
     42 H15        -4.1996    3.4000    2.3381 H         1 <0>         0.0714
     43 H16        -1.9267   -0.0498    7.3821 H         1 <0>         0.4404
     44 H17        -2.6531   -2.1383    5.6252 H         1 <0>         0.1047
     45 H18        -0.9102   -1.8289    5.4384 H         1 <0>         0.1086
     46 H19         0.6286   -2.2467    7.2637 H         1 <0>         0.1303
     47 H20         1.0799   -3.5230    9.3196 H         1 <0>         0.1384
     48 H21        -3.1048   -4.2656    9.7682 H         1 <0>         0.1416
     49 H22        -3.5486   -2.9795    7.7170 H         1 <0>         0.1352
     50 H23         1.2002   -5.2964   10.4278 H         1 <0>         0.0620
     51 H24         1.0402   -3.8100   11.3938 H         1 <0>         0.0607
     52 H25         0.6849   -5.3917   12.1289 H         1 <0>         0.1099
     53 N5         -2.4320    1.8605    5.8202 N.pl3     1 <0>        -0.6632
     54 H26        -2.3606    2.1821    6.7927 H         1 <0>         0.4748
@<TRIPOS>BOND
     1    1    2 1
     2    1   30 1
     3    1   31 1
     4    1   32 1
     5    2    8 1
     6    2    3 2
     7    3    4 1
     8    3   33 1
     9    4    5 2
    10    4    6 am
    11    6   11 1
    12    6    7 1
    13    7    8 2
    14    7    9 1
    15    9   10 1
    16    9   34 1
    17   10   20 1
    18   10   53 2
    19   11   12 1
    20   11   13 1
    21   11   53 1
    22   13   14 1
    23   13   19 1
    24   13   15 1
    25   15   16 1
    26   15   35 1
    27   15   36 1
    28   16   17 1
    29   16   37 1
    30   16   38 1
    31   17   18 2
    32   17   39 1
    33   18   19 1
    34   18   40 1
    35   19   41 1
    36   19   42 1
    37   20   21 1
    38   20   43 1
    39   21   22 1
    40   21   44 1
    41   21   45 1
    42   22   27 ar
    43   22   23 ar
    44   23   24 ar
    45   23   46 1
    46   24   25 ar
    47   24   47 1
    48   25   26 ar
    49   25   28 1
    50   26   27 ar
    51   26   48 1
    52   27   49 1
    53   28   29 1
    54   29   50 1
    55   29   51 1
    56   29   52 1
    57   53   54 1
@<TRIPOS>MOLECULE
ZINC19210539
   51    54     0     0     0
SMALL
USER_CHARGES

@<TRIPOS>ATOM
      1 C1          0.2495    1.4249   -0.5190 C.3       1 <0>        -0.1158
      2 C2          0.2292   -0.0799   -0.4397 C.ar      1 <0>        -0.0923
      3 C3          0.2368   -0.8321   -1.5999 C.ar      1 <0>        -0.0975
      4 C4          0.2183   -2.2115   -1.5303 C.ar      1 <0>        -0.1352
      5 C5          0.1924   -2.8425   -0.2940 C.ar      1 <0>         0.1153
      6 C6          0.1853   -2.0846    0.8690 C.ar      1 <0>        -0.1361
      7 C7          0.2088   -0.7056    0.7932 C.ar      1 <0>        -0.0977
      8 N1          0.1731   -4.2424   -0.2202 N.am      1 <0>        -0.5392
      9 C8          0.1840   -5.0623   -1.3215 C.2       1 <0>         0.5783
     10 O1         -0.0085   -4.7512   -2.4773 O.2       1 <0>        -0.4371
     11 C9          0.4752   -6.3748   -0.8003 C.3       1 <0>        -0.1784
     12 H1          1.5296   -6.2957   -0.5353 H         1 <0>         0.1334
     13 C10         0.3414   -7.7969   -1.1606 C.3       1 <0>         0.1693
     14 H2         -0.6825   -8.0293   -1.4534 H         1 <0>         0.0896
     15 N2          0.6999   -8.4834    0.1284 N.3       1 <0>        -0.6478
     16 C11         0.4620   -7.5172    1.2421 C.3       1 <0>         0.1310
     17 C12        -0.2750   -6.3374    0.5903 C.3       1 <0>        -0.1445
     18 H3         -1.3547   -6.4706    0.5233 H         1 <0>         0.1639
     19 C13         0.1473   -4.9380    0.9553 C.2       1 <0>         0.5378
     20 O2          0.4083   -4.5158    2.0613 O.2       1 <0>        -0.4271
     21 C14        -0.4250   -8.1529    2.3144 C.3       1 <0>        -0.1531
     22 C15         1.7733   -7.0783    1.8411 C.2       1 <0>         0.4725
     23 O3          1.8475   -6.8386    3.0230 O.2       1 <0>        -0.4746
     24 O4          2.8590   -6.9537    1.0616 O.3       1 <0>        -0.3419
     25 C16         4.0685   -6.5335    1.6962 C.3       1 <0>         0.0288
     26 C17         1.3084   -8.1676   -2.2553 C.ar      1 <0>        -0.0989
     27 C18         2.6310   -8.4290   -1.9485 C.ar      1 <0>        -0.0670
     28 C19         3.5196   -8.7687   -2.9502 C.ar      1 <0>        -0.1527
     29 C20         3.0838   -8.8478   -4.2649 C.ar      1 <0>         0.1123
     30 C21         1.7561   -8.5854   -4.5701 C.ar      1 <0>        -0.1488
     31 C22         0.8703   -8.2513   -3.5640 C.ar      1 <0>        -0.0827
     32 O5          3.9561   -9.1812   -5.2523 O.3       1 <0>        -0.5007
     33 H4          1.2819    1.7744   -0.5279 H         1 <0>         0.0726
     34 H5         -0.2511    1.7474   -1.4320 H         1 <0>         0.0686
     35 H6         -0.2676    1.8413    0.3454 H         1 <0>         0.0682
     36 H7          0.2569   -0.3407   -2.5614 H         1 <0>         0.1317
     37 H8          0.2235   -2.7985   -2.4368 H         1 <0>         0.1502
     38 H9          0.1649   -2.5727    1.8322 H         1 <0>         0.1472
     39 H10         0.2071   -0.1155    1.6978 H         1 <0>         0.1311
     40 H11         0.1543   -9.3226    0.2550 H         1 <0>         0.3659
     41 H12         0.0772   -9.0264    2.7304 H         1 <0>         0.0808
     42 H13        -0.6115   -7.4290    3.1077 H         1 <0>         0.0890
     43 H14        -1.3726   -8.4563    1.8692 H         1 <0>         0.0810
     44 H15         4.3429   -7.2530    2.4677 H         1 <0>         0.0650
     45 H16         4.8656   -6.4736    0.9552 H         1 <0>         0.1043
     46 H17         3.9194   -5.5536    2.1496 H         1 <0>         0.0603
     47 H18         2.9698   -8.3673   -0.9248 H         1 <0>         0.1433
     48 H19         4.5527   -8.9721   -2.7102 H         1 <0>         0.1282
     49 H20         1.4144   -8.6463   -5.5928 H         1 <0>         0.1297
     50 H21        -0.1643   -8.0513   -3.8005 H         1 <0>         0.1277
     51 H22         4.0134  -10.1315   -5.4220 H         1 <0>         0.3918
@<TRIPOS>BOND
     1    1    2 1
     2    1   33 1
     3    1   34 1
     4    1   35 1
     5    2    7 ar
     6    2    3 ar
     7    3    4 ar
     8    3   36 1
     9    4    5 ar
    10    4   37 1
    11    5    6 ar
    12    5    8 1
    13    6    7 ar
    14    6   38 1
    15    7   39 1
    16    8   19 am
    17    8    9 am
    18    9   10 2
    19    9   11 1
    20   11   12 1
    21   11   17 1
    22   11   13 1
    23   13   14 1
    24   13   15 1
    25   13   26 1
    26   15   16 1
    27   15   40 1
    28   16   17 1
    29   16   21 1
    30   16   22 1
    31   17   18 1
    32   17   19 1
    33   19   20 2
    34   21   41 1
    35   21   42 1
    36   21   43 1
    37   22   23 2
    38   22   24 1
    39   24   25 1
    40   25   44 1
    41   25   45 1
    42   25   46 1
    43   26   31 ar
    44   26   27 ar
    45   27   28 ar
    46   27   47 1
    47   28   29 ar
    48   28   48 1
    49   29   30 ar
    50   29   32 1
    51   30   31 ar
    52   30   49 1
    53   31   50 1
    54   32   51 1
@<TRIPOS>MOLECULE
ZINC39467980
   46    49     0     0     0
SMALL
USER_CHARGES

@<TRIPOS>ATOM
      1 C1         -0.0184    1.5028    0.0103 C.3       1 <0>        -0.1341
      2 C2          0.0021   -0.0041    0.0020 C.ar      1 <0>        -0.0270
      3 C3          0.0057   -0.6887   -1.1989 C.ar      1 <0>        -0.1159
      4 C4          0.0245   -2.0709   -1.2065 C.ar      1 <0>        -0.0579
      5 C5          0.0400   -2.7685   -0.0132 C.ar      1 <0>        -0.1532
      6 C6          0.0373   -2.0839    1.1877 C.ar      1 <0>        -0.0796
      7 C7          0.0229   -0.7016    1.1953 C.ar      1 <0>        -0.1137
      8 C8          0.0595   -4.2753   -0.0215 C.3       1 <0>         0.0970
      9 H1          0.1599   -4.6624   -1.0355 H         1 <0>         0.2025
     10 N1          1.1195   -4.8060    0.8660 N.pl3     1 <0>        -0.1494
     11 N2          0.8735   -5.6830    1.6706 N.2       1 <0>        -0.0080
     12 C9         -0.4927   -6.2432    1.7842 C.3       1 <0>         0.3060
     13 H2         -0.8224   -6.2784    2.8225 H         1 <0>         0.2221
     14 S1         -1.4310   -4.9727    0.8211 S.3       1 <0>        -0.1154
     15 N3         -0.5821   -7.5633    1.1553 N.am      1 <0>        -0.7213
     16 C10        -0.0769   -8.6441    1.7823 C.2       1 <0>         0.7081
     17 O1          0.4531   -8.5235    2.8699 O.2       1 <0>        -0.5543
     18 N4         -0.1592   -9.8586    1.2037 N.am      1 <0>        -0.7224
     19 C11         0.3899  -11.0334    1.8853 C.3       1 <0>         0.1818
     20 C12         0.1672  -12.2754    1.0201 C.3       1 <0>        -0.0317
     21 H3         -0.8975  -12.4790    0.9062 H         1 <0>         0.1559
     22 C13         0.8830  -13.4742    1.6077 C.2       1 <0>        -0.1357
     23 C14         1.7625  -13.8350    0.6750 C.2       1 <0>        -0.0615
     24 C15         2.5509  -15.0422    1.1505 C.3       1 <0>        -0.0517
     25 C16         2.3208  -15.0975    2.6766 C.3       1 <0>        -0.1192
     26 C17         0.9628  -14.3726    2.8147 C.3       1 <0>        -0.0641
     27 N5          1.6664  -13.0039   -0.3984 N.2       1 <0>        -0.1311
     28 N6          0.8118  -12.1178   -0.2949 N.2       1 <0>        -0.1662
     29 H4          1.0042    1.8801    0.0026 H         1 <0>         0.0870
     30 H5         -0.5455    1.8639   -0.8728 H         1 <0>         0.0797
     31 H6         -0.5286    1.8543    0.9071 H         1 <0>         0.0789
     32 H7         -0.0064   -0.1436   -2.1312 H         1 <0>         0.1437
     33 H8          0.0266   -2.6057   -2.1448 H         1 <0>         0.1406
     34 H9          0.0491   -2.6289    2.1200 H         1 <0>         0.1264
     35 H10         0.0245   -0.1667    2.1335 H         1 <0>         0.1418
     36 H11        -1.0049   -7.6595    0.2876 H         1 <0>         0.4247
     37 H12        -0.5820   -9.9548    0.3360 H         1 <0>         0.4113
     38 H13         1.4581  -10.8918    2.0496 H         1 <0>         0.0820
     39 H14        -0.1111  -11.1641    2.8445 H         1 <0>         0.0970
     40 H15         2.1751  -15.9497    0.6780 H         1 <0>         0.0929
     41 H16         3.6108  -14.9120    0.9321 H         1 <0>         0.0882
     42 H17         2.2501  -16.1284    3.0236 H         1 <0>         0.0938
     43 H18         3.1058  -14.5608    3.2094 H         1 <0>         0.0823
     44 H19         0.9394  -13.7814    3.7302 H         1 <0>         0.0895
     45 H20         0.1451  -15.0933    2.8062 H         1 <0>         0.0981
     46 H21         2.0198   -4.4502    0.8042 H         1 <0>         0.4822
@<TRIPOS>BOND
     1    1    2 1
     2    1   29 1
     3    1   30 1
     4    1   31 1
     5    2    7 ar
     6    2    3 ar
     7    3    4 ar
     8    3   32 1
     9    4    5 ar
    10    4   33 1
    11    5    6 ar
    12    5    8 1
    13    6    7 ar
    14    6   34 1
    15    7   35 1
    16    8    9 1
    17    8   14 1
    18    8   10 1
    19   10   11 2
    20   10   46 1
    21   11   12 1
    22   12   13 1
    23   12   14 1
    24   12   15 1
    25   15   16 am
    26   15   36 1
    27   16   17 2
    28   16   18 am
    29   18   19 1
    30   18   37 1
    31   19   20 1
    32   19   38 1
    33   19   39 1
    34   20   21 1
    35   20   28 1
    36   20   22 1
    37   22   26 1
    38   22   23 2
    39   23   24 1
    40   23   27 1
    41   24   25 1
    42   24   40 1
    43   24   41 1
    44   25   26 1
    45   25   42 1
    46   25   43 1
    47   26   44 1
    48   26   45 1
    49   27   28 2
@<TRIPOS>MOLECULE
ZINC56722422
   53    56     0     0     0
SMALL
USER_CHARGES

@<TRIPOS>ATOM
      1 C1         -1.2490    4.8801   -2.3002 C.ar      1 <0>        -0.0887
      2 C2          0.0541    5.2638   -2.0451 C.ar      1 <0>        -0.1297
      3 C3          0.9919    5.2598   -3.0676 C.ar      1 <0>         0.1653
      4 C4          0.6195    4.8677   -4.3509 C.ar      1 <0>         0.0185
      5 C5         -0.6892    4.4805   -4.6011 C.ar      1 <0>         0.0747
      6 C6         -1.6216    4.4900   -3.5723 C.ar      1 <0>        -0.1251
      7 O1         -1.0731    4.0861   -5.8461 O.3       1 <0>        -0.3011
      8 C7         -0.2095    4.4449   -6.9302 C.3       1 <0>         0.0190
      9 C8          1.2338    4.1184   -6.5231 C.3       1 <0>         0.0241
     10 O2          1.5485    4.8716   -5.3468 O.3       1 <0>        -0.3159
     11 N1          2.3132    5.6497   -2.8089 N.am      1 <0>        -0.6661
     12 C9          2.8107    5.5579   -1.5597 C.2       1 <0>         0.7109
     13 O3          2.1486    5.0459   -0.6777 O.2       1 <0>        -0.5505
     14 N2          4.0421    6.0336   -1.2880 N.am      1 <0>        -0.7571
     15 C10         4.5828    5.9338    0.0699 C.3       1 <0>         0.1151
     16 C11         5.9314    6.6534    0.1360 C.3       1 <0>         0.1245
     17 H1          6.3729    6.5081    1.1219 H         1 <0>         0.1776
     18 C12         5.7276    8.1260   -0.1110 C.2       1 <0>        -0.1078
     19 C13         5.6768    9.0824    0.8335 C.2       1 <0>        -0.1265
     20 C14         5.4726   10.3101    0.1627 C.2       1 <0>        -0.2106
     21 C15         5.4108   10.0305   -1.1516 C.2       1 <0>         0.0099
     22 O4          5.5717    8.7068   -1.3119 O.3       1 <0>        -0.1839
     23 N3          6.8299    6.1048   -0.8886 N.4       1 <0>        -0.3858
     24 C16         6.9383    4.6514   -0.7146 C.3       1 <0>        -0.0182
     25 C17         7.8083    4.0641   -1.8281 C.3       1 <0>        -0.1434
     26 C18         9.2032    4.6929   -1.7639 C.3       1 <0>        -0.1391
     27 C19         9.0717    6.2149   -1.8717 C.3       1 <0>        -0.1443
     28 C20         8.1549    6.7225   -0.7567 C.3       1 <0>        -0.0063
     29 H2         -1.9768    4.8809   -1.5023 H         1 <0>         0.1405
     30 H3          0.3423    5.5672   -1.0495 H         1 <0>         0.1559
     31 H4         -2.6410    4.1911   -3.7668 H         1 <0>         0.1402
     32 H5         -0.4787    3.8743   -7.8190 H         1 <0>         0.1267
     33 H6         -0.3011    5.5114   -7.1356 H         1 <0>         0.0804
     34 H7          1.3243    3.0528   -6.3126 H         1 <0>         0.0794
     35 H8          1.9143    4.3937   -7.3289 H         1 <0>         0.1247
     36 H9          2.8696    5.9857   -3.5290 H         1 <0>         0.4114
     37 H10         4.5703    6.4421   -1.9916 H         1 <0>         0.3908
     38 H11         3.8893    6.3965    0.7720 H         1 <0>         0.1224
     39 H12         4.7179    4.8842    0.3309 H         1 <0>         0.1064
     40 H13         5.7729    8.9398    1.8997 H         1 <0>         0.1631
     41 H14         5.3830   11.2853    0.6182 H         1 <0>         0.1643
     42 H15         5.2613   10.7491   -1.9439 H         1 <0>         0.2183
     43 H16         7.3916    4.4345    0.2526 H         1 <0>         0.1367
     44 H17         5.9446    4.2057   -0.7573 H         1 <0>         0.1349
     45 H18         7.8891    2.9852   -1.6961 H         1 <0>         0.1157
     46 H19         7.3558    4.2803   -2.7959 H         1 <0>         0.0866
     47 H20         9.6764    4.4342   -0.8167 H         1 <0>         0.0842
     48 H21         9.8095    4.3201   -2.5894 H         1 <0>         0.0958
     49 H22        10.0555    6.6732   -1.7710 H         1 <0>         0.1145
     50 H23         8.6455    6.4757   -2.8404 H         1 <0>         0.0867
     51 H24         8.0593    7.8058   -0.8304 H         1 <0>         0.1291
     52 H25         8.5823    6.4614    0.2115 H         1 <0>         0.1334
     53 H26         6.4563    6.3050   -1.8042 H         1 <0>         0.4184
@<TRIPOS>BOND
     1    1    6 ar
     2    1    2 ar
     3    1   29 1
     4    2    3 ar
     5    2   30 1
     6    3    4 ar
     7    3   11 1
     8    4   10 1
     9    4    5 ar
    10    5    6 ar
    11    5    7 1
    12    6   31 1
    13    7    8 1
    14    8    9 1
    15    8   32 1
    16    8   33 1
    17    9   10 1
    18    9   34 1
    19    9   35 1
    20   11   12 am
    21   11   36 1
    22   12   13 2
    23   12   14 am
    24   14   15 1
    25   14   37 1
    26   15   16 1
    27   15   38 1
    28   15   39 1
    29   16   17 1
    30   16   18 1
    31   16   23 1
    32   18   22 1
    33   18   19 2
    34   19   20 1
    35   19   40 1
    36   20   21 2
    37   20   41 1
    38   21   22 1
    39   21   42 1
    40   23   28 1
    41   23   24 1
    42   23   53 1
    43   24   25 1
    44   24   43 1
    45   24   44 1
    46   25   26 1
    47   25   45 1
    48   25   46 1
    49   26   27 1
    50   26   47 1
    51   26   48 1
    52   27   28 1
    53   27   49 1
    54   27   50 1
    55   28   51 1
    56   28   52 1
@<TRIPOS>MOLECULE
ZINC63881716
   46    49     0     0     0
SMALL
USER_CHARGES

@<TRIPOS>ATOM
      1 C1         -0.0184    1.5028    0.0103 C.3       1 <0>        -0.1397
      2 C2          0.0021   -0.0041    0.0020 C.ar      1 <0>        -0.0283
      3 C3          0.0057   -0.6888   -1.1991 C.ar      1 <0>        -0.1088
      4 C4          0.0245   -2.0707   -1.2067 C.ar      1 <0>        -0.0666
      5 C5          0.0400   -2.7685   -0.0132 C.ar      1 <0>        -0.1100
      6 C6          0.0373   -2.0840    1.1875 C.ar      1 <0>        -0.0931
      7 C7          0.0229   -0.7015    1.1951 C.ar      1 <0>        -0.1411
      8 C8          0.0252    0.0449    2.5043 C.3       1 <0>         0.1043
      9 H1          0.4514    1.0415    2.3888 H         1 <0>         0.2061
     10 N1          0.7242   -0.7216    3.5611 N.pl3     1 <0>        -0.1560
     11 N2          0.2144   -0.8799    4.6528 N.2       1 <0>        -0.0103
     12 C9         -1.1190   -0.3103    4.9543 C.3       1 <0>         0.3069
     13 H2         -1.0387    0.5793    5.5790 H         1 <0>         0.2186
     14 S1         -1.6689    0.1182    3.2408 S.3       1 <0>        -0.1274
     15 N3         -2.0000   -1.3086    5.5653 N.am      1 <0>        -0.7067
     16 C10        -1.8409   -1.6452    6.8606 C.2       1 <0>         0.7131
     17 O1         -0.9660   -1.1204    7.5220 O.2       1 <0>        -0.5579
     18 N4         -2.6515   -2.5636    7.4227 N.am      1 <0>        -0.7218
     19 C11        -2.4785   -2.9295    8.8307 C.3       1 <0>         0.1821
     20 C12        -3.5184   -3.9839    9.2152 C.3       1 <0>        -0.0319
     21 H3         -4.5259   -3.5739    9.1450 H         1 <0>         0.1559
     22 C13        -3.2519   -4.5177   10.6076 C.2       1 <0>        -0.1366
     23 C14        -3.0174   -5.8171   10.4337 C.2       1 <0>        -0.0611
     24 C15        -2.7345   -6.4729   11.7735 C.3       1 <0>        -0.0517
     25 C16        -2.4085   -5.3065   12.7316 C.3       1 <0>        -0.1192
     26 C17        -3.1571   -4.1322   12.0611 C.3       1 <0>        -0.0638
     27 N5         -3.1081   -6.1313    9.1127 N.2       1 <0>        -0.1314
     28 N6         -3.3828   -5.1828    8.3703 N.2       1 <0>        -0.1647
     29 H4          1.0042    1.8801    0.0026 H         1 <0>         0.0905
     30 H5         -0.5455    1.8639   -0.8728 H         1 <0>         0.0907
     31 H6         -0.5286    1.8543    0.9071 H         1 <0>         0.0676
     32 H7         -0.0064   -0.1437   -2.1314 H         1 <0>         0.1442
     33 H8          0.0266   -2.6056   -2.1449 H         1 <0>         0.1428
     34 H9          0.0540   -3.8484   -0.0191 H         1 <0>         0.1416
     35 H10         0.0491   -2.6290    2.1199 H         1 <0>         0.1191
     36 H11        -2.6980   -1.7273    5.0376 H         1 <0>         0.4261
     37 H12        -3.3494   -2.9823    6.8950 H         1 <0>         0.4119
     38 H13        -1.4777   -3.3346    8.9805 H         1 <0>         0.0825
     39 H14        -2.6097   -2.0454    9.4546 H         1 <0>         0.0966
     40 H15        -3.6134   -7.0150   12.1225 H         1 <0>         0.0929
     41 H16        -1.8810   -7.1460   11.6926 H         1 <0>         0.0882
     42 H17        -2.8007   -5.5002   13.7300 H         1 <0>         0.0936
     43 H18        -1.3356   -5.1171   12.7653 H         1 <0>         0.0822
     44 H19        -2.5905   -3.2077   12.1725 H         1 <0>         0.0892
     45 H20        -4.1530   -4.0222   12.4904 H         1 <0>         0.0978
     46 H21         1.5981   -1.1016    3.3799 H         1 <0>         0.4834
@<TRIPOS>BOND
     1    1    2 1
     2    1   29 1
     3    1   30 1
     4    1   31 1
     5    2    7 ar
     6    2    3 ar
     7    3    4 ar
     8    3   32 1
     9    4    5 ar
    10    4   33 1
    11    5    6 ar
    12    5   34 1
    13    6    7 ar
    14    6   35 1
    15    7    8 1
    16    8    9 1
    17    8   14 1
    18    8   10 1
    19   10   11 2
    20   10   46 1
    21   11   12 1
    22   12   13 1
    23   12   14 1
    24   12   15 1
    25   15   16 am
    26   15   36 1
    27   16   17 2
    28   16   18 am
    29   18   19 1
    30   18   37 1
    31   19   20 1
    32   19   38 1
    33   19   39 1
    34   20   21 1
    35   20   28 1
    36   20   22 1
    37   22   26 1
    38   22   23 2
    39   23   24 1
    40   23   27 1
    41   24   25 1
    42   24   40 1
    43   24   41 1
    44   25   26 1
    45   25   42 1
    46   25   43 1
    47   26   44 1
    48   26   45 1
    49   27   28 2
@<TRIPOS>MOLECULE
ZINC09096686
   61    64     0     0     0
SMALL
USER_CHARGES
4-(4-chlorophenyl)sulfonyl-3-[[4-(4-methoxyphenyl)piperazin-1-yl]carbonylmethyl]piperazin-2-one
@<TRIPOS>ATOM
      1 C1         -0.1127   -1.6406    2.4028 C.3       1 <0>         0.0274
      2 O1         -1.2357   -0.7770    2.2152 O.3       1 <0>        -0.3190
      3 C2         -0.9717    0.5301    1.9479 C.ar      1 <0>         0.1044
      4 C3         -2.0156    1.4227    1.7550 C.ar      1 <0>        -0.1260
      5 C4         -1.7483    2.7503    1.4839 C.ar      1 <0>        -0.0979
      6 C5         -0.4340    3.1913    1.4039 C.ar      1 <0>         0.0727
      7 C6          0.6105    2.2970    1.5976 C.ar      1 <0>        -0.1281
      8 C7          0.3414    0.9698    1.8687 C.ar      1 <0>        -0.1809
      9 N1         -0.1623    4.5362    1.1288 N.pl3     1 <0>        -0.4833
     10 C8         -0.8089    4.9590   -0.1206 C.3       1 <0>         0.0392
     11 C9         -0.6404    6.4724   -0.2923 C.3       1 <0>         0.1046
     12 N2          0.7904    6.7975   -0.1916 N.am      1 <0>        -0.6171
     13 C10         1.5395    6.2897    0.9678 C.3       1 <0>         0.1205
     14 C11         1.2852    4.7835    1.0899 C.3       1 <0>         0.0351
     15 C12         1.3989    7.5415   -1.1364 C.2       1 <0>         0.5389
     16 O2          2.5796    7.8004   -1.0372 O.2       1 <0>        -0.5040
     17 C13         0.6123    8.0516   -2.3162 C.3       1 <0>        -0.2240
     18 C14         1.4524    9.0723   -3.0865 C.3       1 <0>         0.1671
     19 H1          2.4085    8.6261   -3.3600 H         1 <0>         0.1295
     20 C15         1.6868   10.2839   -2.2262 C.2       1 <0>         0.5117
     21 O3          2.0530   10.1188   -1.0819 O.2       1 <0>        -0.5091
     22 N3          1.5104   11.5314   -2.6640 N.am      1 <0>        -0.7184
     23 C16         0.9900   11.8805   -3.9788 C.3       1 <0>         0.0927
     24 C17         1.1786   10.7233   -4.9617 C.3       1 <0>         0.0990
     25 N4          0.7349    9.4834   -4.3025 N.pl3     1 <0>        -0.9996
     26 S1         -0.5212    8.5887   -4.9059 S.o2      1 <0>         2.6931
     27 O4         -0.7574    9.0588   -6.2259 O.2       1 <0>        -0.9391
     28 O5         -0.2232    7.2283   -4.6236 O.2       1 <0>        -0.9424
     29 C18        -1.9521    8.9971   -3.9622 C.ar      1 <0>        -0.6802
     30 C19        -2.2594    8.2736   -2.8251 C.ar      1 <0>        -0.0256
     31 C20        -3.3786    8.5970   -2.0813 C.ar      1 <0>        -0.1271
     32 C21        -4.1976    9.6379   -2.4814 C.ar      1 <0>         0.0215
     33 C22        -3.8926   10.3580   -3.6227 C.ar      1 <0>        -0.1266
     34 C23        -2.7700   10.0372   -4.3625 C.ar      1 <0>        -0.0019
     35 Cl1        -5.6071   10.0406   -1.5514 Cl        1 <0>        -0.0456
     36 H2          0.4979   -1.6439    1.4998 H         1 <0>         0.0547
     37 H3          0.4832   -1.2843    3.2431 H         1 <0>         0.0551
     38 H4         -0.4626   -2.6522    2.6085 H         1 <0>         0.1004
     39 H5         -3.0377    1.0796    1.8172 H         1 <0>         0.1335
     40 H6         -2.5613    3.4444    1.3297 H         1 <0>         0.1327
     41 H7          1.6330    2.6393    1.5363 H         1 <0>         0.1300
     42 H8          1.1537    0.2741    2.0193 H         1 <0>         0.1288
     43 H9         -0.3460    4.4436   -0.9622 H         1 <0>         0.0543
     44 H10        -1.8702    4.7132   -0.0822 H         1 <0>         0.0970
     45 H11        -1.1904    6.9933    0.4914 H         1 <0>         0.0838
     46 H12        -1.0173    6.7772   -1.2686 H         1 <0>         0.0839
     47 H13         1.1991    6.7931    1.8727 H         1 <0>         0.0778
     48 H14         2.6046    6.4707    0.8234 H         1 <0>         0.1027
     49 H15         1.7426    4.4105    2.0063 H         1 <0>         0.0965
     50 H16         1.7190    4.2703    0.2318 H         1 <0>         0.0526
     51 H17         0.3606    7.2187   -2.9727 H         1 <0>         0.1657
     52 H18        -0.3036    8.5264   -1.9644 H         1 <0>         0.1023
     53 H19         1.7449   12.2571   -2.0646 H         1 <0>         0.4032
     54 H20         1.5179   12.7580   -4.3522 H         1 <0>         0.0962
     55 H21        -0.0721   12.1104   -3.8948 H         1 <0>         0.0707
     56 H22         2.2308   10.6392   -5.2334 H         1 <0>         0.0959
     57 H23         0.5802   10.8989   -5.8557 H         1 <0>         0.1214
     58 H24        -1.6225    7.4582   -2.5153 H         1 <0>         0.1495
     59 H25        -3.6163    8.0346   -1.1905 H         1 <0>         0.1488
     60 H26        -4.5317   11.1704   -3.9357 H         1 <0>         0.1484
     61 H27        -2.5316   10.5995   -5.2532 H         1 <0>         0.1526
@<TRIPOS>BOND
     1    1    2 1
     2    1   36 1
     3    1   37 1
     4    1   38 1
     5    2    3 1
     6    3    8 ar
     7    3    4 ar
     8    4    5 ar
     9    4   39 1
    10    5    6 ar
    11    5   40 1
    12    6    7 ar
    13    6    9 1
    14    7    8 ar
    15    7   41 1
    16    8   42 1
    17    9   14 1
    18    9   10 1
    19   10   11 1
    20   10   43 1
    21   10   44 1
    22   11   12 1
    23   11   45 1
    24   11   46 1
    25   12   13 1
    26   12   15 am
    27   13   14 1
    28   13   47 1
    29   13   48 1
    30   14   49 1
    31   14   50 1
    32   15   16 2
    33   15   17 1
    34   17   18 1
    35   17   51 1
    36   17   52 1
    37   18   19 1
    38   18   25 1
    39   18   20 1
    40   20   21 2
    41   20   22 am
    42   22   23 1
    43   22   53 1
    44   23   24 1
    45   23   54 1
    46   23   55 1
    47   24   25 1
    48   24   56 1
    49   24   57 1
    50   25   26 1
    51   26   27 2
    52   26   28 2
    53   26   29 1
    54   29   34 ar
    55   29   30 ar
    56   30   31 ar
    57   30   58 1
    58   31   32 ar
    59   31   59 1
    60   32   33 ar
    61   32   35 1
    62   33   34 ar
    63   33   60 1
    64   34   61 1
@<TRIPOS>MOLECULE
ZINC11442355
   53    56     0     0     0
SMALL
USER_CHARGES
(2,2-difluorobenzo[1,3]dioxol-5-yl)carbamoylmethyl 3-(1-piperidylsulfonyl)benzoate
@<TRIPOS>ATOM
      1 C1         -2.6177    1.4329   -3.0568 C.ar      1 <0>        -0.1475
      2 C2         -2.4345    2.6816   -3.6141 C.ar      1 <0>        -0.0054
      3 C3         -1.5051    3.5617   -3.0567 C.ar      1 <0>        -0.1455
      4 C4         -0.7668    3.1710   -1.9376 C.ar      1 <0>         0.0456
      5 C5         -0.9600    1.9197   -1.3905 C.ar      1 <0>        -0.6900
      6 C6         -1.8789    1.0501   -1.9515 C.ar      1 <0>         0.0163
      7 S1         -0.0296    1.4245    0.0215 S.o2      1 <0>         2.6906
      8 O1         -0.0037    0.0038    0.0130 O.2       1 <0>        -0.9482
      9 O2          1.1559    2.2081    0.0219 O.2       1 <0>        -0.9473
     10 N1         -0.8946    1.8741    1.3601 N.pl3     1 <0>        -0.9949
     11 C7         -0.6926    3.1939    1.9734 C.3       1 <0>         0.1171
     12 C8         -2.0553    3.8945    2.0849 C.3       1 <0>        -0.1367
     13 C9         -3.0267    2.9899    2.8465 C.3       1 <0>        -0.1188
     14 C10        -3.2196    1.6820    2.0756 C.3       1 <0>        -0.1368
     15 C11        -1.8742    0.9585    1.9607 C.3       1 <0>         0.1179
     16 C12        -1.3033    4.9002   -3.6484 C.2       1 <0>         0.5154
     17 O3         -0.4936    5.6637   -3.1615 O.2       1 <0>        -0.4938
     18 O4         -2.0171    5.2740   -4.7279 O.3       1 <0>        -0.3280
     19 C13        -1.7664    6.6032   -5.2559 C.3       1 <0>         0.0518
     20 C14        -2.6497    6.8429   -6.4532 C.2       1 <0>         0.5202
     21 O5         -3.4151    5.9785   -6.8250 O.2       1 <0>        -0.4897
     22 N2         -2.5890    8.0177   -7.1110 N.am      1 <0>        -0.6655
     23 C15        -3.3380    8.2055   -8.2800 C.ar      1 <0>         0.1645
     24 C16        -4.5923    7.6227   -8.4020 C.ar      1 <0>        -0.0990
     25 C17        -5.3322    7.8070   -9.5543 C.ar      1 <0>        -0.0599
     26 C18        -4.8254    8.5744  -10.5907 C.ar      1 <0>         0.0155
     27 C19        -3.5676    9.1607  -10.4709 C.ar      1 <0>         0.0477
     28 C20        -2.8286    8.9789   -9.3139 C.ar      1 <0>        -0.1066
     29 O6         -3.3005    9.8578  -11.6138 O.3       1 <0>        -0.2847
     30 C21        -4.5728   10.0306  -12.2653 C.3       1 <0>         0.5717
     31 O7         -5.3462    8.9049  -11.8095 O.3       1 <0>        -0.2840
     32 F1         -5.1702   11.2312  -11.8666 F         1 <0>        -0.1521
     33 F2         -4.4218    9.9963  -13.6557 F         1 <0>        -0.1140
     34 H1         -3.3361    0.7509   -3.4871 H         1 <0>         0.1466
     35 H2         -3.0085    2.9774   -4.4798 H         1 <0>         0.1517
     36 H3         -0.0465    3.8471   -1.5013 H         1 <0>         0.1553
     37 H4         -2.0230    0.0698   -1.5218 H         1 <0>         0.1488
     38 H5         -0.2585    3.0730    2.9659 H         1 <0>         0.0797
     39 H6         -0.0246    3.7881    1.3500 H         1 <0>         0.0919
     40 H7         -2.4482    4.0921    1.0875 H         1 <0>         0.0662
     41 H8         -1.9365    4.8351    2.6226 H         1 <0>         0.0774
     42 H9         -3.9870    3.4948    2.9511 H         1 <0>         0.0657
     43 H10        -2.6215    2.7725    3.8348 H         1 <0>         0.0667
     44 H11        -3.6015    1.9005    1.0783 H         1 <0>         0.0665
     45 H12        -3.9295    1.0479    2.6067 H         1 <0>         0.0777
     46 H13        -1.9859    0.0773    1.3289 H         1 <0>         0.0912
     47 H14        -1.5345    0.6590    2.9522 H         1 <0>         0.0790
     48 H15        -1.9849    7.3461   -4.4888 H         1 <0>         0.1124
     49 H16        -0.7210    6.6848   -5.5535 H         1 <0>         0.1128
     50 H17        -2.0269    8.7332   -6.7749 H         1 <0>         0.4197
     51 H18        -4.9899    7.0243   -7.5956 H         1 <0>         0.1627
     52 H19        -6.3074    7.3524   -9.6472 H         1 <0>         0.1518
     53 H20        -1.8548    9.4357   -9.2175 H         1 <0>         0.1504
@<TRIPOS>BOND
     1    1    6 ar
     2    1    2 ar
     3    1   34 1
     4    2    3 ar
     5    2   35 1
     6    3    4 ar
     7    3   16 1
     8    4    5 ar
     9    4   36 1
    10    5    6 ar
    11    5    7 1
    12    6   37 1
    13    7    8 2
    14    7    9 2
    15    7   10 1
    16   10   15 1
    17   10   11 1
    18   11   12 1
    19   11   38 1
    20   11   39 1
    21   12   13 1
    22   12   40 1
    23   12   41 1
    24   13   14 1
    25   13   42 1
    26   13   43 1
    27   14   15 1
    28   14   44 1
    29   14   45 1
    30   15   46 1
    31   15   47 1
    32   16   17 2
    33   16   18 1
    34   18   19 1
    35   19   20 1
    36   19   48 1
    37   19   49 1
    38   20   21 2
    39   20   22 am
    40   22   23 1
    41   22   50 1
    42   23   28 ar
    43   23   24 ar
    44   24   25 ar
    45   24   51 1
    46   25   26 ar
    47   25   52 1
    48   26   31 1
    49   26   27 ar
    50   27   28 ar
    51   27   29 1
    52   28   53 1
    53   29   30 1
    54   30   31 1
    55   30   32 1
    56   30   33 1
@<TRIPOS>MOLECULE
ZINC19940900
   70    75     0     0     0
SMALL
USER_CHARGES
3-[(R)-[4-(2-fluorophenyl)piperazin-1-yl]-[1-[[(2R)-tetrahydrofuran-2-yl]methyl]tetrazol-5-yl]methyl]-5,8-dimethyl-1H-quinolin-2-one
@<TRIPOS>ATOM
      1 C1         -2.5939    3.8292    0.0450 C.3       1 <0>        -0.1236
      2 C2         -1.2687    3.1118    0.0295 C.ar      1 <0>        -0.0233
      3 C3         -1.2279    1.7460    0.0174 C.ar      1 <0>        -0.1533
      4 C4         -0.0126    1.0758    0.0080 C.ar      1 <0>        -0.0583
      5 C5          1.1760    1.7741    0.0004 C.ar      1 <0>        -0.1403
      6 C6          1.1593    3.1647    0.0075 C.ar      1 <0>         0.2069
      7 C7         -0.0754    3.8410    0.0225 C.ar      1 <0>        -0.1383
      8 C8         -0.0825    5.3051    0.0299 C.2       1 <0>        -0.0118
      9 C9          1.1055    5.9586    0.0221 C.2       1 <0>        -0.1807
     10 C10         2.3160    5.2329    0.0066 C.2       1 <0>         0.5310
     11 O1          3.3727    5.8403   -0.0002 O.2       1 <0>        -0.4691
     12 N1          2.3327    3.8885   -0.0003 N.am      1 <0>        -0.6490
     13 H1          3.3009    3.3665   -0.0123 H         1 <0>         0.4380
     14 C11         1.1336    7.4653    0.0294 C.3       1 <0>         0.2420
     15 H2          0.1155    7.8627    0.1537 H         1 <0>         0.0825
     16 C12         1.7312    7.9629   -1.2615 C.2       1 <0>         0.1993
     17 N2          2.9986    7.9448   -1.5953 N.2       1 <0>        -0.2415
     18 N3          3.1072    8.4558   -2.7730 N.2       1 <0>        -0.0827
     19 N4          1.9420    8.7994   -3.1991 N.2       1 <0>        -0.1012
     20 N5          1.0665    8.5068   -2.2978 N.pl3     1 <0>        -0.3058
     21 C13        -0.3791    8.7281   -2.3845 C.3       1 <0>         0.1064
     22 C14        -0.7166   10.1150   -1.8335 C.3       1 <0>         0.0592
     23 H3         -0.0786   10.8531   -2.3417 H         1 <0>         0.0879
     24 C15        -2.2355   10.3914   -1.9661 C.3       1 <0>        -0.1445
     25 C16        -2.4437   11.4400   -0.8396 C.3       1 <0>        -0.1509
     26 C17        -1.4346   10.9745    0.2320 C.3       1 <0>         0.0544
     27 O2         -0.4469   10.1707   -0.4237 O.3       1 <0>        -0.3771
     28 N6          1.9475    7.9344    1.1587 N.3       1 <0>        -0.5042
     29 C18         1.4462    7.3935    2.4298 C.3       1 <0>         0.0587
     30 C19         2.3656    7.8397    3.5691 C.3       1 <0>         0.0463
     31 N7          2.4157    9.3079    3.6081 N.pl3     1 <0>        -0.4862
     32 C20         2.9171    9.8489    2.3370 C.3       1 <0>         0.0607
     33 C21         1.9976    9.4026    1.1978 C.3       1 <0>         0.0666
     34 C22         3.1906    9.7545    4.6832 C.ar      1 <0>         0.0870
     35 C23         3.3002   11.1135    4.9448 C.ar      1 <0>        -0.1128
     36 C24         4.0665   11.5518    6.0075 C.ar      1 <0>        -0.1039
     37 C25         4.7244   10.6391    6.8112 C.ar      1 <0>        -0.1178
     38 C26         4.6181    9.2843    6.5551 C.ar      1 <0>        -0.1281
     39 C27         3.8487    8.8380    5.4964 C.ar      1 <0>         0.0497
     40 F1          3.7401    7.5142    5.2494 F         1 <0>        -0.1349
     41 C28         2.4883    1.0334   -0.0161 C.3       1 <0>        -0.1126
     42 H4         -3.4100    3.0917    0.0486 H         1 <0>         0.0744
     43 H5         -2.6775    4.4643   -0.8492 H         1 <0>         0.0734
     44 H6         -2.6614    4.4552    0.9470 H         1 <0>         0.0758
     45 H7         -2.1496    1.1831    0.0191 H         1 <0>         0.1293
     46 H8          0.0021   -0.0041    0.0020 H         1 <0>         0.1315
     47 H9         -1.0135    5.8524    0.0417 H         1 <0>         0.1400
     48 H10        -0.6975    8.6636   -3.4354 H         1 <0>         0.1282
     49 H11        -0.9034    7.9617   -1.7948 H         1 <0>         0.1109
     50 H12        -2.4511   10.7790   -2.9727 H         1 <0>         0.0922
     51 H13        -2.7936    9.4572   -1.8056 H         1 <0>         0.0858
     52 H14        -2.2230   12.4449   -1.2288 H         1 <0>         0.0814
     53 H15        -3.4866   11.4024   -0.4918 H         1 <0>         0.0885
     54 H16        -0.9655   11.8526    0.6999 H         1 <0>         0.0744
     55 H17        -1.9596   10.3867    0.9994 H         1 <0>         0.0748
     56 H18         0.4278    7.7676    2.6113 H         1 <0>         0.0431
     57 H19         1.4296    6.2948    2.3797 H         1 <0>         0.0803
     58 H20         1.9759    7.4596    4.5250 H         1 <0>         0.0953
     59 H21         3.3772    7.4416    3.4012 H         1 <0>         0.0726
     60 H22         2.9336   10.9476    2.3872 H         1 <0>         0.0861
     61 H23         3.9355    9.4748    2.1556 H         1 <0>         0.0568
     62 H24         2.3867    9.7818    0.2413 H         1 <0>         0.0763
     63 H25         0.9855    9.7997    1.3652 H         1 <0>         0.0575
     64 H26         2.7872   11.8277    4.3177 H         1 <0>         0.1338
     65 H27         4.1514   12.6090    6.2111 H         1 <0>         0.1314
     66 H28         5.3226   10.9851    7.6412 H         1 <0>         0.1319
     67 H29         5.1330    8.5740    7.1850 H         1 <0>         0.1349
     68 H30         3.3173    1.7564   -0.0201 H         1 <0>         0.0592
     69 H31         2.5441    0.4064   -0.9182 H         1 <0>         0.0776
     70 H32         2.5613    0.3968    0.8780 H         1 <0>         0.0783
@<TRIPOS>BOND
     1    1    2 1
     2    1   42 1
     3    1   43 1
     4    1   44 1
     5    2    7 ar
     6    2    3 ar
     7    3    4 ar
     8    3   45 1
     9    4    5 ar
    10    4   46 1
    11    5    6 ar
    12    5   41 1
    13    6   12 1
    14    6    7 ar
    15    7    8 1
    16    8    9 2
    17    8   47 1
    18    9   10 1
    19    9   14 1
    20   10   11 2
    21   10   12 am
    22   12   13 1
    23   14   15 1
    24   14   16 1
    25   14   28 1
    26   16   20 1
    27   16   17 2
    28   17   18 1
    29   18   19 2
    30   19   20 1
    31   20   21 1
    32   21   22 1
    33   21   48 1
    34   21   49 1
    35   22   23 1
    36   22   27 1
    37   22   24 1
    38   24   25 1
    39   24   50 1
    40   24   51 1
    41   25   26 1
    42   25   52 1
    43   25   53 1
    44   26   27 1
    45   26   54 1
    46   26   55 1
    47   28   33 1
    48   28   29 1
    49   29   30 1
    50   29   56 1
    51   29   57 1
    52   30   31 1
    53   30   58 1
    54   30   59 1
    55   31   32 1
    56   31   34 1
    57   32   33 1
    58   32   60 1
    59   32   61 1
    60   33   62 1
    61   33   63 1
    62   34   39 ar
    63   34   35 ar
    64   35   36 ar
    65   35   64 1
    66   36   37 ar
    67   36   65 1
    68   37   38 ar
    69   37   66 1
    70   38   39 ar
    71   38   67 1
    72   39   40 1
    73   41   68 1
    74   41   69 1
    75   41   70 1
@<TRIPOS>MOLECULE
ZINC33276718
   60    63     0     0     0
SMALL
USER_CHARGES
N-ethyl-5-(2-ethyl-5,8-dioxo-6,7-dihydro-4H-pyrazolo[1,5-a][1,3]diazepin-3-yl)-2-methoxy-N-phenyl-benzenesulfonamide
@<TRIPOS>ATOM
      1 C1          3.6341    0.1860   -6.0813 C.3       1 <0>        -0.1554
      2 C2          3.9569    1.6783   -5.9823 C.3       1 <0>        -0.0539
      3 C3          2.9770    2.4607   -6.8181 C.2       1 <0>         0.1426
      4 C4          1.7462    2.9788   -6.3743 C.2       1 <0>        -0.1978
      5 C5          1.1613    3.6422   -7.4468 C.2       1 <0>         0.3495
      6 N1          1.9860    3.4738   -8.5125 N.am      1 <0>        -0.3731
      7 N2          3.1256    2.7727   -8.0727 N.2       1 <0>        -0.2524
      8 C6          1.8112    3.8368   -9.8005 C.2       1 <0>         0.5459
      9 O1          2.7246    3.6677  -10.5733 O.2       1 <0>        -0.4432
     10 C7          0.5620    4.4289  -10.3122 C.3       1 <0>        -0.1410
     11 C8         -0.6904    3.9265   -9.6424 C.3       1 <0>        -0.1576
     12 C9         -0.9007    4.5676   -8.3109 C.2       1 <0>         0.5237
     13 O2         -1.8830    5.2514   -8.1145 O.2       1 <0>        -0.4957
     14 N3          0.0036    4.3858   -7.3264 N.am      1 <0>        -0.6587
     15 C10         1.1746    2.8374   -5.0127 C.ar      1 <0>        -0.0639
     16 C11         0.9950    3.9630   -4.2102 C.ar      1 <0>        -0.0207
     17 C12         0.4637    3.8281   -2.9445 C.ar      1 <0>        -0.2191
     18 C13         0.1083    2.5732   -2.4694 C.ar      1 <0>         0.2331
     19 C14         0.2862    1.4506   -3.2656 C.ar      1 <0>        -0.7061
     20 C15         0.8217    1.5782   -4.5308 C.ar      1 <0>         0.0297
     21 S1         -0.1653   -0.1402   -2.6574 S.o2      1 <0>         2.6874
     22 O3          0.1284   -1.0689   -3.6921 O.2       1 <0>        -0.9505
     23 O4         -1.4654   -0.0076   -2.0992 O.2       1 <0>        -0.9322
     24 N4          0.8553   -0.4922   -1.4017 N.pl3     1 <0>        -0.9427
     25 C16         2.1687   -1.0835   -1.6690 C.3       1 <0>         0.1142
     26 C17         2.1404   -2.5711   -1.3125 C.3       1 <0>        -0.1727
     27 C18         0.4639   -0.2253   -0.0878 C.ar      1 <0>         0.1519
     28 C19        -0.6981   -0.7916    0.4211 C.ar      1 <0>        -0.1040
     29 C20        -1.0796   -0.5294    1.7222 C.ar      1 <0>        -0.1054
     30 C21        -0.3120    0.3042    2.5149 C.ar      1 <0>        -0.1202
     31 C22         0.8424    0.8737    2.0098 C.ar      1 <0>        -0.1132
     32 C23         1.2326    0.6115    0.7112 C.ar      1 <0>        -0.1130
     33 O5         -0.4147    2.4435   -1.2214 O.3       1 <0>        -0.2981
     34 C24        -0.5706    3.6400   -0.4558 C.3       1 <0>         0.0221
     35 H1          4.3494   -0.3851   -5.4712 H         1 <0>         0.0728
     36 H2          3.7078   -0.1362   -7.1305 H         1 <0>         0.0640
     37 H3          2.6131    0.0065   -5.7134 H         1 <0>         0.0617
     38 H4          3.8832    2.0005   -4.9331 H         1 <0>         0.0907
     39 H5          4.9779    1.8578   -6.3502 H         1 <0>         0.0913
     40 H6          0.5863    5.5189  -10.1664 H         1 <0>         0.1212
     41 H7          0.4622    4.2045  -11.3844 H         1 <0>         0.1413
     42 H8         -1.5608    4.1520  -10.2761 H         1 <0>         0.1334
     43 H9         -0.6163    2.8390   -9.4947 H         1 <0>         0.1052
     44 H10        -0.2348    4.8821   -6.3741 H         1 <0>         0.4499
     45 H11         1.2713    4.9397   -4.5792 H         1 <0>         0.1341
     46 H12         0.3243    4.6998   -2.3223 H         1 <0>         0.1428
     47 H13         0.9637    0.7037   -5.1484 H         1 <0>         0.1509
     48 H14         2.4134   -0.9665   -2.7350 H         1 <0>         0.0901
     49 H15         2.9306   -0.5749   -1.0600 H         1 <0>         0.0815
     50 H16         3.1266   -3.0151   -1.5132 H         1 <0>         0.0729
     51 H17         1.3785   -3.0796   -1.9215 H         1 <0>         0.0643
     52 H18         1.8957   -2.6881   -0.2465 H         1 <0>         0.0627
     53 H19        -1.3003   -1.4391   -0.1989 H         1 <0>         0.1271
     54 H20        -1.9807   -0.9726    2.1198 H         1 <0>         0.1267
     55 H21        -0.6147    0.5105    3.5309 H         1 <0>         0.1232
     56 H22         1.4398    1.5239    2.6316 H         1 <0>         0.1237
     57 H23         2.1341    1.0569    0.3172 H         1 <0>         0.1217
     58 H24        -1.0008    3.3935    0.5261 H         1 <0>         0.1108
     59 H25        -1.2419    4.3305   -0.9873 H         1 <0>         0.0636
     60 H26         0.4109    4.1169   -0.3169 H         1 <0>         0.0631
@<TRIPOS>BOND
     1    1    2 1
     2    1   35 1
     3    1   36 1
     4    1   37 1
     5    2    3 1
     6    2   38 1
     7    2   39 1
     8    3    7 2
     9    3    4 1
    10    4    5 2
    11    4   15 1
    12    5   14 1
    13    5    6 1
    14    6    7 1
    15    6    8 am
    16    8    9 2
    17    8   10 1
    18   10   11 1
    19   10   40 1
    20   10   41 1
    21   11   12 1
    22   11   42 1
    23   11   43 1
    24   12   13 2
    25   12   14 am
    26   14   44 1
    27   15   20 ar
    28   15   16 ar
    29   16   17 ar
    30   16   45 1
    31   17   18 ar
    32   17   46 1
    33   18   19 ar
    34   18   33 1
    35   19   20 ar
    36   19   21 1
    37   20   47 1
    38   21   22 2
    39   21   23 2
    40   21   24 1
    41   24   25 1
    42   24   27 1
    43   25   26 1
    44   25   48 1
    45   25   49 1
    46   26   50 1
    47   26   51 1
    48   26   52 1
    49   27   32 ar
    50   27   28 ar
    51   28   29 ar
    52   28   53 1
    53   29   30 ar
    54   29   54 1
    55   30   31 ar
    56   30   55 1
    57   31   32 ar
    58   31   56 1
    59   32   57 1
    60   33   34 1
    61   34   58 1
    62   34   59 1
    63   34   60 1
@<TRIPOS>MOLECULE
ZINC45265674
   62    65     0     0     0
SMALL
USER_CHARGES

@<TRIPOS>ATOM
      1 C1          0.0762    0.6169   -0.4409 C.3       1 <0>        -0.1749
      2 C2          0.4057   -0.8461   -0.1379 C.3       1 <0>         0.1624
      3 H1         -0.5104   -1.4365   -0.1576 H         1 <0>         0.1356
      4 C3          1.0387   -0.9464    1.2260 C.2       1 <0>         0.4662
      5 O1          2.1535   -1.3976    1.3429 O.2       1 <0>        -0.4892
      6 O2          0.3641   -0.5346    2.3109 O.3       1 <0>        -0.3167
      7 C4          1.0251   -0.6589    3.5718 C.3       1 <0>         0.0712
      8 H2          1.7082   -1.5078    3.5417 H         1 <0>         0.1140
      9 C5          1.8132    0.6198    3.8628 C.3       1 <0>        -0.1742
     10 C6          0.0015   -0.8760    4.6563 C.2       1 <0>         0.5199
     11 O3         -1.1782   -0.7322    4.4143 O.2       1 <0>        -0.4889
     12 N1          0.3971   -1.2298    5.8952 N.am      1 <0>        -0.5460
     13 C7          1.8258   -1.3342    6.2218 C.3       1 <0>         0.0912
     14 C8          2.0306   -2.6284    7.0202 C.3       1 <0>        -0.1371
     15 C9          1.2559   -2.5262    8.3338 C.3       1 <0>        -0.0794
     16 C10        -0.1728   -2.1271    8.0740 C.ar      1 <0>        -0.1135
     17 C11        -0.5476   -1.4989    6.8952 C.ar      1 <0>         0.1498
     18 C12        -1.8730   -1.1338    6.6904 C.ar      1 <0>        -0.1561
     19 C13        -2.8192   -1.3926    7.6620 C.ar      1 <0>        -0.1029
     20 C14        -2.4465   -2.0159    8.8386 C.ar      1 <0>        -0.1362
     21 C15        -1.1283   -2.3902    9.0410 C.ar      1 <0>        -0.1013
     22 N2          1.3370   -1.3561   -1.1472 N.pl3     1 <0>        -1.1031
     23 S1          0.7611   -2.1713   -2.4686 S.o2      1 <0>         2.7003
     24 O4          1.8907   -2.5081   -3.2622 O.2       1 <0>        -0.9426
     25 O5         -0.1450   -3.1502   -1.9787 O.2       1 <0>        -0.9457
     26 C16        -0.1933   -1.0283   -3.4106 C.ar      1 <0>        -0.6765
     27 C17        -1.5451   -0.8863   -3.1575 C.ar      1 <0>        -0.0128
     28 C18        -2.3008    0.0093   -3.8928 C.ar      1 <0>        -0.1345
     29 C19        -1.6975    0.7645   -4.8842 C.ar      1 <0>         0.1273
     30 C20        -0.3408    0.6221   -5.1381 C.ar      1 <0>         0.0468
     31 C21         0.4135   -0.2719   -4.3973 C.ar      1 <0>        -0.0117
     32 O6          0.2443    1.3719   -6.1168 O.3       1 <0>        -0.3146
     33 C22        -0.1459    1.0646   -7.4568 C.3       1 <0>         0.0561
     34 C23        -1.4308    1.7901   -7.8243 C.3       1 <0>        -0.1899
     35 C24        -2.6165    1.3238   -6.9943 C.3       1 <0>         0.0606
     36 O7         -2.4310    1.6527   -5.6160 O.3       1 <0>        -0.3194
     37 H3          0.9922    1.2073   -0.4212 H         1 <0>         0.0749
     38 H4         -0.3817    0.6895   -1.4274 H         1 <0>         0.0802
     39 H5         -0.6168    0.9963    0.3101 H         1 <0>         0.0918
     40 H6          2.3135    0.5268    4.8267 H         1 <0>         0.0855
     41 H7          2.5567    0.7743    3.0808 H         1 <0>         0.0814
     42 H8          1.1307    1.4694    3.8881 H         1 <0>         0.0793
     43 H9          2.4128   -1.3698    5.3041 H         1 <0>         0.0957
     44 H10         2.1307   -0.4775    6.8229 H         1 <0>         0.0860
     45 H11         1.6606   -3.4759    6.4431 H         1 <0>         0.0751
     46 H12         3.0914   -2.7632    7.2314 H         1 <0>         0.0906
     47 H13         1.2734   -3.4925    8.8379 H         1 <0>         0.0829
     48 H14         1.7276   -1.7794    8.9725 H         1 <0>         0.0799
     49 H15        -2.1628   -0.6472    5.7708 H         1 <0>         0.1747
     50 H16        -3.8490   -1.1082    7.5034 H         1 <0>         0.1258
     51 H17        -3.1866   -2.2192    9.5984 H         1 <0>         0.1225
     52 H18        -0.8416   -2.8767    9.9616 H         1 <0>         0.1257
     53 H19         2.2910   -1.2162   -1.0415 H         1 <0>         0.4299
     54 H20        -2.0126   -1.4767   -2.3834 H         1 <0>         0.1525
     55 H21        -3.3568    0.1187   -3.6946 H         1 <0>         0.1491
     56 H22         1.4703   -0.3810   -4.5913 H         1 <0>         0.1543
     57 H23         0.6465    1.3699   -8.1402 H         1 <0>         0.1104
     58 H24        -0.3024   -0.0103   -7.5473 H         1 <0>         0.0605
     59 H25        -1.2894    2.8596   -7.6683 H         1 <0>         0.0874
     60 H26        -1.6465    1.6142   -8.8781 H         1 <0>         0.0962
     61 H27        -3.5225    1.8072   -7.3597 H         1 <0>         0.1116
     62 H28        -2.7218    0.2435   -7.0943 H         1 <0>         0.0616
@<TRIPOS>BOND
     1    1    2 1
     2    1   37 1
     3    1   38 1
     4    1   39 1
     5    2    3 1
     6    2    4 1
     7    2   22 1
     8    4    5 2
     9    4    6 1
    10    6    7 1
    11    7    8 1
    12    7    9 1
    13    7   10 1
    14    9   40 1
    15    9   41 1
    16    9   42 1
    17   10   11 2
    18   10   12 am
    19   12   17 1
    20   12   13 1
    21   13   14 1
    22   13   43 1
    23   13   44 1
    24   14   15 1
    25   14   45 1
    26   14   46 1
    27   15   16 1
    28   15   47 1
    29   15   48 1
    30   16   21 ar
    31   16   17 ar
    32   17   18 ar
    33   18   19 ar
    34   18   49 1
    35   19   20 ar
    36   19   50 1
    37   20   21 ar
    38   20   51 1
    39   21   52 1
    40   22   23 1
    41   22   53 1
    42   23   24 2
    43   23   25 2
    44   23   26 1
    45   26   31 ar
    46   26   27 ar
    47   27   28 ar
    48   27   54 1
    49   28   29 ar
    50   28   55 1
    51   29   36 1
    52   29   30 ar
    53   30   31 ar
    54   30   32 1
    55   31   56 1
    56   32   33 1
    57   33   34 1
    58   33   57 1
    59   33   58 1
    60   34   35 1
    61   34   59 1
    62   34   60 1
    63   35   36 1
    64   35   61 1
    65   35   62 1
@<TRIPOS>MOLECULE
ZINC12186187
   53    57     0     0     0
SMALL
USER_CHARGES
5-[[2-(1,3-benzodioxol-5-yl)ethylamino]methyl]-1-(4-fluorophenyl)-3-methyl-7H-pyrazolo[4,5-e]pyridin-6-one
@<TRIPOS>ATOM
      1 C1         11.8367   -5.4671    3.0917 C.3       1 <0>        -0.0873
      2 C2         12.2769   -4.0305    2.9759 C.2       1 <0>         0.1587
      3 C3         11.5217   -2.9753    2.4125 C.2       1 <0>        -0.2781
      4 C4         10.2346   -2.9047    1.8321 C.2       1 <0>         0.1225
      5 C5          9.7832   -1.7099    1.3673 C.2       1 <0>        -0.3310
      6 C6         10.5895   -0.5623    1.4766 C.2       1 <0>         0.5620
      7 O1         10.1749    0.5069    1.0607 O.2       1 <0>        -0.5311
      8 N1         11.8132   -0.6294    2.0339 N.am      1 <0>        -0.6026
      9 H1         12.3556    0.1720    2.1007 H         1 <0>         0.4228
     10 C7         12.2987   -1.8184    2.5067 C.2       1 <0>         0.3766
     11 N2         13.4666   -2.1756    3.1021 N.pl3     1 <0>        -0.3149
     12 N3         13.4187   -3.5472    3.3778 N.2       1 <0>        -0.2467
     13 C8         14.5371   -1.3172    3.3903 C.ar      1 <0>         0.1118
     14 C9         14.8444   -0.2749    2.5262 C.ar      1 <0>        -0.1073
     15 C10        15.8959    0.5727    2.8146 C.ar      1 <0>        -0.1253
     16 C11        16.6502    0.3772    3.9594 C.ar      1 <0>         0.1202
     17 C12        16.3488   -0.6654    4.8196 C.ar      1 <0>        -0.1277
     18 C13        15.2947   -1.5120    4.5373 C.ar      1 <0>        -0.0643
     19 F1         17.6817    1.2042    4.2372 F         1 <0>        -0.1226
     20 C14         8.4161   -1.6133    0.7406 C.3       1 <0>         0.0812
     21 C15         6.0930   -1.0910    1.1799 C.3       1 <0>        -0.0040
     22 C16         5.1066   -0.6554    2.2653 C.3       1 <0>        -0.0959
     23 C17         3.7246   -0.5476    1.6742 C.ar      1 <0>        -0.0999
     24 C18         2.8855   -1.6464    1.6768 C.ar      1 <0>        -0.0963
     25 C19         1.6171   -1.5526    1.1353 C.ar      1 <0>        -0.0987
     26 C20         1.1834   -0.3557    0.5885 C.ar      1 <0>         0.0495
     27 C21         2.0284    0.7513    0.5864 C.ar      1 <0>         0.0386
     28 C22         3.2987    0.6497    1.1300 C.ar      1 <0>        -0.0930
     29 O2          1.3764    1.7966   -0.0014 O.3       1 <0>        -0.3053
     30 C23        -0.0175    1.4357    0.0099 C.3       1 <0>         0.2121
     31 O3          0.0021   -0.0041    0.0020 O.3       1 <0>        -0.3034
     32 H2         12.1394   -6.0130    2.1981 H         1 <0>         0.0969
     33 H3         12.3003   -5.9197    3.9683 H         1 <0>         0.0920
     34 H4         10.7522   -5.5078    3.1924 H         1 <0>         0.0889
     35 H5          9.6197   -3.7893    1.7555 H         1 <0>         0.1578
     36 H6         14.2589   -0.1245    1.6312 H         1 <0>         0.1339
     37 H7         16.1325    1.3864    2.1449 H         1 <0>         0.1555
     38 H8         16.9386   -0.8168    5.7115 H         1 <0>         0.1563
     39 H9         15.0602   -2.3251    5.2082 H         1 <0>         0.1516
     40 H10         8.1304   -2.5859    0.3400 H         1 <0>         0.1407
     41 H11         8.4371   -0.8802   -0.0658 H         1 <0>         0.1421
     42 H12         5.7912   -2.0601    0.7824 H         1 <0>         0.1353
     43 H13         6.0979   -0.3543    0.3766 H         1 <0>         0.1342
     44 H14         5.4083    0.3136    2.6628 H         1 <0>         0.0977
     45 H15         5.1016   -1.3921    3.0687 H         1 <0>         0.0999
     46 H16         3.2220   -2.5802    2.1025 H         1 <0>         0.1410
     47 H17         0.9638   -2.4126    1.1387 H         1 <0>         0.1430
     48 H18         3.9562    1.5065    1.1294 H         1 <0>         0.1382
     49 H19        -0.5191    1.8168   -0.8796 H         1 <0>         0.1401
     50 H20        -0.5019    1.8072    0.9129 H         1 <0>         0.0925
     51 N4          7.4425   -1.1941    1.7665 N.4       1 <0>        -0.5204
     52 H21         7.7192   -0.2795    2.1423 H         1 <0>         0.4344
     53 H22         7.4302   -1.8863    2.5247 H         1 <0>         0.4277
@<TRIPOS>BOND
     1    1    2 1
     2    1   32 1
     3    1   33 1
     4    1   34 1
     5    2   12 2
     6    2    3 1
     7    3   10 2
     8    3    4 1
     9    4    5 2
    10    4   35 1
    11    5    6 1
    12    5   20 1
    13    6    7 2
    14    6    8 am
    15    8    9 1
    16    8   10 1
    17   10   11 1
    18   11   12 1
    19   11   13 1
    20   13   18 ar
    21   13   14 ar
    22   14   15 ar
    23   14   36 1
    24   15   16 ar
    25   15   37 1
    26   16   17 ar
    27   16   19 1
    28   17   18 ar
    29   17   38 1
    30   18   39 1
    31   20   40 1
    32   20   41 1
    33   20   51 1
    34   21   22 1
    35   21   42 1
    36   21   43 1
    37   21   51 1
    38   22   23 1
    39   22   44 1
    40   22   45 1
    41   23   28 ar
    42   23   24 ar
    43   24   25 ar
    44   24   46 1
    45   25   26 ar
    46   25   47 1
    47   26   31 1
    48   26   27 ar
    49   27   28 ar
    50   27   29 1
    51   28   48 1
    52   29   30 1
    53   30   31 1
    54   30   49 1
    55   30   50 1
    56   51   52 1
    57   51   53 1
@<TRIPOS>MOLECULE
ZINC31302294
   62    64     0     0     0
SMALL
USER_CHARGES
(2S)-2-[[2-(2,3-dimethylanilino)-2-oxo-ethyl]-methyl-amino]-N-[4-(2-oxopyrrolidin-1-yl)phenyl]propanamide
@<TRIPOS>ATOM
      1 C1         -2.0812  -10.1750    0.5680 C.3       1 <0>        -0.1211
      2 C2         -1.3828   -8.9774   -0.0228 C.ar      1 <0>        -0.0665
      3 C3         -0.1797   -9.1370   -0.6862 C.ar      1 <0>        -0.1145
      4 C4          0.4640   -8.0409   -1.2300 C.ar      1 <0>        -0.1034
      5 C5         -0.0933   -6.7824   -1.1127 C.ar      1 <0>        -0.1183
      6 C6         -1.3010   -6.6188   -0.4473 C.ar      1 <0>         0.1252
      7 C7         -1.9420   -7.7211    0.1033 C.ar      1 <0>        -0.1006
      8 C8         -3.2498   -7.5472    0.8317 C.3       1 <0>        -0.1147
      9 N1         -1.8681   -5.3453   -0.3267 N.am      1 <0>        -0.6554
     10 C9         -1.0750   -4.2654   -0.1811 C.2       1 <0>         0.5012
     11 O1          0.1306   -4.3866   -0.2359 O.2       1 <0>        -0.5113
     12 C10        -1.6861   -2.9074    0.0499 C.3       1 <0>        -0.0280
     13 N2         -0.6193   -1.9053    0.1752 N.4       1 <0>        -0.3765
     14 C11         0.1823   -2.1381    1.3841 C.3       1 <0>        -0.0666
     15 C12        -1.1716   -0.5441    0.1638 C.3       1 <0>         0.0142
     16 H1         -1.8354   -0.4599   -0.7093 H         1 <0>         0.1647
     17 C13        -1.9408   -0.2950    1.4627 C.3       1 <0>        -0.1840
     18 C14        -0.0478    0.4530    0.0463 C.2       1 <0>         0.5046
     19 O2          1.1003    0.0677   -0.0212 O.2       1 <0>        -0.5130
     20 N3         -0.3184    1.7730    0.0164 N.am      1 <0>        -0.6508
     21 C15         0.7292    2.7026    0.0021 C.ar      1 <0>         0.0919
     22 C16         0.5897    3.9162    0.6626 C.ar      1 <0>        -0.0977
     23 C17         1.6244    4.8300    0.6533 C.ar      1 <0>        -0.1412
     24 C18         2.8002    4.5406   -0.0265 C.ar      1 <0>         0.1739
     25 C19         2.9376    3.3294   -0.6918 C.ar      1 <0>        -0.1440
     26 C20         1.9052    2.4131   -0.6774 C.ar      1 <0>        -0.0836
     27 N4          3.8479    5.4703   -0.0408 N.am      1 <0>        -0.5637
     28 C21         5.0828    5.3144   -0.8185 C.3       1 <0>         0.0880
     29 C22         6.0868    6.3137   -0.2023 C.3       1 <0>        -0.1333
     30 C23         5.1415    7.3717    0.4127 C.3       1 <0>        -0.1535
     31 C24         3.8490    6.6225    0.6515 C.2       1 <0>         0.5214
     32 O3          2.9462    7.0047    1.3656 O.2       1 <0>        -0.5050
     33 H2         -1.4892  -11.0803    0.3680 H         1 <0>         0.0716
     34 H3         -3.0771  -10.2801    0.1129 H         1 <0>         0.0748
     35 H4         -2.1871  -10.0387    1.6544 H         1 <0>         0.0737
     36 H5          0.2580  -10.1199   -0.7793 H         1 <0>         0.1295
     37 H6          1.4033   -8.1688   -1.7474 H         1 <0>         0.1303
     38 H7          0.4096   -5.9266   -1.5383 H         1 <0>         0.1365
     39 H8         -3.5327   -6.4842    0.8285 H         1 <0>         0.0549
     40 H9         -3.1403   -7.8944    1.8697 H         1 <0>         0.0784
     41 H10        -4.0309   -8.1361    0.3285 H         1 <0>         0.0789
     42 H11        -2.9613   -5.2255   -0.3507 H         1 <0>         0.4428
     43 H12        -2.3349   -2.6480   -0.7996 H         1 <0>         0.1634
     44 H13        -2.2822   -2.9259    0.9742 H         1 <0>         0.1614
     45 H14         0.9719   -1.3753    1.4530 H         1 <0>         0.1404
     46 H15         0.6406   -3.1368    1.3334 H         1 <0>         0.1414
     47 H16        -0.4654   -2.0765    2.2710 H         1 <0>         0.1157
     48 H17        -2.3544    0.7243    1.4542 H         1 <0>         0.1121
     49 H18        -1.2599   -0.4073    2.3193 H         1 <0>         0.0937
     50 H19        -2.7611   -1.0229    1.5484 H         1 <0>         0.0959
     51 H20        -1.3620    2.1203    0.0032 H         1 <0>         0.4433
     52 H21        -0.3264    4.1431    1.1876 H         1 <0>         0.1337
     53 H22         1.5177    5.7718    1.1710 H         1 <0>         0.1641
     54 H23         3.8521    3.1042   -1.2203 H         1 <0>         0.1333
     55 H24         2.0123    1.4708   -1.1942 H         1 <0>         0.1408
     56 H25         5.4423    4.2784   -0.7319 H         1 <0>         0.0878
     57 H26         4.8824    5.5458   -1.8750 H         1 <0>         0.0844
     58 H27         6.7047    5.7975    0.5471 H         1 <0>         0.0885
     59 H28         6.7335    6.7192   -0.9944 H         1 <0>         0.1009
     60 H29         5.5765    7.7522    1.3487 H         1 <0>         0.1138
     61 H30         5.0113    8.2031   -0.2957 H         1 <0>         0.1161
     62 H31         0.0447   -2.0079   -0.6957 H         1 <0>         0.4594
@<TRIPOS>BOND
     1    1    2 1
     2    1   33 1
     3    1   34 1
     4    1   35 1
     5    2    7 ar
     6    2    3 ar
     7    3    4 ar
     8    3   36 1
     9    4    5 ar
    10    4   37 1
    11    5    6 ar
    12    5   38 1
    13    6    7 ar
    14    6    9 1
    15    7    8 1
    16    8   39 1
    17    8   40 1
    18    8   41 1
    19    9   10 am
    20    9   42 1
    21   10   11 2
    22   10   12 1
    23   12   13 1
    24   12   43 1
    25   12   44 1
    26   13   14 1
    27   13   15 1
    28   13   62 1
    29   14   45 1
    30   14   46 1
    31   14   47 1
    32   15   16 1
    33   15   17 1
    34   15   18 1
    35   17   48 1
    36   17   49 1
    37   17   50 1
    38   18   19 2
    39   18   20 am
    40   20   21 1
    41   20   51 1
    42   21   26 ar
    43   21   22 ar
    44   22   23 ar
    45   22   52 1
    46   23   24 ar
    47   23   53 1
    48   24   25 ar
    49   24   27 1
    50   25   26 ar
    51   25   54 1
    52   26   55 1
    53   27   31 am
    54   27   28 1
    55   28   29 1
    56   28   56 1
    57   28   57 1
    58   29   30 1
    59   29   58 1
    60   29   59 1
    61   30   31 1
    62   30   60 1
    63   30   61 1
    64   31   32 2
@<TRIPOS>MOLECULE
ZINC39484792
   49    51     0     0     0
SMALL
USER_CHARGES

@<TRIPOS>ATOM
      1 C1          0.1599    1.8465   -0.2867 C.2       1 <0>        -0.2111
      2 C2          1.5539    2.0683   -0.2061 C.2       1 <0>        -0.1255
      3 C3          2.1365    0.8590   -0.1190 C.2       1 <0>        -0.1105
      4 O1          1.1747   -0.0781   -0.1424 O.3       1 <0>        -0.1836
      5 C4         -0.0260    0.5150   -0.2440 C.2       1 <0>         0.0115
      6 C5          3.6172    0.5997   -0.0135 C.3       1 <0>         0.1251
      7 H1          4.1652    1.4731   -0.3669 H         1 <0>         0.1770
      8 C6          3.9840    0.3237    1.4461 C.3       1 <0>         0.0965
      9 N1          3.3486   -0.9222    1.8821 N.am      1 <0>        -0.7441
     10 C7          3.4617   -1.3238    3.1637 C.2       1 <0>         0.5194
     11 O2          4.0894   -0.6536    3.9560 O.2       1 <0>        -0.5043
     12 C8          2.8081   -2.6055    3.6122 C.3       1 <0>         0.1014
     13 N2          3.0760   -2.8177    5.0367 N.am      1 <0>        -0.7145
     14 C9          2.5868   -3.9085    5.6592 C.2       1 <0>         0.6154
     15 O3          1.9226   -4.7172    5.0378 O.2       1 <0>        -0.5083
     16 C10         2.8547   -4.1208    7.0843 C.2       1 <0>        -0.0701
     17 C11         2.4261   -5.1803    7.8323 C.2       1 <0>        -0.1022
     18 C12         2.9089   -4.9776    9.1337 C.2       1 <0>        -0.1649
     19 C13         3.6035   -3.8164    9.1244 C.2       1 <0>         0.0046
     20 O4          3.5731   -3.3066    7.8860 O.3       1 <0>        -0.1483
     21 Br1         4.4794   -3.0448   10.6121 Br        1 <0>         0.0743
     22 N3          3.9701   -0.5654   -0.8357 N.4       1 <0>        -0.3862
     23 C14         5.4132   -0.8142   -0.7353 C.3       1 <0>        -0.0166
     24 C15         5.7734   -2.0746   -1.5247 C.3       1 <0>        -0.1441
     25 C16         5.3888   -1.8775   -2.9939 C.3       1 <0>        -0.1394
     26 C17         3.8964   -1.5452   -3.0805 C.3       1 <0>        -0.1444
     27 C18         3.6057   -0.3044   -2.2334 C.3       1 <0>        -0.0064
     28 H2         -0.6086    2.6015   -0.3631 H         1 <0>         0.1646
     29 H3          2.0549    3.0250   -0.2137 H         1 <0>         0.1628
     30 H4         -0.9792    0.0087   -0.2842 H         1 <0>         0.2195
     31 H5          5.0662    0.2311    1.5375 H         1 <0>         0.1077
     32 H6          3.6357    1.1469    2.0700 H         1 <0>         0.1226
     33 H7          2.8466   -1.4583    1.2484 H         1 <0>         0.3983
     34 H8          1.7321   -2.5406    3.4505 H         1 <0>         0.1101
     35 H9          3.2122   -3.4395    3.0383 H         1 <0>         0.1088
     36 H10         3.6053   -2.1732    5.5320 H         1 <0>         0.4200
     37 H11         1.8304   -6.0130    7.4884 H         1 <0>         0.1740
     38 H12         2.7547   -5.6260    9.9835 H         1 <0>         0.1737
     39 H13         5.9575    0.0374   -1.1433 H         1 <0>         0.1364
     40 H14         5.6859   -0.9512    0.3111 H         1 <0>         0.1332
     41 H15         6.8455   -2.2566   -1.4504 H         1 <0>         0.1162
     42 H16         5.2298   -2.9270   -1.1174 H         1 <0>         0.0879
     43 H17         5.9699   -1.0575   -3.4159 H         1 <0>         0.0839
     44 H18         5.5912   -2.7930   -3.5497 H         1 <0>         0.0965
     45 H19         3.6269   -1.3487   -4.1182 H         1 <0>         0.1148
     46 H20         3.3138   -2.3866   -2.7054 H         1 <0>         0.0877
     47 H21         2.5440   -0.0649   -2.2930 H         1 <0>         0.1296
     48 H22         4.1886    0.5364   -2.6095 H         1 <0>         0.1330
     49 H23         3.4674   -1.3748   -0.5037 H         1 <0>         0.4179
@<TRIPOS>BOND
     1    1    5 2
     2    1    2 1
     3    1   28 1
     4    2    3 2
     5    2   29 1
     6    3    4 1
     7    3    6 1
     8    4    5 1
     9    5   30 1
    10    6    7 1
    11    6    8 1
    12    6   22 1
    13    8    9 1
    14    8   31 1
    15    8   32 1
    16    9   10 am
    17    9   33 1
    18   10   11 2
    19   10   12 1
    20   12   13 1
    21   12   34 1
    22   12   35 1
    23   13   14 am
    24   13   36 1
    25   14   15 2
    26   14   16 1
    27   16   20 1
    28   16   17 2
    29   17   18 1
    30   17   37 1
    31   18   19 2
    32   18   38 1
    33   19   20 1
    34   19   21 1
    35   22   27 1
    36   22   23 1
    37   22   49 1
    38   23   24 1
    39   23   39 1
    40   23   40 1
    41   24   25 1
    42   24   41 1
    43   24   42 1
    44   25   26 1
    45   25   43 1
    46   25   44 1
    47   26   27 1
    48   26   45 1
    49   26   46 1
    50   27   47 1
    51   27   48 1
@<TRIPOS>MOLECULE
ZINC57727851
   58    61     0     0     0
SMALL
USER_CHARGES

@<TRIPOS>ATOM
      1 C1          0.4997    1.7027   -2.4832 C.3       1 <0>        -0.1882
      2 C2          0.0557    0.2408   -2.4033 C.3       1 <0>        -0.0184
      3 N1          0.6732   -0.3953   -1.2320 N.4       1 <0>        -0.3816
      4 C3          0.1620    0.2337   -0.0068 C.3       1 <0>        -0.0144
      5 C4          0.8918   -0.3459    1.2067 C.3       1 <0>        -0.1904
      6 C5          0.3439   -1.8269   -1.2216 C.3       1 <0>        -0.0369
      7 C6          0.9632   -2.5015   -2.4472 C.3       1 <0>         0.1130
      8 N2          0.7413   -3.9477   -2.3729 N.pl3     1 <0>        -0.4913
      9 C7          1.5875   -4.8721   -1.7691 C.ar      1 <0>         0.0689
     10 C8          2.7996   -4.7534   -1.1036 C.ar      1 <0>        -0.1014
     11 C9          3.4203   -5.8786   -0.5995 C.ar      1 <0>        -0.0966
     12 C10         2.8392   -7.1259   -0.7553 C.ar      1 <0>        -0.0911
     13 C11         1.6339   -7.2548   -1.4157 C.ar      1 <0>        -0.0929
     14 C12         1.0013   -6.1298   -1.9258 C.ar      1 <0>         0.0869
     15 N3         -0.1888   -5.9432   -2.6215 N.pl3     1 <0>        -0.6033
     16 C13        -0.3294   -4.6158   -2.8768 C.2       1 <0>         0.6543
     17 N4         -1.3516   -4.0591   -3.5212 N.2       1 <0>        -0.6702
     18 C14        -2.4034   -4.7970   -3.8627 C.2       1 <0>         0.5053
     19 O1         -2.4727   -5.9579   -3.5077 O.2       1 <0>        -0.5586
     20 C15        -3.5097   -4.1948   -4.6900 C.3       1 <0>        -0.0313
     21 H1         -3.9434   -3.3492   -4.1561 H         1 <0>         0.1253
     22 C16        -2.9433   -3.7165   -6.0274 C.3       1 <0>        -0.1262
     23 C17        -2.5962   -4.9002   -6.8895 C.2       1 <0>         0.5185
     24 O2         -1.6297   -4.8466   -7.6203 O.2       1 <0>        -0.5176
     25 N5         -3.3454   -6.0176   -6.8588 N.am      1 <0>        -0.6609
     26 C18        -4.4533   -6.1049   -6.0102 C.ar      1 <0>         0.2047
     27 C19        -4.5741   -5.2323   -4.9364 C.ar      1 <0>        -0.1264
     28 C20        -5.6673   -5.3171   -4.0975 C.ar      1 <0>        -0.0402
     29 C21        -6.6424   -6.2709   -4.3247 C.ar      1 <0>        -0.1736
     30 C22        -6.5254   -7.1434   -5.3938 C.ar      1 <0>         0.1428
     31 C23        -5.4326   -7.0616   -6.2377 C.ar      1 <0>        -0.1900
     32 F1         -7.4791   -8.0750   -5.6126 F         1 <0>        -0.1294
     33 H2          0.1892    2.2267   -1.5792 H         1 <0>         0.0809
     34 H3          1.5849    1.7483   -2.5749 H         1 <0>         0.0809
     35 H4          0.0415    2.1747   -3.3523 H         1 <0>         0.1088
     36 H5         -1.0295    0.1952   -2.3115 H         1 <0>         0.1346
     37 H6          0.3662   -0.2832   -3.3072 H         1 <0>         0.1330
     38 H7          0.3312    1.3095   -0.0528 H         1 <0>         0.1371
     39 H8         -0.9063    0.0374    0.0838 H         1 <0>         0.1307
     40 H9          0.7834   -1.4304    1.2120 H         1 <0>         0.0781
     41 H10         1.9491   -0.0867    1.1527 H         1 <0>         0.0824
     42 H11         0.4627    0.0667    2.1198 H         1 <0>         0.1080
     43 H12         0.7411   -2.2845   -0.3155 H         1 <0>         0.1378
     44 H13        -0.7387   -1.9508   -1.2467 H         1 <0>         0.1424
     45 H14         0.4987   -2.1087   -3.3517 H         1 <0>         0.1278
     46 H15         2.0339   -2.2990   -2.4713 H         1 <0>         0.1130
     47 H16         3.2564   -3.7825   -0.9805 H         1 <0>         0.1315
     48 H17         4.3635   -5.7858   -0.0816 H         1 <0>         0.1437
     49 H18         3.3314   -8.0016   -0.3588 H         1 <0>         0.1448
     50 H19         1.1842   -8.2294   -1.5354 H         1 <0>         0.1406
     51 H20        -3.6866   -3.1032   -6.5367 H         1 <0>         0.1177
     52 H21        -2.0466   -3.1230   -5.8493 H         1 <0>         0.1209
     53 H22        -3.1155   -6.7675   -7.4294 H         1 <0>         0.4155
     54 H23        -5.7609   -4.6381   -3.2629 H         1 <0>         0.1380
     55 H24        -7.4966   -6.3358   -3.6671 H         1 <0>         0.1427
     56 H25        -5.3415   -7.7414   -7.0719 H         1 <0>         0.1442
     57 H26        -0.8128   -6.6403   -2.8774 H         1 <0>         0.4536
     58 H27         1.6748   -0.2809   -1.2761 H         1 <0>         0.4227
@<TRIPOS>BOND
     1    1    2 1
     2    1   33 1
     3    1   34 1
     4    1   35 1
     5    2    3 1
     6    2   36 1
     7    2   37 1
     8    3    4 1
     9    3    6 1
    10    3   58 1
    11    4    5 1
    12    4   38 1
    13    4   39 1
    14    5   40 1
    15    5   41 1
    16    5   42 1
    17    6    7 1
    18    6   43 1
    19    6   44 1
    20    7    8 1
    21    7   45 1
    22    7   46 1
    23    8   16 1
    24    8    9 1
    25    9   14 ar
    26    9   10 ar
    27   10   11 ar
    28   10   47 1
    29   11   12 ar
    30   11   48 1
    31   12   13 ar
    32   12   49 1
    33   13   14 ar
    34   13   50 1
    35   14   15 1
    36   15   16 1
    37   15   57 1
    38   16   17 2
    39   17   18 1
    40   18   19 2
    41   18   20 1
    42   20   21 1
    43   20   27 1
    44   20   22 1
    45   22   23 1
    46   22   51 1
    47   22   52 1
    48   23   24 2
    49   23   25 am
    50   25   26 1
    51   25   53 1
    52   26   31 ar
    53   26   27 ar
    54   27   28 ar
    55   28   29 ar
    56   28   54 1
    57   29   30 ar
    58   29   55 1
    59   30   31 ar
    60   30   32 1
    61   31   56 1
@<TRIPOS>MOLECULE
ZINC39939549
   51    55     0     0     0
SMALL
USER_CHARGES

@<TRIPOS>ATOM
      1 C1         -0.8263    1.0232    1.1243 C.ar      1 <0>        -0.1487
      2 C2          0.1818    1.9640    1.3451 C.ar      1 <0>         0.0478
      3 C3          1.4952    1.6357    1.2714 C.ar      1 <0>        -0.2052
      4 C4          1.8731    0.3035    0.9623 C.ar      1 <0>         0.3150
      5 N1          3.0588   -0.2593    0.8338 N.pl3     1 <0>        -0.5990
      6 C5          2.8881   -1.6775    0.5036 C.3       1 <0>         0.0782
      7 C6          1.3955   -1.9165    0.4451 C.2       1 <0>         0.1344
      8 C7          0.8066   -0.6841    0.7305 C.ar      1 <0>        -0.1413
      9 C8         -0.5390   -0.2697    0.8242 C.ar      1 <0>        -0.0116
     10 C9          0.7402   -3.1247    0.1624 C.2       1 <0>         0.2608
     11 N2         -0.5539   -3.2471    0.0279 N.2       1 <0>        -0.1745
     12 N3         -0.9132   -4.5709   -0.2509 N.pl3     1 <0>        -0.5847
     13 C10         0.3386   -5.3450   -0.2880 C.3       1 <0>         0.3701
     14 H1          0.3324   -6.1170    0.4815 H         1 <0>         0.1351
     15 N4          1.3887   -4.3494   -0.0173 N.pl3     1 <0>        -0.6074
     16 C11         2.8312   -4.5951    0.0529 C.3       1 <0>         0.0750
     17 C12         3.3222   -6.0118   -0.2518 C.3       1 <0>        -0.1568
     18 C13         3.3414   -5.4882    1.1856 C.3       1 <0>        -0.1896
     19 S1          0.5780   -6.0861   -1.9263 S.3       1 <0>        -0.1583
     20 C14         0.5922   -4.6646   -3.0532 C.3       1 <0>        -0.1204
     21 C15         0.7866   -5.1468   -4.4676 C.2       1 <0>         0.5280
     22 O1          0.9040   -6.3327   -4.6933 O.2       1 <0>        -0.4864
     23 N5          0.8300   -4.2603   -5.4819 N.am      1 <0>        -0.6677
     24 C16         0.9028   -4.7128   -6.8042 C.ar      1 <0>         0.1385
     25 C17         1.6344   -3.9967   -7.7444 C.ar      1 <0>        -0.1122
     26 C18         1.7096   -4.4391   -9.0517 C.ar      1 <0>        -0.0963
     27 C19         1.0592   -5.5953   -9.4325 C.ar      1 <0>        -0.0783
     28 C20         0.3220   -6.3223   -8.4956 C.ar      1 <0>        -0.0012
     29 C21         0.2503   -5.8779   -7.1747 C.ar      1 <0>        -0.0733
     30 C22        -0.3539   -7.5223   -8.8877 C.1       1 <0>         0.2455
     31 N6         -0.8901   -8.4743   -9.1987 N.1       1 <0>        -0.3983
     32 H2         -1.8591    1.3301    1.1983 H         1 <0>         0.1559
     33 H3         -0.0924    2.9816    1.5809 H         1 <0>         0.1609
     34 H4          2.2517    2.3862    1.4471 H         1 <0>         0.1608
     35 H5          3.3412   -1.8948   -0.4636 H         1 <0>         0.1706
     36 H6          3.3377   -2.2997    1.2775 H         1 <0>         0.1743
     37 H7         -1.3373   -0.9780    0.6583 H         1 <0>         0.1607
     38 H8         -1.8105   -4.9113   -0.3920 H         1 <0>         0.4684
     39 H9          3.4652   -3.7647   -0.2577 H         1 <0>         0.1321
     40 H10         2.5719   -6.7610   -0.5045 H         1 <0>         0.1163
     41 H11         4.2794   -6.1136   -0.7632 H         1 <0>         0.1171
     42 H12         4.3113   -5.2455    1.6199 H         1 <0>         0.1125
     43 H13         2.6038   -5.8929    1.8786 H         1 <0>         0.1029
     44 H14        -0.3558   -4.1319   -2.9780 H         1 <0>         0.1137
     45 H15         1.4081   -3.9945   -2.7824 H         1 <0>         0.1090
     46 H16         0.8108   -3.3086   -5.2953 H         1 <0>         0.4134
     47 H17         2.1455   -3.0912   -7.4526 H         1 <0>         0.1342
     48 H18         2.2790   -3.8779   -9.7778 H         1 <0>         0.1429
     49 H19         1.1201   -5.9375  -10.4550 H         1 <0>         0.1397
     50 H20        -0.3153   -6.4378   -6.4446 H         1 <0>         0.1422
     51 H21         3.9098    0.1937    0.9406 H         1 <0>         0.4551
@<TRIPOS>BOND
     1    1    9 ar
     2    1    2 ar
     3    1   32 1
     4    2    3 ar
     5    2   33 1
     6    3    4 ar
     7    3   34 1
     8    4    8 ar
     9    4    5 2
    10    5    6 1
    11    5   51 1
    12    6    7 1
    13    6   35 1
    14    6   36 1
    15    7    8 2
    16    7   10 1
    17    8    9 ar
    18    9   37 1
    19   10   15 1
    20   10   11 2
    21   11   12 1
    22   12   13 1
    23   12   38 1
    24   13   14 1
    25   13   15 1
    26   13   19 1
    27   15   16 1
    28   16   18 1
    29   16   17 1
    30   16   39 1
    31   17   18 1
    32   17   40 1
    33   17   41 1
    34   18   42 1
    35   18   43 1
    36   19   20 1
    37   20   21 1
    38   20   44 1
    39   20   45 1
    40   21   22 2
    41   21   23 am
    42   23   24 1
    43   23   46 1
    44   24   29 ar
    45   24   25 ar
    46   25   26 ar
    47   25   47 1
    48   26   27 ar
    49   26   48 1
    50   27   28 ar
    51   27   49 1
    52   28   29 ar
    53   28   30 1
    54   29   50 1
    55   30   31 3
@<TRIPOS>MOLECULE
ZINC12497157
   52    55     0     0     0
SMALL
USER_CHARGES
methyl (3aS,4S,6S,6aS)-6-(hydroxymethyl)-4-(o-tolyl)-1,3-dioxo-2-phenyl-3a,4,5,6a-tetrahydropyrrolo[3,4-c]pyrrole-6-carboxylate
@<TRIPOS>ATOM
      1 C1          0.1265    4.8681   -0.5479 C.3       1 <0>        -0.1397
      2 C2          1.0448    4.9165    0.6461 C.ar      1 <0>        -0.0304
      3 C3          0.8766    5.8950    1.6083 C.ar      1 <0>        -0.1027
      4 C4          1.7188    5.9393    2.7033 C.ar      1 <0>        -0.0811
      5 C5          2.7290    5.0050    2.8367 C.ar      1 <0>        -0.1034
      6 C6          2.8944    4.0242    1.8771 C.ar      1 <0>        -0.1254
      7 C7          2.0553    3.9830    0.7790 C.ar      1 <0>        -0.1518
      8 C8          2.2386    2.9165   -0.2698 C.3       1 <0>         0.1401
      9 H1          2.0562    3.3202   -1.2657 H         1 <0>         0.1757
     10 C9          1.3654    1.7660   -0.0015 C.3       1 <0>        -0.1803
     11 H2          1.6622    1.5249    1.0192 H         1 <0>         0.1169
     12 C10         2.0409    0.6171   -0.8370 C.3       1 <0>        -0.1393
     13 H3          1.9027    0.7246   -1.9128 H         1 <0>         0.1866
     14 C11         1.2381   -0.5146   -0.2791 C.2       1 <0>         0.5456
     15 O1          1.6094   -1.6561   -0.1102 O.2       1 <0>        -0.3769
     16 N1          0.0021   -0.0041    0.0020 N.am      1 <0>        -0.5279
     17 C12        -0.0165    1.3687    0.0096 C.2       1 <0>         0.5865
     18 O2         -0.9899    2.0913    0.0184 O.2       1 <0>        -0.4133
     19 C13        -1.1261   -0.7971    0.2551 C.ar      1 <0>         0.1103
     20 C14        -1.0248   -2.1812    0.2225 C.ar      1 <0>        -0.1346
     21 C15        -2.1366   -2.9599    0.4784 C.ar      1 <0>        -0.0943
     22 C16        -3.3522   -2.3620    0.7552 C.ar      1 <0>        -0.1155
     23 C17        -3.4576   -0.9835    0.7824 C.ar      1 <0>        -0.0945
     24 C18        -2.3479   -0.1996    0.5333 C.ar      1 <0>        -0.1367
     25 C19         3.4841    0.8445   -0.4237 C.3       1 <0>         0.1039
     26 C20         4.4291    0.4095   -1.5455 C.3       1 <0>         0.0642
     27 O3          5.7818    0.6299   -1.1411 O.3       1 <0>        -0.5646
     28 C21         3.7899    0.0800    0.8385 C.2       1 <0>         0.4411
     29 O4          3.1471   -0.9036    1.1198 O.2       1 <0>        -0.4198
     30 O5          4.7765    0.4919    1.6502 O.3       1 <0>        -0.3501
     31 C22         5.0152   -0.2929    2.8483 C.3       1 <0>         0.0354
     32 H4         -0.7335    4.2386   -0.3195 H         1 <0>         0.1015
     33 H5         -0.2138    5.8760   -0.7856 H         1 <0>         0.0837
     34 H6          0.6628    4.4547   -1.4021 H         1 <0>         0.0646
     35 H7          0.0874    6.6248    1.5040 H         1 <0>         0.1418
     36 H8          1.5879    6.7041    3.4546 H         1 <0>         0.1404
     37 H9          3.3873    5.0398    3.6922 H         1 <0>         0.1393
     38 H10         3.6812    3.2920    1.9832 H         1 <0>         0.1143
     39 H11        -0.0765   -2.6488    0.0019 H         1 <0>         0.1480
     40 H12        -2.0572   -4.0368    0.4582 H         1 <0>         0.1361
     41 H13        -4.2213   -2.9728    0.9502 H         1 <0>         0.1335
     42 H14        -4.4084   -0.5193    0.9989 H         1 <0>         0.1363
     43 H15        -2.4308    0.8770    0.5547 H         1 <0>         0.1495
     44 H16         4.2806   -0.6497   -1.7554 H         1 <0>         0.1128
     45 H17         4.2190    0.9907   -2.4434 H         1 <0>         0.1033
     46 H18         6.4372    0.3759   -1.8052 H         1 <0>         0.4173
     47 H19         5.8365    0.1476    3.4135 H         1 <0>         0.1217
     48 H20         4.1148   -0.3012    3.4625 H         1 <0>         0.0743
     49 H21         5.2734   -1.3142    2.5682 H         1 <0>         0.0802
     50 N2          3.6029    2.3073   -0.1844 N.4       1 <0>        -0.5189
     51 H22         3.9988    2.4744    0.7481 H         1 <0>         0.4423
     52 H23         4.2139    2.7258   -0.8956 H         1 <0>         0.4541
@<TRIPOS>BOND
     1    1    2 1
     2    1   32 1
     3    1   33 1
     4    1   34 1
     5    2    7 ar
     6    2    3 ar
     7    3    4 ar
     8    3   35 1
     9    4    5 ar
    10    4   36 1
    11    5    6 ar
    12    5   37 1
    13    6    7 ar
    14    6   38 1
    15    7    8 1
    16    8    9 1
    17    8   10 1
    18    8   50 1
    19   10   11 1
    20   10   17 1
    21   10   12 1
    22   12   13 1
    23   12   14 1
    24   12   25 1
    25   14   15 2
    26   14   16 am
    27   16   17 am
    28   16   19 1
    29   17   18 2
    30   19   24 ar
    31   19   20 ar
    32   20   21 ar
    33   20   39 1
    34   21   22 ar
    35   21   40 1
    36   22   23 ar
    37   22   41 1
    38   23   24 ar
    39   23   42 1
    40   24   43 1
    41   25   26 1
    42   25   28 1
    43   25   50 1
    44   26   27 1
    45   26   44 1
    46   26   45 1
    47   27   46 1
    48   28   29 2
    49   28   30 1
    50   30   31 1
    51   31   47 1
    52   31   48 1
    53   31   49 1
    54   50   51 1
    55   50   52 1
@<TRIPOS>MOLECULE
ZINC38536850
   39    42     0     0     0
SMALL
USER_CHARGES

@<TRIPOS>ATOM
      1 C1         -0.0184    1.5028    0.0103 C.3       1 <0>        -0.0827
      2 C2          0.0021   -0.0041    0.0020 C.2       1 <0>         0.0845
      3 C3          0.0059   -0.7057   -1.1580 C.2       1 <0>        -0.2643
      4 S1          0.0324   -2.3787   -0.5348 S.3       1 <0>         0.2228
      5 C4          0.0358   -2.0148    1.1084 C.2       1 <0>         0.2273
      6 N1          0.0227   -0.6995    1.1240 N.2       1 <0>        -0.5410
      7 N2          0.0531   -2.8912    2.1872 N.am      1 <0>        -0.5980
      8 C5          0.0706   -4.2219    1.9741 C.2       1 <0>         0.5361
      9 O1          0.0712   -4.6547    0.8411 O.2       1 <0>        -0.4822
     10 C6          0.0895   -5.1722    3.1436 C.3       1 <0>        -0.1675
     11 S2          0.1103   -6.8806    2.5343 S.3       1 <0>         0.2326
     12 C7          0.1310   -7.8562    4.0015 C.2       1 <0>         0.1988
     13 N3          0.1225   -7.2346    5.1420 N.2       1 <0>        -0.4310
     14 C8          0.1382   -8.0311    6.3833 C.3       1 <0>         0.2868
     15 H1         -0.7011   -7.7433    7.0164 H         1 <0>         0.1673
     16 C9          0.1400   -9.5671    6.1820 C.3       1 <0>         0.0395
     17 H2         -0.6906  -10.0126    6.7295 H         1 <0>         0.1933
     18 C10         1.4500  -10.0220    6.7830 C.ar      1 <0>        -0.2360
     19 C11         2.0021  -11.2839    6.8989 C.ar      1 <0>        -0.0409
     20 C12         3.2361  -11.4500    7.4988 C.ar      1 <0>        -0.1471
     21 C13         3.9190  -10.3496    7.9841 C.ar      1 <0>        -0.0344
     22 C14         3.3724   -9.0894    7.8721 C.ar      1 <0>        -0.1560
     23 C15         2.1258   -8.9132    7.2666 C.ar      1 <0>         0.2161
     24 N4          1.3970   -7.7245    7.0650 N.pl3     1 <0>        -0.7250
     25 N5          0.1194  -10.0276    4.7836 N.pl3     1 <0>        -0.1345
     26 N6          0.1491   -9.2089    3.8629 N.2       1 <0>        -0.0147
     27 H3          1.0042    1.8801    0.0026 H         1 <0>         0.0780
     28 H4         -0.5455    1.8639   -0.8728 H         1 <0>         0.0799
     29 H5         -0.5286    1.8543    0.9071 H         1 <0>         0.0756
     30 H6         -0.0046   -0.3507   -2.1779 H         1 <0>         0.2004
     31 H7          0.0527   -2.5451    3.0933 H         1 <0>         0.4288
     32 H8          0.9799   -4.9901    3.7453 H         1 <0>         0.1471
     33 H9         -0.7999   -5.0149    3.7539 H         1 <0>         0.1490
     34 H10         1.4679  -12.1423    6.5192 H         1 <0>         0.1358
     35 H11         3.6659  -12.4367    7.5887 H         1 <0>         0.1446
     36 H12         4.8835  -10.4783    8.4527 H         1 <0>         0.1454
     37 H13         3.9103   -8.2342    8.2538 H         1 <0>         0.1385
     38 H14         1.6819   -6.8357    7.3293 H         1 <0>         0.4385
     39 H15         0.1243  -10.9774    4.5867 H         1 <0>         0.4885
@<TRIPOS>BOND
     1    1    2 1
     2    1   27 1
     3    1   28 1
     4    1   29 1
     5    2    6 1
     6    2    3 2
     7    3    4 1
     8    3   30 1
     9    4    5 1
    10    5    6 2
    11    5    7 1
    12    7    8 am
    13    7   31 1
    14    8    9 2
    15    8   10 1
    16   10   11 1
    17   10   32 1
    18   10   33 1
    19   11   12 1
    20   12   26 1
    21   12   13 2
    22   13   14 1
    23   14   15 1
    24   14   24 1
    25   14   16 1
    26   16   17 1
    27   16   18 1
    28   16   25 1
    29   18   23 ar
    30   18   19 ar
    31   19   20 ar
    32   19   34 1
    33   20   21 ar
    34   20   35 1
    35   21   22 ar
    36   21   36 1
    37   22   23 ar
    38   22   37 1
    39   23   24 1
    40   24   38 1
    41   25   26 2
    42   25   39 1
@<TRIPOS>MOLECULE
ZINC54390036
   52    55     0     0     0
SMALL
USER_CHARGES

@<TRIPOS>ATOM
      1 C1         -0.3285    1.9833    0.1084 C.3       1 <0>        -0.1843
      2 C2         -0.4386    0.4668   -0.0625 C.3       1 <0>         0.0079
      3 H1         -1.4841    0.1919   -0.2021 H         1 <0>         0.1688
      4 C3          0.3587    0.0379   -1.2672 C.2       1 <0>         0.5060
      5 O1          1.2750   -0.7466   -1.1401 O.2       1 <0>        -0.5044
      6 N1          0.0536    0.5260   -2.4859 N.am      1 <0>        -0.6370
      7 C4          0.8622    0.2159   -3.5872 C.ar      1 <0>         0.1294
      8 C5          0.2964    0.0819   -4.8481 C.ar      1 <0>        -0.1174
      9 C6          1.0926   -0.2234   -5.9353 C.ar      1 <0>        -0.0800
     10 C7          2.4573   -0.3972   -5.7706 C.ar      1 <0>         0.0385
     11 C8          3.0278   -0.2635   -4.5070 C.ar      1 <0>         0.0546
     12 C9          2.2297    0.0482   -3.4189 C.ar      1 <0>        -0.1001
     13 O2          4.3715   -0.4812   -4.6096 O.3       1 <0>        -0.3038
     14 C10         4.5577   -1.1502   -5.8709 C.3       1 <0>         0.2126
     15 O3          3.4447   -0.6988   -6.6650 O.3       1 <0>        -0.3018
     16 N2          0.0874   -0.2005    1.1358 N.4       1 <0>        -0.3689
     17 C11        -0.0281   -1.6583    0.9779 C.3       1 <0>        -0.0161
     18 C12         0.7915   -2.3340    2.0781 C.3       1 <0>        -0.0975
     19 C13         0.4162   -1.7585    3.4198 C.ar      1 <0>        -0.1287
     20 C14        -0.2688   -0.5676    3.5251 C.ar      1 <0>        -0.1110
     21 C15        -0.5922   -0.0681    4.7782 C.ar      1 <0>        -0.1134
     22 C16        -0.2352   -0.7569    5.9209 C.ar      1 <0>        -0.0808
     23 C17         0.4488   -1.9523    5.8206 C.ar      1 <0>        -0.1152
     24 C18         0.7760   -2.4555    4.5697 C.ar      1 <0>         0.1708
     25 N3          1.4698   -3.6660    4.4639 N.am      1 <0>        -0.6755
     26 C19         2.1902   -4.1232    5.5072 C.2       1 <0>         0.5139
     27 O4          2.3165   -3.4414    6.5023 O.2       1 <0>        -0.5115
     28 C20         2.8389   -5.4817    5.4373 C.3       1 <0>        -0.1732
     29 C21        -0.6869    0.2155    2.3085 C.3       1 <0>         0.0472
     30 H2          0.7170    2.2582    0.2480 H         1 <0>         0.0919
     31 H3         -0.7188    2.4784   -0.7807 H         1 <0>         0.1133
     32 H4         -0.9052    2.2935    0.9798 H         1 <0>         0.1022
     33 H5         -0.7258    1.0919   -2.6005 H         1 <0>         0.4233
     34 H6         -0.7672    0.2162   -4.9791 H         1 <0>         0.1469
     35 H7          0.6503   -0.3270   -6.9151 H         1 <0>         0.1490
     36 H8          2.6707    0.1567   -2.4390 H         1 <0>         0.1451
     37 H9          5.5008   -0.8505   -6.3279 H         1 <0>         0.1400
     38 H10         4.5210   -2.2317   -5.7399 H         1 <0>         0.0915
     39 H11        -1.0734   -1.9543    1.0661 H         1 <0>         0.1306
     40 H12         0.3572   -1.9524    0.0016 H         1 <0>         0.1569
     41 H13         0.5901   -3.4052    2.0741 H         1 <0>         0.1146
     42 H14         1.8526   -2.1649    1.8953 H         1 <0>         0.1047
     43 H15        -1.1268    0.8666    4.8610 H         1 <0>         0.1357
     44 H16        -0.4907   -0.3606    6.8925 H         1 <0>         0.1411
     45 H17         0.7279   -2.4936    6.7125 H         1 <0>         0.1623
     46 H18         1.4323   -4.1761    3.6397 H         1 <0>         0.4126
     47 H19         2.6163   -5.9415    4.4744 H         1 <0>         0.0808
     48 H20         3.9179   -5.3752    5.5484 H         1 <0>         0.1057
     49 H21         2.4515   -6.1110    6.2386 H         1 <0>         0.1071
     50 H22        -0.5211    1.2774    2.4904 H         1 <0>         0.1433
     51 H23        -1.7466    0.0454    2.1183 H         1 <0>         0.1414
     52 H24         1.0561    0.0508    1.2643 H         1 <0>         0.4311
@<TRIPOS>BOND
     1    1    2 1
     2    1   30 1
     3    1   31 1
     4    1   32 1
     5    2    3 1
     6    2    4 1
     7    2   16 1
     8    4    5 2
     9    4    6 am
    10    6    7 1
    11    6   33 1
    12    7   12 ar
    13    7    8 ar
    14    8    9 ar
    15    8   34 1
    16    9   10 ar
    17    9   35 1
    18   10   15 1
    19   10   11 ar
    20   11   12 ar
    21   11   13 1
    22   12   36 1
    23   13   14 1
    24   14   15 1
    25   14   37 1
    26   14   38 1
    27   16   29 1
    28   16   17 1
    29   16   52 1
    30   17   18 1
    31   17   39 1
    32   17   40 1
    33   18   19 1
    34   18   41 1
    35   18   42 1
    36   19   24 ar
    37   19   20 ar
    38   20   21 ar
    39   20   29 1
    40   21   22 ar
    41   21   43 1
    42   22   23 ar
    43   22   44 1
    44   23   24 ar
    45   23   45 1
    46   24   25 1
    47   25   26 am
    48   25   46 1
    49   26   27 2
    50   26   28 1
    51   28   47 1
    52   28   48 1
    53   28   49 1
    54   29   50 1
    55   29   51 1
@<TRIPOS>MOLECULE
ZINC63425409
   47    50     0     0     0
SMALL
USER_CHARGES

@<TRIPOS>ATOM
      1 C1         -0.0879    1.3371    0.1120 C.ar      1 <0>        -0.1465
      2 C2          1.0799    2.1116    0.0799 C.ar      1 <0>         0.0559
      3 C3          2.3137    1.5683    0.0119 C.ar      1 <0>        -0.2094
      4 C4          2.4758    0.1561   -0.0312 C.ar      1 <0>         0.3286
      5 N1          3.5460   -0.5981   -0.0982 N.pl3     1 <0>        -0.5829
      6 C5          3.1271   -2.0041   -0.1156 C.3       1 <0>         0.0607
      7 C6          1.6164   -1.9877   -0.0479 C.2       1 <0>         0.0637
      8 C7          1.2577   -0.6845    0.0015 C.ar      1 <0>        -0.1617
      9 C8         -0.0461   -0.0143    0.0762 C.ar      1 <0>        -0.0170
     10 C9          0.6968   -3.1815   -0.0384 C.3       1 <0>        -0.1060
     11 C10         0.4216   -3.6249   -1.4767 C.3       1 <0>         0.1018
     12 N2         -0.4723   -4.7854   -1.4674 N.pl3     1 <0>        -0.6770
     13 C11        -0.8544   -5.3512   -2.6298 C.2       1 <0>         0.3418
     14 C12        -1.6119   -6.5078   -2.6195 C.2       1 <0>        -0.4165
     15 C13        -2.1456   -7.0666   -1.3644 C.2       1 <0>         0.5887
     16 N3         -2.8770   -8.1982   -1.4306 N.am      1 <0>        -0.6581
     17 C14        -3.1192   -8.8085   -2.5991 C.2       1 <0>         0.7104
     18 O1         -3.7850   -9.8252   -2.5902 O.2       1 <0>        -0.5092
     19 N4         -2.6663   -8.3567   -3.7770 N.am      1 <0>        -0.5148
     20 C15        -1.9261   -7.2323   -3.8636 C.2       1 <0>         0.5862
     21 O2         -1.5250   -6.8297   -4.9394 O.2       1 <0>        -0.4910
     22 C16        -2.9732   -9.0661   -4.9461 C.ar      1 <0>         0.1514
     23 C17        -1.9643   -9.6976   -5.6615 C.ar      1 <0>        -0.1022
     24 C18        -2.2683  -10.3962   -6.8134 C.ar      1 <0>        -0.0784
     25 C19        -3.5762  -10.4679   -7.2559 C.ar      1 <0>        -0.1368
     26 C20        -4.5853   -9.8395   -6.5455 C.ar      1 <0>         0.1129
     27 C21        -4.2866   -9.1432   -5.3877 C.ar      1 <0>        -0.1283
     28 F1         -5.8625   -9.9111   -6.9800 F         1 <0>        -0.1303
     29 O3         -1.9319   -6.5223   -0.2975 O.2       1 <0>        -0.5283
     30 H1         -1.0458    1.8322    0.1713 H         1 <0>         0.1592
     31 H2          0.9888    3.1874    0.1105 H         1 <0>         0.1623
     32 H3          3.1825    2.2096   -0.0103 H         1 <0>         0.1618
     33 H4          3.4567   -2.4829   -1.0377 H         1 <0>         0.1751
     34 H5          3.5362   -2.5287    0.7478 H         1 <0>         0.1760
     35 H6         -0.9584   -0.5916    0.1023 H         1 <0>         0.1614
     36 H7          1.1670   -3.9979    0.5098 H         1 <0>         0.1236
     37 H8         -0.2425   -2.9128    0.4450 H         1 <0>         0.1207
     38 H9         -0.0485   -2.8085   -2.0249 H         1 <0>         0.0921
     39 H10         1.3609   -3.8936   -1.9600 H         1 <0>         0.0924
     40 H11        -0.5689   -4.9010   -3.5690 H         1 <0>         0.1805
     41 H12        -0.9421   -9.6422   -5.3172 H         1 <0>         0.1335
     42 H13        -1.4832  -10.8869   -7.3695 H         1 <0>         0.1456
     43 H14        -3.8112  -11.0146   -8.1572 H         1 <0>         0.1456
     44 H15        -5.0738   -8.6568   -4.8309 H         1 <0>         0.1392
     45 H16         4.4617   -0.2798   -0.1310 H         1 <0>         0.4571
     46 H17        -3.2356   -8.5791   -0.6137 H         1 <0>         0.4379
     47 H18        -0.7893   -5.1468   -0.6248 H         1 <0>         0.4281
@<TRIPOS>BOND
     1    1    9 ar
     2    1    2 ar
     3    1   30 1
     4    2    3 ar
     5    2   31 1
     6    3    4 ar
     7    3   32 1
     8    4    8 ar
     9    4    5 2
    10    5    6 1
    11    5   45 1
    12    6    7 1
    13    6   33 1
    14    6   34 1
    15    7    8 2
    16    7   10 1
    17    8    9 ar
    18    9   35 1
    19   10   11 1
    20   10   36 1
    21   10   37 1
    22   11   38 1
    23   11   39 1
    24   11   12 1
    25   12   13 1
    26   12   47 1
    27   13   14 2
    28   13   40 1
    29   14   20 1
    30   14   15 1
    31   15   16 am
    32   15   29 2
    33   16   17 am
    34   16   46 1
    35   17   18 2
    36   17   19 am
    37   19   20 am
    38   19   22 1
    39   20   21 2
    40   22   27 ar
    41   22   23 ar
    42   23   24 ar
    43   23   41 1
    44   24   25 ar
    45   24   42 1
    46   25   26 ar
    47   25   43 1
    48   26   27 ar
    49   26   28 1
    50   27   44 1
@<TRIPOS>MOLECULE
ZINC65086757
   44    46     0     0     0
SMALL
USER_CHARGES

@<TRIPOS>ATOM
      1 C1          0.0570    1.3854   -0.7856 C.ar      1 <0>        -0.0477
      2 C2          1.2136    2.1059   -0.5570 C.ar      1 <0>        -0.1733
      3 C3          2.3814    1.4464   -0.1984 C.ar      1 <0>         0.2219
      4 C4          2.3835    0.0622   -0.0703 C.ar      1 <0>        -0.0892
      5 C5          1.2238   -0.6529   -0.3003 C.ar      1 <0>        -0.0460
      6 C6          0.0614    0.0079   -0.6576 C.ar      1 <0>        -0.0714
      7 Cl1        -1.3940   -0.8935   -0.9458 Cl        1 <0>        -0.0508
      8 Cl2         3.8415   -0.7670    0.3773 Cl        1 <0>        -0.0480
      9 N1          3.5533    2.1730    0.0331 N.pl3     1 <0>        -0.5320
     10 N2          3.5498    3.5680   -0.0968 N.am      1 <0>        -0.4773
     11 C7          4.6794    4.2684    0.1264 C.2       1 <0>         0.5046
     12 O1          5.6995    3.6908    0.4398 O.2       1 <0>        -0.5110
     13 C8          4.6756    5.7565   -0.0121 C.2       1 <0>         0.5290
     14 O2          3.6328    6.3449   -0.2092 O.2       1 <0>        -0.4981
     15 N3          5.8305    6.4450    0.0818 N.am      1 <0>        -0.5880
     16 C9          7.1201    5.7410    0.1184 C.3       1 <0>         0.0534
     17 C10         8.0088    6.2878   -1.0056 C.3       1 <0>         0.0840
     18 N4          8.0011    7.7559   -0.9384 N.pl3     1 <0>        -0.5707
     19 C11         6.7115    8.4598   -0.9750 C.3       1 <0>         0.0861
     20 C12         5.8230    7.9133    0.1434 C.3       1 <0>         0.0927
     21 C13         9.1936    8.4668   -0.8414 C.ar      1 <0>         0.3149
     22 C14         9.1898    9.8428   -0.6136 C.ar      1 <0>        -0.2139
     23 C15        10.3931   10.5102   -0.5235 C.ar      1 <0>         0.1688
     24 N5         11.5368    9.8635   -0.6499 N.ar      1 <0>        -0.4967
     25 C16        11.5823    8.5623   -0.8665 C.ar      1 <0>         0.1688
     26 C17        10.4237    7.8208   -0.9637 C.ar      1 <0>        -0.2126
     27 H1         -0.8527    1.8987   -1.0603 H         1 <0>         0.1472
     28 H2          1.2092    3.1812   -0.6575 H         1 <0>         0.1366
     29 H3          1.2244   -1.7284   -0.2010 H         1 <0>         0.1525
     30 H4          4.3687    1.7113    0.2837 H         1 <0>         0.4414
     31 H5          2.7343    4.0297   -0.3473 H         1 <0>         0.4377
     32 H6          7.6022    5.9105    1.0812 H         1 <0>         0.0847
     33 H7          6.9583    4.6733   -0.0297 H         1 <0>         0.1635
     34 H8          9.0273    5.9211   -0.8778 H         1 <0>         0.1103
     35 H9          7.6191    5.9637   -1.9706 H         1 <0>         0.0958
     36 H10         6.8732    9.5275   -0.8269 H         1 <0>         0.1114
     37 H11         6.2294    8.2904   -1.9377 H         1 <0>         0.0994
     38 H12         4.8050    8.2798    0.0118 H         1 <0>         0.1220
     39 H13         6.2107    8.2409    1.1080 H         1 <0>         0.0880
     40 H14         8.2576   10.3781   -0.5095 H         1 <0>         0.1773
     41 H15        10.3998   11.5758   -0.3476 H         1 <0>         0.2045
     42 H16        12.5392    8.0712   -0.9643 H         1 <0>         0.2047
     43 H17        10.4681    6.7556   -1.1361 H         1 <0>         0.1776
     44 H18        12.3680   10.3590   -0.5819 H         1 <0>         0.4477
@<TRIPOS>BOND
     1    1    6 ar
     2    1    2 ar
     3    1   27 1
     4    2    3 ar
     5    2   28 1
     6    3    4 ar
     7    3    9 1
     8    4    5 ar
     9    4    8 1
    10    5    6 ar
    11    5   29 1
    12    6    7 1
    13    9   10 1
    14    9   30 1
    15   10   11 am
    16   10   31 1
    17   11   12 2
    18   11   13 1
    19   13   14 2
    20   13   15 am
    21   15   20 1
    22   15   16 1
    23   16   17 1
    24   16   32 1
    25   16   33 1
    26   17   18 1
    27   17   34 1
    28   17   35 1
    29   18   19 1
    30   18   21 1
    31   19   20 1
    32   19   36 1
    33   19   37 1
    34   20   38 1
    35   20   39 1
    36   21   26 ar
    37   21   22 ar
    38   22   23 ar
    39   22   40 1
    40   23   24 ar
    41   23   41 1
    42   24   25 ar
    43   24   44 1
    44   25   26 ar
    45   25   42 1
    46   26   43 1
@<TRIPOS>MOLECULE
ZINC04538047
   45    48     0     0     0
SMALL
USER_CHARGES
2-[[4-amino-5-(2-furyl)-1,2,4-triazol-3-yl]sulfanyl]-1-(3,4-dihydro-1H-isoquinolin-2-yl)propan-1-one
@<TRIPOS>ATOM
      1 C1         -0.0127    1.0858    0.0080 C.3       1 <0>        -0.1463
      2 C2         -0.7288    1.5792    1.2668 C.3       1 <0>        -0.1231
      3 H1         -0.7436    2.6691    1.2728 H         1 <0>         0.1251
      4 C3          0.0000    1.0800    2.4877 C.2       1 <0>         0.5457
      5 O1         -0.3602    0.0587    3.0337 O.2       1 <0>        -0.5191
      6 N1          1.0522    1.7685    2.9729 N.am      1 <0>        -0.6047
      7 C4          1.7817    1.3111    4.1672 C.3       1 <0>         0.1125
      8 C5          3.2107    0.9650    3.7341 C.3       1 <0>        -0.0980
      9 C6          3.7934    2.0638    2.8847 C.ar      1 <0>        -0.0685
     10 C7          5.1766    2.1172    2.7609 C.ar      1 <0>        -0.1191
     11 C8          5.7748    3.0902    1.9880 C.ar      1 <0>        -0.1145
     12 C9          4.9938    4.0221    1.3298 C.ar      1 <0>        -0.1189
     13 C10         3.6207    3.9741    1.4544 C.ar      1 <0>        -0.1109
     14 C11         3.0175    2.9969    2.2347 C.ar      1 <0>        -0.0996
     15 C12         1.5128    3.0069    2.3359 C.3       1 <0>         0.1430
     16 S1         -2.4269    0.9527    1.2797 S.3       1 <0>         0.1145
     17 C13        -3.0720    1.7882   -0.1312 C.2       1 <0>         0.1824
     18 N2         -2.4173    2.6177   -0.9123 N.2       1 <0>        -0.2813
     19 N3         -3.1877    3.0468   -1.8470 N.2       1 <0>        -0.2350
     20 C14        -4.3847    2.5169   -1.7206 C.2       1 <0>         0.2274
     21 N4         -4.3446    1.6894   -0.6199 N.pl3     1 <0>        -0.3015
     22 N5         -5.3647    0.9310   -0.1195 N.3       1 <0>        -0.5785
     23 C15        -5.5447    2.7574   -2.5928 C.2       1 <0>         0.0264
     24 C16        -5.5123    3.3370   -3.8257 C.2       1 <0>        -0.1248
     25 C17        -6.8394    3.3625   -4.2964 C.2       1 <0>        -0.2098
     26 C18        -7.6102    2.8127   -3.3371 C.2       1 <0>        -0.0096
     27 O2         -6.8255    2.4482   -2.3095 O.3       1 <0>        -0.1838
     28 H2          0.0021   -0.0041    0.0020 H         1 <0>         0.0736
     29 H3          1.0099    1.4631    0.0003 H         1 <0>         0.0735
     30 H4         -0.5399    1.4469   -0.8751 H         1 <0>         0.0910
     31 H5          1.8024    2.1053    4.9135 H         1 <0>         0.0797
     32 H6          1.2950    0.4279    4.5809 H         1 <0>         0.1024
     33 H7          3.1992    0.0373    3.1619 H         1 <0>         0.0830
     34 H8          3.8295    0.8313    4.6214 H         1 <0>         0.0894
     35 H9          5.7884    1.3901    3.2742 H         1 <0>         0.1229
     36 H10         6.8504    3.1244    1.8975 H         1 <0>         0.1238
     37 H11         5.4567    4.7842    0.7204 H         1 <0>         0.1252
     38 H12         3.0103    4.7022    0.9409 H         1 <0>         0.1257
     39 H13         1.0826    3.0829    1.3372 H         1 <0>         0.1004
     40 H14         1.1951    3.8618    2.9329 H         1 <0>         0.0872
     41 H15        -5.9009    1.4494    0.5600 H         1 <0>         0.3699
     42 H16        -5.9564    0.5866   -0.8607 H         1 <0>         0.3813
     43 H17        -4.6380    3.7040   -4.3425 H         1 <0>         0.1644
     44 H18        -7.1763    3.7526   -5.2455 H         1 <0>         0.1619
     45 H19        -8.6816    2.6856   -3.3867 H         1 <0>         0.2151
@<TRIPOS>BOND
     1    1    2 1
     2    1   28 1
     3    1   29 1
     4    1   30 1
     5    2    3 1
     6    2    4 1
     7    2   16 1
     8    4    5 2
     9    4    6 am
    10    6   15 1
    11    6    7 1
    12    7    8 1
    13    7   31 1
    14    7   32 1
    15    8    9 1
    16    8   33 1
    17    8   34 1
    18    9   14 ar
    19    9   10 ar
    20   10   11 ar
    21   10   35 1
    22   11   12 ar
    23   11   36 1
    24   12   13 ar
    25   12   37 1
    26   13   14 ar
    27   13   38 1
    28   14   15 1
    29   15   39 1
    30   15   40 1
    31   16   17 1
    32   17   21 1
    33   17   18 2
    34   18   19 1
    35   19   20 2
    36   20   21 1
    37   20   23 1
    38   21   22 1
    39   22   41 1
    40   22   42 1
    41   23   27 1
    42   23   24 2
    43   24   25 1
    44   24   43 1
    45   25   26 2
    46   25   44 1
    47   26   27 1
    48   26   45 1
@<TRIPOS>MOLECULE
ZINC07502016
   40    43     0     0     0
SMALL
USER_CHARGES
N-(4-imidazo[2,1-b]thiazol-6-ylphenyl)-3,5-dimethyl-1H-pyrazole-4-sulfonamide
@<TRIPOS>ATOM
      1 C1          3.7741    8.9961    3.1420 C.3       1 <0>        -0.1291
      2 C2          2.8591   10.1353    3.5109 C.2       1 <0>         0.2269
      3 C3          2.5790   11.2142    2.7437 C.2       1 <0>        -0.8223
      4 C4          1.6949   12.0310    3.4560 C.2       1 <0>         0.1680
      5 N1          1.4455   11.4583    4.6056 N.2       1 <0>        -0.2879
      6 N2          2.1719   10.2620    4.6653 N.pl3     1 <0>        -0.4625
      7 H1          2.1798    9.6160    5.4286 H         1 <0>         0.4500
      8 C5          1.1247   13.3422    2.9798 C.3       1 <0>        -0.1105
      9 S1          3.2206   11.5367    1.1346 S.o2      1 <0>         2.7231
     10 O1          4.3369   10.6745    0.9622 O.2       1 <0>        -0.9535
     11 O2          3.3228   12.9488    1.0137 O.2       1 <0>        -0.9497
     12 N3          2.0738   11.0500    0.0436 N.pl3     1 <0>        -1.0579
     13 C6          1.6998    9.7059   -0.0238 C.ar      1 <0>         0.1521
     14 C7          0.3540    9.3616   -0.0702 C.ar      1 <0>        -0.1262
     15 C8         -0.0174    8.0353   -0.1363 C.ar      1 <0>        -0.0705
     16 C9          0.9578    7.0396   -0.1566 C.ar      1 <0>        -0.0159
     17 C10         2.3068    7.3870   -0.1041 C.ar      1 <0>        -0.0836
     18 C11         2.6739    8.7147   -0.0438 C.ar      1 <0>        -0.1540
     19 C12         0.5606    5.6119   -0.2277 C.2       1 <0>         0.0805
     20 C13         1.4040    4.5517   -0.2547 C.2       1 <0>        -0.0266
     21 N4          0.6284    3.3988   -0.3230 N.pl3     1 <0>        -0.4346
     22 C14         0.8206    2.0354   -0.3782 C.2       1 <0>         0.0269
     23 C15        -0.2167    1.2019   -0.4381 C.2       1 <0>        -0.1732
     24 S2         -1.5996    2.3321   -0.4285 S.3       1 <0>         0.1304
     25 C16        -0.6681    3.8434   -0.3333 C.2       1 <0>         0.1790
     26 N5         -0.7033    5.1428   -0.2772 N.2       1 <0>        -0.4333
     27 H2          4.7883    9.2239    3.4699 H         1 <0>         0.1033
     28 H3          3.4315    8.0828    3.6284 H         1 <0>         0.0837
     29 H4          3.7643    8.8577    2.0609 H         1 <0>         0.1118
     30 H5          0.1910   13.1604    2.4477 H         1 <0>         0.0874
     31 H6          0.9347   13.9884    3.8368 H         1 <0>         0.0862
     32 H7          1.8361   13.8261    2.3106 H         1 <0>         0.1072
     33 H8          1.6617   11.6984   -0.5486 H         1 <0>         0.4281
     34 H9         -0.4013   10.1334   -0.0549 H         1 <0>         0.1330
     35 H10        -1.0633    7.7682   -0.1721 H         1 <0>         0.1376
     36 H11         3.0639    6.6169   -0.1151 H         1 <0>         0.1323
     37 H12         3.7190    8.9845   -0.0073 H         1 <0>         0.1622
     38 H13         2.4828    4.5941   -0.2278 H         1 <0>         0.1865
     39 H14         1.8247    1.6376   -0.3726 H         1 <0>         0.1763
     40 H15        -0.2205    0.1229   -0.4850 H         1 <0>         0.2189
@<TRIPOS>BOND
     1    1    2 1
     2    1   27 1
     3    1   28 1
     4    1   29 1
     5    2    6 1
     6    2    3 2
     7    3    4 1
     8    3    9 1
     9    4    5 2
    10    4    8 1
    11    5    6 1
    12    6    7 1
    13    8   30 1
    14    8   31 1
    15    8   32 1
    16    9   10 2
    17    9   11 2
    18    9   12 1
    19   12   13 1
    20   12   33 1
    21   13   18 ar
    22   13   14 ar
    23   14   15 ar
    24   14   34 1
    25   15   16 ar
    26   15   35 1
    27   16   17 ar
    28   16   19 1
    29   17   18 ar
    30   17   36 1
    31   18   37 1
    32   19   26 1
    33   19   20 2
    34   20   21 1
    35   20   38 1
    36   21   25 1
    37   21   22 1
    38   22   23 2
    39   22   39 1
    40   23   24 1
    41   23   40 1
    42   24   25 1
    43   25   26 2
@<TRIPOS>MOLECULE
ZINC38591689
   50    53     0     0     0
SMALL
USER_CHARGES

@<TRIPOS>ATOM
      1 C1         -0.5227    1.4503    0.0381 C.3       1 <0>        -0.1231
      2 C2         -0.2372   -0.0292    0.0154 C.ar      1 <0>        -0.0125
      3 C3         -0.2333   -0.7079   -1.1953 C.ar      1 <0>        -0.1503
      4 C4          0.0272   -2.0495   -1.2314 C.ar      1 <0>         0.0116
      5 C5          0.2887   -2.7353   -0.0455 C.ar      1 <0>        -0.2248
      6 C6          0.2821   -2.0601    1.1860 C.ar      1 <0>         0.1519
      7 C7          0.0220   -0.6897    1.1951 C.ar      1 <0>        -0.1481
      8 O1          0.5180   -2.6921    2.3582 O.3       1 <0>        -0.1810
      9 C8          1.0007   -3.9503    2.3514 C.2       1 <0>         0.0949
     10 C9          1.0506   -4.7141    1.2203 C.2       1 <0>        -0.2541
     11 C10         0.5813   -4.1907   -0.0672 C.2       1 <0>         0.4588
     12 O2          0.4440   -4.8842   -1.0594 O.2       1 <0>        -0.4335
     13 C11         1.6308   -6.0394    1.5910 C.3       1 <0>         0.2313
     14 H1          2.5516   -6.2155    1.0349 H         1 <0>         0.1165
     15 N1          1.9152   -5.9638    3.0334 N.am      1 <0>        -0.5901
     16 C12         1.5451   -4.7420    3.4683 C.2       1 <0>         0.5740
     17 O3          1.6459   -4.3513    4.6143 O.2       1 <0>        -0.4700
     18 C13         2.4981   -7.0292    3.8528 C.3       1 <0>         0.1395
     19 C14         4.0224   -6.8976    3.8512 C.3       1 <0>         0.0541
     20 O4          4.3960   -5.6780    4.4953 O.3       1 <0>        -0.5614
     21 C15         0.6377   -7.1380    1.3122 C.ar      1 <0>        -0.0675
     22 C16        -0.4080   -7.3612    2.1885 C.ar      1 <0>        -0.1207
     23 C17        -1.3217   -8.3678    1.9372 C.ar      1 <0>        -0.1050
     24 C18        -1.1908   -9.1554    0.8047 C.ar      1 <0>         0.0849
     25 C19        -0.1385   -8.9304   -0.0776 C.ar      1 <0>         0.1071
     26 C20         0.7710   -7.9167    0.1777 C.ar      1 <0>        -0.1615
     27 O5         -0.0058   -9.7007   -1.1905 O.3       1 <0>        -0.3053
     28 C21         1.0981   -9.4128   -2.0509 C.3       1 <0>         0.0231
     29 O6         -2.0885  -10.1463    0.5563 O.3       1 <0>        -0.4858
     30 C22         0.0311   -2.7843   -2.5471 C.3       1 <0>        -0.1346
     31 H2          0.4113    2.0022   -0.0675 H         1 <0>         0.0827
     32 H3         -1.1899    1.7043   -0.7856 H         1 <0>         0.0768
     33 H4         -0.9960    1.7145    0.9838 H         1 <0>         0.0759
     34 H5         -0.4371   -0.1743   -2.1119 H         1 <0>         0.1384
     35 H6          0.0201   -0.1471    2.1289 H         1 <0>         0.1467
     36 H7          2.1273   -6.9459    4.8744 H         1 <0>         0.1015
     37 H8          2.2167   -7.9988    3.4420 H         1 <0>         0.1065
     38 H9          4.4604   -7.7401    4.3865 H         1 <0>         0.0647
     39 H10         4.3856   -6.8918    2.8235 H         1 <0>         0.0497
     40 H11         5.3506   -5.5283    4.5309 H         1 <0>         0.3805
     41 H12        -0.5112   -6.7481    3.0716 H         1 <0>         0.1243
     42 H13        -2.1373   -8.5405    2.6238 H         1 <0>         0.1395
     43 H14         1.5865   -7.7376   -0.5074 H         1 <0>         0.1369
     44 H15         1.0194   -8.3874   -2.4122 H         1 <0>         0.0599
     45 H16         2.0302   -9.5329   -1.4987 H         1 <0>         0.0557
     46 H17         1.0869  -10.0984   -2.8983 H         1 <0>         0.1027
     47 H18        -2.8500   -9.8645    0.0312 H         1 <0>         0.3896
     48 H19         1.0542   -2.8670   -2.9140 H         1 <0>         0.0788
     49 H20        -0.3866   -3.7814   -2.4077 H         1 <0>         0.1005
     50 H21        -0.5714   -2.2360   -3.2713 H         1 <0>         0.0703
@<TRIPOS>BOND
     1    1    2 1
     2    1   31 1
     3    1   32 1
     4    1   33 1
     5    2    7 ar
     6    2    3 ar
     7    3    4 ar
     8    3   34 1
     9    4    5 ar
    10    4   30 1
    11    5   11 1
    12    5    6 ar
    13    6    7 ar
    14    6    8 1
    15    7   35 1
    16    8    9 1
    17    9   16 1
    18    9   10 2
    19   10   11 1
    20   10   13 1
    21   11   12 2
    22   13   14 1
    23   13   15 1
    24   13   21 1
    25   15   16 am
    26   15   18 1
    27   16   17 2
    28   18   19 1
    29   18   36 1
    30   18   37 1
    31   19   20 1
    32   19   38 1
    33   19   39 1
    34   20   40 1
    35   21   26 ar
    36   21   22 ar
    37   22   23 ar
    38   22   41 1
    39   23   24 ar
    40   23   42 1
    41   24   25 ar
    42   24   29 1
    43   25   26 ar
    44   25   27 1
    45   26   43 1
    46   27   28 1
    47   28   44 1
    48   28   45 1
    49   28   46 1
    50   29   47 1
    51   30   48 1
    52   30   49 1
    53   30   50 1
@<TRIPOS>MOLECULE
ZINC50956205
   44    47     0     0     0
SMALL
USER_CHARGES

@<TRIPOS>ATOM
      1 C1         -0.2941    1.8297   -0.7781 C.3       1 <0>         0.0263
      2 O1         -0.2503    0.4448   -0.4286 O.3       1 <0>        -0.3121
      3 C2         -1.4354   -0.2198   -0.3907 C.ar      1 <0>         0.1432
      4 C3         -2.6143    0.4490   -0.6902 C.ar      1 <0>        -0.2105
      5 C4         -3.8185   -0.2224   -0.6527 C.ar      1 <0>        -0.0634
      6 C5         -3.8508   -1.5746   -0.3139 C.ar      1 <0>        -0.0764
      7 C6         -2.6647   -2.2435   -0.0141 C.ar      1 <0>        -0.0469
      8 C7         -1.4633   -1.5672   -0.0582 C.ar      1 <0>        -0.1504
      9 C8         -5.1433   -2.2994   -0.2722 C.2       1 <0>        -0.0389
     10 C9         -6.1297   -1.9020    0.5651 C.2       1 <0>        -0.1490
     11 S1         -7.4418   -3.0651    0.2444 S.3       1 <0>         0.1179
     12 C10        -6.6461   -4.0515   -0.9956 C.ar      1 <0>         0.1243
     13 C11        -5.3781   -3.4507   -1.1373 C.ar      1 <0>        -0.1879
     14 C12        -4.5197   -4.0557   -2.0936 C.ar      1 <0>         0.4857
     15 N1         -4.9490   -5.1072   -2.7732 N.ar      1 <0>        -0.5435
     16 C13        -6.1542   -5.6163   -2.5924 C.ar      1 <0>         0.3346
     17 N2         -6.9919   -5.1037   -1.7119 N.ar      1 <0>        -0.4868
     18 N3         -3.2500   -3.5517   -2.3124 N.pl3     1 <0>        -0.6476
     19 C14        -3.0507   -2.2968   -3.0546 C.3       1 <0>         0.1045
     20 C15        -2.0062   -2.5431   -4.1492 C.3       1 <0>         0.0477
     21 O2         -0.8397   -3.1267   -3.5639 O.3       1 <0>        -0.3449
     22 C16        -1.0628   -4.4053   -2.9646 C.3       1 <0>         0.0592
     23 H1         -1.4693   -5.0903   -3.7087 H         1 <0>         0.0911
     24 C17        -2.0593   -4.2514   -1.8044 C.3       1 <0>         0.1079
     25 C18         0.2407   -4.9491   -2.4388 C.2       1 <0>         0.5244
     26 O3          1.2435   -4.2683   -2.4827 O.2       1 <0>        -0.5120
     27 N4          0.2920   -6.1919   -1.9199 N.am      1 <0>        -0.8521
     28 H2          0.7164    2.2383   -0.7711 H         1 <0>         0.1019
     29 H3         -0.7235    1.9397   -1.7739 H         1 <0>         0.0568
     30 H4         -0.9085    2.3674   -0.0560 H         1 <0>         0.0560
     31 H5         -2.5886    1.4963   -0.9525 H         1 <0>         0.1315
     32 H6         -4.7355    0.2987   -0.8851 H         1 <0>         0.1263
     33 H7         -2.6862   -3.2908    0.2486 H         1 <0>         0.1258
     34 H8         -0.5438   -2.0856    0.1703 H         1 <0>         0.1325
     35 H9         -6.1231   -1.0768    1.2619 H         1 <0>         0.1993
     36 H10        -6.4573   -6.4756   -3.1722 H         1 <0>         0.2102
     37 H11        -3.9916   -1.9853   -3.5083 H         1 <0>         0.0785
     38 H12        -2.6954   -1.5213   -2.3759 H         1 <0>         0.0829
     39 H13        -2.4161   -3.2213   -4.8976 H         1 <0>         0.0584
     40 H14        -1.7423   -1.5963   -4.6204 H         1 <0>         0.1087
     41 H15        -1.6059   -3.6694   -1.0021 H         1 <0>         0.0928
     42 H16        -2.3433   -5.2349   -1.4300 H         1 <0>         0.0842
     43 H17        -0.5100   -6.7363   -1.8848 H         1 <0>         0.4016
     44 H18         1.1310   -6.5419   -1.5815 H         1 <0>         0.4083
@<TRIPOS>BOND
     1    1    2 1
     2    1   28 1
     3    1   29 1
     4    1   30 1
     5    2    3 1
     6    3    8 ar
     7    3    4 ar
     8    4    5 ar
     9    4   31 1
    10    5    6 ar
    11    5   32 1
    12    6    7 ar
    13    6    9 1
    14    7    8 ar
    15    7   33 1
    16    8   34 1
    17    9   13 1
    18    9   10 2
    19   10   11 1
    20   10   35 1
    21   11   12 1
    22   12   17 ar
    23   12   13 ar
    24   13   14 ar
    25   14   15 ar
    26   14   18 1
    27   15   16 ar
    28   16   17 ar
    29   16   36 1
    30   18   24 1
    31   18   19 1
    32   19   20 1
    33   19   37 1
    34   19   38 1
    35   20   21 1
    36   20   39 1
    37   20   40 1
    38   21   22 1
    39   22   23 1
    40   22   24 1
    41   22   25 1
    42   24   41 1
    43   24   42 1
    44   25   26 2
    45   25   27 am
    46   27   43 1
    47   27   44 1
@<TRIPOS>MOLECULE
ZINC65013438
   38    41     0     0     0
SMALL
USER_CHARGES

@<TRIPOS>ATOM
      1 C1         -0.0167    1.3784    0.0096 C.ar      1 <0>        -0.0538
      2 C2          1.1695    2.0865    0.0021 C.ar      1 <0>        -0.1455
      3 C3          2.3802    1.4093   -0.0131 C.ar      1 <0>         0.1407
      4 C4          2.3963    0.0221   -0.0206 C.ar      1 <0>        -0.2086
      5 C5          1.2074   -0.6814   -0.0130 C.ar      1 <0>        -0.0476
      6 C6          0.0021   -0.0041    0.0020 C.ar      1 <0>        -0.1677
      7 C7         -1.2934   -0.7740    0.0107 C.3       1 <0>         0.4301
      8 N1         -1.0866   -2.0656    0.6769 N.pl3     1 <0>        -0.7451
      9 C8         -0.9925   -2.0898    2.0643 C.ar      1 <0>         0.2408
     10 C9         -0.2406   -3.0414    2.7312 C.ar      1 <0>        -0.1701
     11 C10        -0.1775   -3.0191    4.1114 C.ar      1 <0>        -0.0423
     12 C11        -0.8607   -2.0512    4.8327 C.ar      1 <0>        -0.0862
     13 C12        -1.6160   -1.0958    4.1825 C.ar      1 <0>        -0.0110
     14 C13        -1.6891   -1.1087    2.7919 C.ar      1 <0>        -0.1874
     15 C14        -2.4874   -0.1178    2.0476 C.2       1 <0>         0.5788
     16 O1         -3.2934    0.5836    2.6282 O.2       1 <0>        -0.5267
     17 N2         -2.3135    0.0024    0.7151 N.am      1 <0>        -0.7338
     18 Cl1        -0.7659   -2.0415    6.5661 Cl        1 <0>        -0.0645
     19 O2          3.5484    2.1036   -0.0209 O.3       1 <0>        -0.3063
     20 C15         4.7565    1.3405   -0.0365 C.3       1 <0>         0.1488
     21 C16         5.9399    2.2736   -0.0433 C.2       1 <0>         0.2481
     22 N3          6.5368    2.7647   -1.1351 N.2       1 <0>        -0.5382
     23 C17         7.5283    3.5398   -0.7929 C.2       1 <0>         0.2819
     24 O3          7.5962    3.5681    0.5440 O.3       1 <0>        -0.0959
     25 N4          6.5444    2.7373    1.0126 N.2       1 <0>        -0.3117
     26 H1         -0.9594    1.9052    0.0259 H         1 <0>         0.1318
     27 H2          1.1543    3.1664    0.0076 H         1 <0>         0.1348
     28 H3          3.3375   -0.5074   -0.0328 H         1 <0>         0.1314
     29 H4          1.2194   -1.7613   -0.0189 H         1 <0>         0.1294
     30 H5         -1.6168   -0.9477   -1.0156 H         1 <0>         0.1199
     31 H6         -1.0175   -2.8841    0.1610 H         1 <0>         0.4174
     32 H7          0.2938   -3.7979    2.1757 H         1 <0>         0.1402
     33 H8          0.4085   -3.7615    4.6328 H         1 <0>         0.1403
     34 H9         -2.1465   -0.3441    4.7482 H         1 <0>         0.1460
     35 H10        -2.8750    0.6152    0.2151 H         1 <0>         0.4121
     36 H11         4.7979    0.7076    0.8500 H         1 <0>         0.0978
     37 H12         4.7806    0.7165   -0.9299 H         1 <0>         0.1047
     38 H13         8.1820    4.0680   -1.4712 H         1 <0>         0.2674
@<TRIPOS>BOND
     1    1    6 ar
     2    1    2 ar
     3    1   26 1
     4    2    3 ar
     5    2   27 1
     6    3    4 ar
     7    3   19 1
     8    4    5 ar
     9    4   28 1
    10    5    6 ar
    11    5   29 1
    12    6    7 1
    13    7   17 1
    14    7    8 1
    15    7   30 1
    16    8    9 1
    17    8   31 1
    18    9   14 ar
    19    9   10 ar
    20   10   11 ar
    21   10   32 1
    22   11   12 ar
    23   11   33 1
    24   12   13 ar
    25   12   18 1
    26   13   14 ar
    27   13   34 1
    28   14   15 1
    29   15   16 2
    30   15   17 am
    31   17   35 1
    32   19   20 1
    33   20   21 1
    34   20   36 1
    35   20   37 1
    36   21   25 2
    37   21   22 1
    38   22   23 2
    39   23   24 1
    40   23   38 1
    41   24   25 1
@<TRIPOS>MOLECULE
ZINC67547957
   45    48     0     0     0
SMALL
USER_CHARGES

@<TRIPOS>ATOM
      1 C1         -0.0187    1.5258    0.0104 C.3       1 <0>        -0.1605
      2 C2          0.0021   -0.0041    0.0020 C.3       1 <0>         0.1867
      3 H1          0.5123   -0.3556   -0.8948 H         1 <0>         0.1024
      4 C3          0.7309   -0.5033    1.2229 C.ar      1 <0>        -0.0831
      5 C4          0.0786   -0.5577    2.4410 C.ar      1 <0>        -0.1027
      6 C5          0.7400   -1.0159    3.5660 C.ar      1 <0>        -0.0991
      7 C6          2.0601   -1.4208    3.4725 C.ar      1 <0>         0.0795
      8 C7          2.7180   -1.3648    2.2449 C.ar      1 <0>         0.0988
      9 C8          2.0484   -0.9109    1.1206 C.ar      1 <0>        -0.1085
     10 N1          4.0562   -1.7757    2.1647 N.am      1 <0>        -0.6603
     11 C9          4.5800   -2.5010    3.1768 C.2       1 <0>         0.4907
     12 O1          5.7440   -2.8407    3.1437 O.2       1 <0>        -0.5060
     13 C10         3.7122   -2.8862    4.3477 C.3       1 <0>         0.0501
     14 O2          2.7256   -1.8748    4.5680 O.3       1 <0>        -0.3002
     15 N2         -1.3723   -0.5112    0.0124 N.am      1 <0>        -0.7130
     16 C11        -2.0508   -0.6427   -1.1446 C.2       1 <0>         0.6093
     17 O3         -1.5223   -0.3406   -2.1970 O.2       1 <0>        -0.5234
     18 C12        -3.4362   -1.1538   -1.1342 C.2       1 <0>        -0.0025
     19 C13        -4.2682   -1.3510   -2.2621 C.2       1 <0>        -0.1640
     20 C14        -5.4362   -1.8285   -1.7726 C.2       1 <0>        -0.0108
     21 N3         -5.3012   -1.9094   -0.4231 N.pl3     1 <0>        -0.2349
     22 N4         -4.1287   -1.5178   -0.0728 N.2       1 <0>        -0.2589
     23 C15        -6.2938   -2.3593    0.4575 C.ar      1 <0>         0.1655
     24 C16        -7.5257   -2.7707   -0.0345 C.ar      1 <0>        -0.1379
     25 C17        -8.5028   -3.2144    0.8349 C.ar      1 <0>        -0.0629
     26 C18        -8.2566   -3.2498    2.1950 C.ar      1 <0>        -0.1526
     27 C19        -7.0297   -2.8401    2.6898 C.ar      1 <0>         0.1257
     28 C20        -6.0455   -2.4002    1.8225 C.ar      1 <0>        -0.1489
     29 F1         -6.7920   -2.8749    4.0193 F         1 <0>        -0.1278
     30 H2          1.0039    1.9031    0.0027 H         1 <0>         0.0714
     31 H3         -0.5459    1.8868   -0.8726 H         1 <0>         0.0688
     32 H4         -0.5289    1.8773    0.9072 H         1 <0>         0.0622
     33 H5         -0.9515   -0.2416    2.5140 H         1 <0>         0.1340
     34 H6          0.2274   -1.0572    4.5157 H         1 <0>         0.1440
     35 H7          2.5548   -0.8720    0.1675 H         1 <0>         0.1383
     36 H8          4.5974   -1.5429    1.3941 H         1 <0>         0.4180
     37 H9          3.2184   -3.8348    4.1369 H         1 <0>         0.1023
     38 H10         4.3307   -2.9900    5.2392 H         1 <0>         0.1486
     39 H11        -1.7940   -0.7522    0.8520 H         1 <0>         0.4069
     40 H12        -4.0226   -1.1601   -3.2963 H         1 <0>         0.1724
     41 H13        -6.3113   -2.0947   -2.3468 H         1 <0>         0.1903
     42 H14        -7.7197   -2.7433   -1.0966 H         1 <0>         0.1428
     43 H15        -9.4608   -3.5338    0.4518 H         1 <0>         0.1491
     44 H16        -9.0224   -3.5972    2.8726 H         1 <0>         0.1463
     45 H17        -5.0870   -2.0848    2.2075 H         1 <0>         0.1537
@<TRIPOS>BOND
     1    1    2 1
     2    1   30 1
     3    1   31 1
     4    1   32 1
     5    2    3 1
     6    2    4 1
     7    2   15 1
     8    4    9 ar
     9    4    5 ar
    10    5    6 ar
    11    5   33 1
    12    6    7 ar
    13    6   34 1
    14    7   14 1
    15    7    8 ar
    16    8    9 ar
    17    8   10 1
    18    9   35 1
    19   10   11 am
    20   10   36 1
    21   11   12 2
    22   11   13 1
    23   13   14 1
    24   13   37 1
    25   13   38 1
    26   15   16 am
    27   15   39 1
    28   16   17 2
    29   16   18 1
    30   18   22 2
    31   18   19 1
    32   19   20 2
    33   19   40 1
    34   20   21 1
    35   20   41 1
    36   21   22 1
    37   21   23 1
    38   23   28 ar
    39   23   24 ar
    40   24   25 ar
    41   24   42 1
    42   25   26 ar
    43   25   43 1
    44   26   27 ar
    45   26   44 1
    46   27   28 ar
    47   27   29 1
    48   28   45 1
@<TRIPOS>MOLECULE
ZINC12554625
   50    52     0     0     0
SMALL
USER_CHARGES
2-[(cyclohexyl-methyl-amino)methyl]-5-methyl-4-(p-tolyl)-1,2,4-triazole-3-thione
@<TRIPOS>ATOM
      1 C1          7.7234    0.6888   -0.0657 C.3       1 <0>        -0.1277
      2 C2          6.2165    0.6969   -0.0519 C.ar      1 <0>        -0.0455
      3 C3          5.5194    1.2124   -1.1292 C.ar      1 <0>        -0.1048
      4 C4          4.1383    1.2212   -1.1195 C.ar      1 <0>        -0.0655
      5 C5          3.4499    0.7117   -0.0266 C.ar      1 <0>         0.0799
      6 C6          4.1527    0.1995    1.0558 C.ar      1 <0>        -0.0899
      7 C7          5.5337    0.1891    1.0381 C.ar      1 <0>        -0.1078
      8 N1          2.0487    0.7196   -0.0136 N.pl3     1 <0>        -0.4342
      9 C8          1.2372   -0.3904   -0.0119 C.2       1 <0>         0.3198
     10 N2          0.0021   -0.0041    0.0020 N.2       1 <0>        -0.2856
     11 N3         -0.0169    1.3974    0.0097 N.pl3     1 <0>        -0.4286
     12 C9          1.2656    1.8169   -0.0003 C.2       1 <0>         0.4530
     13 S1          1.7999    3.4434    0.0034 S.2       1 <0>        -0.4973
     14 C10        -1.2087    2.2493    0.0203 C.3       1 <0>         0.2749
     15 C11        -0.5832    3.3399    2.0895 C.3       1 <0>        -0.0539
     16 C12        -2.9168    3.1755    1.4651 C.3       1 <0>         0.0329
     17 C13        -2.8357    4.5528    0.8037 C.3       1 <0>        -0.1415
     18 C14        -4.2073    5.2282    0.8623 C.3       1 <0>        -0.1165
     19 C15        -4.6350    5.3881    2.3226 C.3       1 <0>        -0.1319
     20 C16        -4.7161    4.0108    2.9840 C.3       1 <0>        -0.1162
     21 C17        -3.3445    3.3354    2.9253 C.3       1 <0>        -0.1398
     22 C18         1.7086   -1.8217   -0.0233 C.3       1 <0>        -0.0927
     23 H1          8.0957    1.6161    0.3699 H         1 <0>         0.0830
     24 H2          8.0876   -0.1579    0.5163 H         1 <0>         0.0758
     25 H3          8.0769    0.6024   -1.0931 H         1 <0>         0.0762
     26 H4          6.0555    1.6082   -1.9791 H         1 <0>         0.1412
     27 H5          3.5944    1.6242   -1.9610 H         1 <0>         0.1314
     28 H6          3.6200   -0.1934    1.9092 H         1 <0>         0.1296
     29 H7          6.0810   -0.2125    1.8782 H         1 <0>         0.1410
     30 H8         -0.9895    3.1872   -0.4899 H         1 <0>         0.1759
     31 H9         -2.0245    1.7392   -0.4919 H         1 <0>         0.1676
     32 H10        -0.4638    4.2874    1.5639 H         1 <0>         0.1416
     33 H11        -0.8978    3.5308    3.1155 H         1 <0>         0.1257
     34 H12         0.3664    2.8049    2.0943 H         1 <0>         0.1131
     35 H13        -3.6469    2.5616    0.9377 H         1 <0>         0.1397
     36 H14        -2.1056    5.1667    1.3310 H         1 <0>         0.0930
     37 H15        -2.5310    4.4389   -0.2367 H         1 <0>         0.0860
     38 H16        -4.9375    4.6143    0.3350 H         1 <0>         0.0748
     39 H17        -4.1496    6.2094    0.3911 H         1 <0>         0.0868
     40 H18        -5.6122    5.8693    2.3644 H         1 <0>         0.0802
     41 H19        -3.9049    6.0020    2.8499 H         1 <0>         0.0710
     42 H20        -5.4462    3.3969    2.4566 H         1 <0>         0.0751
     43 H21        -5.0208    4.1247    4.0243 H         1 <0>         0.0856
     44 H22        -3.4022    2.3542    3.3965 H         1 <0>         0.0861
     45 H23        -2.6143    3.9493    3.4527 H         1 <0>         0.0898
     46 H24         1.8127   -2.1618   -1.0536 H         1 <0>         0.1142
     47 H25         2.6723   -1.8909    0.4813 H         1 <0>         0.1042
     48 H26         0.9818   -2.4478    0.4943 H         1 <0>         0.1146
     49 N4         -1.6018    2.5019    1.4226 N.4       1 <0>        -0.4126
     50 H27        -1.6707    1.6044    1.9165 H         1 <0>         0.4282
@<TRIPOS>BOND
     1    1    2 1
     2    1   23 1
     3    1   24 1
     4    1   25 1
     5    2    7 ar
     6    2    3 ar
     7    3    4 ar
     8    3   26 1
     9    4    5 ar
    10    4   27 1
    11    5    6 ar
    12    5    8 1
    13    6    7 ar
    14    6   28 1
    15    7   29 1
    16    8   12 1
    17    8    9 1
    18    9   10 2
    19    9   22 1
    20   10   11 1
    21   11   12 1
    22   11   14 1
    23   12   13 2
    24   14   30 1
    25   14   31 1
    26   14   49 1
    27   15   32 1
    28   15   33 1
    29   15   34 1
    30   15   49 1
    31   16   21 1
    32   16   17 1
    33   16   35 1
    34   16   49 1
    35   17   18 1
    36   17   36 1
    37   17   37 1
    38   18   19 1
    39   18   38 1
    40   18   39 1
    41   19   20 1
    42   19   40 1
    43   19   41 1
    44   20   21 1
    45   20   42 1
    46   20   43 1
    47   21   44 1
    48   21   45 1
    49   22   46 1
    50   22   47 1
    51   22   48 1
    52   49   50 1
@<TRIPOS>MOLECULE
ZINC38938342
   33    35     0     0     0
SMALL
USER_CHARGES

@<TRIPOS>ATOM
      1 C1          0.0225    1.4110    0.2416 C.ar      1 <0>        -0.0637
      2 C2          1.2097    2.0902    0.4515 C.ar      1 <0>        -0.1253
      3 C3          2.4098    1.4107    0.4308 C.ar      1 <0>        -0.0538
      4 C4          2.4248    0.0333    0.1972 C.ar      1 <0>        -0.1033
      5 C5          1.2222   -0.6458   -0.0139 C.ar      1 <0>        -0.0605
      6 C6          0.0297    0.0468    0.0095 C.ar      1 <0>        -0.1285
      7 C7          3.7037   -0.7000    0.1731 C.2       1 <0>         0.1929
      8 N1          3.7141   -1.9801   -0.0443 N.2       1 <0>        -0.2358
      9 N2          4.9329   -2.6601   -0.1658 N.pl3     1 <0>        -0.3463
     10 C8          5.1465   -4.1131   -0.3004 C.3       1 <0>         0.2618
     11 H1          4.6727   -4.4871   -1.2080 H         1 <0>         0.2396
     12 N3          6.6086   -4.2476   -0.3882 N.2       1 <0>         0.0485
     13 N4          7.1025   -3.1192   -0.3181 N.pl3     1 <0>        -0.1472
     14 C9          6.1761   -2.1313   -0.1918 C.2       1 <0>         0.2555
     15 S1          6.5335   -0.4609   -0.0783 S.2       1 <0>        -0.2305
     16 C10         4.6171   -4.8399    0.9090 C.ar      1 <0>        -0.1342
     17 C11         3.5401   -4.3262    1.6072 C.ar      1 <0>        -0.0660
     18 C12         3.0541   -4.9923    2.7164 C.ar      1 <0>        -0.1014
     19 C13         3.6456   -6.1734    3.1280 C.ar      1 <0>         0.0007
     20 C14         4.7234   -6.6869    2.4288 C.ar      1 <0>        -0.1016
     21 C15         5.2049   -6.0229    1.3164 C.ar      1 <0>        -0.0708
     22 Cl1         3.0361   -7.0103    4.5215 Cl        1 <0>        -0.0293
     23 H2         -0.9146    1.9474    0.2633 H         1 <0>         0.1377
     24 H3          1.1965    3.1550    0.6316 H         1 <0>         0.1409
     25 H4          3.3356    1.9422    0.5945 H         1 <0>         0.1396
     26 H5          1.2264   -1.7105   -0.1951 H         1 <0>         0.1349
     27 H6         -0.9007   -0.4769   -0.1532 H         1 <0>         0.1376
     28 H7          4.6318   -0.1724    0.3363 H         1 <0>         0.1948
     29 H8          3.0787   -3.4041    1.2860 H         1 <0>         0.1550
     30 H9          2.2130   -4.5907    3.2620 H         1 <0>         0.1535
     31 H10         5.1857   -7.6087    2.7498 H         1 <0>         0.1558
     32 H11         6.0432   -6.4262    0.7677 H         1 <0>         0.1505
     33 H12         8.0574   -2.9526   -0.3536 H         1 <0>         0.4988
@<TRIPOS>BOND
     1    1    6 ar
     2    1    2 ar
     3    1   23 1
     4    2    3 ar
     5    2   24 1
     6    3    4 ar
     7    3   25 1
     8    4    5 ar
     9    4    7 1
    10    5    6 ar
    11    5   26 1
    12    6   27 1
    13    7    8 2
    14    7   28 1
    15    8    9 1
    16    9   14 1
    17    9   10 1
    18   10   11 1
    19   10   12 1
    20   10   16 1
    21   12   13 2
    22   13   14 1
    23   13   33 1
    24   14   15 2
    25   16   21 ar
    26   16   17 ar
    27   17   18 ar
    28   17   29 1
    29   18   19 ar
    30   18   30 1
    31   19   20 ar
    32   19   22 1
    33   20   21 ar
    34   20   31 1
    35   21   32 1
@<TRIPOS>MOLECULE
ZINC39926930
   37    40     0     0     0
SMALL
USER_CHARGES

@<TRIPOS>ATOM
      1 C1         -0.0184    1.5028    0.0103 C.3       1 <0>        -0.1263
      2 C2          0.0021   -0.0041    0.0020 C.ar      1 <0>        -0.0583
      3 C3          0.0057   -0.6888   -1.1991 C.ar      1 <0>        -0.1182
      4 C4          0.0245   -2.0707   -1.2067 C.ar      1 <0>        -0.0919
      5 C5          0.0400   -2.7685   -0.0132 C.ar      1 <0>        -0.1228
      6 C6          0.0373   -2.0840    1.1875 C.ar      1 <0>        -0.0912
      7 C7          0.0229   -0.7015    1.1951 C.ar      1 <0>        -0.1046
      8 C8          0.0252    0.0449    2.5043 C.3       1 <0>        -0.0798
      9 S1         -1.6839    0.3212    3.0458 S.3       1 <0>         0.1450
     10 C9         -1.5132    1.1923    4.5680 C.2       1 <0>         0.2310
     11 N1         -0.3023    1.4634    4.9924 N.2       1 <0>        -0.5048
     12 C10        -0.1711    2.2546    6.2135 C.3       1 <0>         0.2283
     13 H1         -0.1303    3.3146    5.9631 H         1 <0>         0.1988
     14 C11        -1.4142    1.9695    7.0441 C.2       1 <0>         0.0241
     15 C12        -0.9599    1.6800    8.2947 C.ar      1 <0>        -0.0282
     16 C13        -1.6311    1.4395    9.5192 C.ar      1 <0>        -0.0448
     17 C14        -0.8657    1.1572   10.6072 C.ar      1 <0>        -0.1051
     18 C15         0.5309    1.0908   10.5903 C.ar      1 <0>         0.0322
     19 C16         1.2783    1.3101    9.4759 C.ar      1 <0>        -0.1729
     20 C17         0.5340    1.6302    8.2466 C.ar      1 <0>         0.3292
     21 N2          0.9652    1.9029    7.0531 N.pl3     1 <0>        -0.5182
     22 N3         -2.6244    1.9041    6.4801 N.2       1 <0>        -0.0454
     23 N4         -2.6412    1.5484    5.2301 N.2       1 <0>        -0.1040
     24 H2          1.0042    1.8801    0.0026 H         1 <0>         0.0770
     25 H3         -0.5455    1.8639   -0.8728 H         1 <0>         0.0779
     26 H4         -0.5286    1.8543    0.9071 H         1 <0>         0.0653
     27 H5         -0.0064   -0.1437   -2.1314 H         1 <0>         0.1314
     28 H6          0.0266   -2.6056   -2.1449 H         1 <0>         0.1313
     29 H7          0.0540   -3.8484   -0.0191 H         1 <0>         0.1309
     30 H8          0.0491   -2.6290    2.1199 H         1 <0>         0.1261
     31 H9          0.5542   -0.5412    3.2558 H         1 <0>         0.1107
     32 H10         0.5249    1.0049    2.3743 H         1 <0>         0.1167
     33 H11        -2.7083    1.4793    9.5859 H         1 <0>         0.1785
     34 H12        -1.3690    0.9727   11.5448 H         1 <0>         0.1638
     35 H13         1.0428    0.8531   11.5111 H         1 <0>         0.1709
     36 H14         2.3567    1.2530    9.4916 H         1 <0>         0.1831
     37 H15         1.8918    1.8762    6.7675 H         1 <0>         0.4647
@<TRIPOS>BOND
     1    1    2 1
     2    1   24 1
     3    1   25 1
     4    1   26 1
     5    2    7 ar
     6    2    3 ar
     7    3    4 ar
     8    3   27 1
     9    4    5 ar
    10    4   28 1
    11    5    6 ar
    12    5   29 1
    13    6    7 ar
    14    6   30 1
    15    7    8 1
    16    8    9 1
    17    8   31 1
    18    8   32 1
    19    9   10 1
    20   10   23 1
    21   10   11 2
    22   11   12 1
    23   12   13 1
    24   12   21 1
    25   12   14 1
    26   14   15 2
    27   14   22 1
    28   15   20 ar
    29   15   16 ar
    30   16   17 ar
    31   16   33 1
    32   17   18 ar
    33   17   34 1
    34   18   19 ar
    35   18   35 1
    36   19   20 ar
    37   19   36 1
    38   20   21 2
    39   21   37 1
    40   22   23 2
@<TRIPOS>MOLECULE
ZINC38903288
   36    38     0     0     0
SMALL
USER_CHARGES

@<TRIPOS>ATOM
      1 C1          1.1269    1.2250   -0.2277 C.3       1 <0>        -0.1319
      2 C2          0.8785   -0.2604   -0.1733 C.ar      1 <0>        -0.0349
      3 C3          0.7887   -0.9895   -1.3443 C.ar      1 <0>        -0.1137
      4 C4          0.5608   -2.3520   -1.2944 C.ar      1 <0>        -0.0807
      5 C5          0.4232   -2.9856   -0.0734 C.ar      1 <0>        -0.1438
      6 C6          0.5140   -2.2566    1.0976 C.ar      1 <0>        -0.0709
      7 C7          0.7461   -0.8948    1.0478 C.ar      1 <0>        -0.1140
      8 C8          0.1738   -4.4708   -0.0191 C.3       1 <0>         0.2621
      9 H1          1.1176   -5.0154    0.0084 H         1 <0>         0.2350
     10 N1         -0.6370   -4.9006   -1.1686 N.2       1 <0>         0.0488
     11 N2         -1.6902   -5.3778   -0.7380 N.pl3     1 <0>        -0.1502
     12 C9         -1.7755   -5.3608    0.6193 C.2       1 <0>         0.2577
     13 S1         -3.1042   -5.9476    1.5255 S.2       1 <0>        -0.2396
     14 N3         -0.6561   -4.8139    1.1507 N.pl3     1 <0>        -0.3447
     15 N4         -0.3535   -4.6168    2.5044 N.2       1 <0>        -0.2341
     16 C10        -1.1482   -5.0792    3.4213 C.2       1 <0>         0.1925
     17 C11        -0.8862   -4.7832    4.8417 C.ar      1 <0>        -0.1023
     18 C12         0.2130   -4.0006    5.2044 C.ar      1 <0>        -0.0610
     19 C13         0.4519   -3.7278    6.5351 C.ar      1 <0>        -0.1284
     20 C14        -0.3936   -4.2275    7.5099 C.ar      1 <0>        -0.0647
     21 C15        -1.4839   -5.0036    7.1582 C.ar      1 <0>        -0.1251
     22 C16        -1.7390   -5.2791    5.8310 C.ar      1 <0>        -0.0543
     23 H2          2.2003    1.4144   -0.2185 H         1 <0>         0.0869
     24 H3          0.6938    1.6326   -1.1411 H         1 <0>         0.0780
     25 H4          0.6664    1.7023    0.6373 H         1 <0>         0.0776
     26 H5          0.8961   -0.4946   -2.2981 H         1 <0>         0.1435
     27 H6          0.4899   -2.9215   -2.2093 H         1 <0>         0.1394
     28 H7          0.4062   -2.7515    2.0515 H         1 <0>         0.1493
     29 H8          0.8207   -0.3259    1.9628 H         1 <0>         0.1418
     30 H9         -2.0011   -5.6808    3.1435 H         1 <0>         0.1945
     31 H10         0.8741   -3.6106    4.4447 H         1 <0>         0.1339
     32 H11         1.3011   -3.1230    6.8170 H         1 <0>         0.1373
     33 H12        -0.2014   -4.0109    8.5504 H         1 <0>         0.1375
     34 H13        -2.1391   -5.3909    7.9244 H         1 <0>         0.1407
     35 H14        -2.5931   -5.8810    5.5575 H         1 <0>         0.1395
     36 H15        -2.3887   -5.7305   -1.3113 H         1 <0>         0.4982
@<TRIPOS>BOND
     1    1    2 1
     2    1   23 1
     3    1   24 1
     4    1   25 1
     5    2    7 ar
     6    2    3 ar
     7    3    4 ar
     8    3   26 1
     9    4    5 ar
    10    4   27 1
    11    5    6 ar
    12    5    8 1
    13    6    7 ar
    14    6   28 1
    15    7   29 1
    16    8    9 1
    17    8   14 1
    18    8   10 1
    19   10   11 2
    20   11   12 1
    21   11   36 1
    22   12   13 2
    23   12   14 1
    24   14   15 1
    25   15   16 2
    26   16   17 1
    27   16   30 1
    28   17   22 ar
    29   17   18 ar
    30   18   19 ar
    31   18   31 1
    32   19   20 ar
    33   19   32 1
    34   20   21 ar
    35   20   33 1
    36   21   22 ar
    37   21   34 1
    38   22   35 1
@<TRIPOS>MOLECULE
ZINC07854295
   50    53     0     0     0
SMALL
USER_CHARGES

@<TRIPOS>ATOM
      1 C1         -6.7615   -4.7674   -5.4749 C.3       1 <0>        -0.1503
      2 C2         -7.2317   -3.3556   -5.1192 C.3       1 <0>        -0.0988
      3 C3         -6.7245   -2.9876   -3.7486 C.ar      1 <0>        -0.0051
      4 C4         -7.4915   -3.2827   -2.6305 C.ar      1 <0>        -0.1221
      5 C5         -7.0478   -2.9571   -1.3795 C.ar      1 <0>        -0.0744
      6 C6         -5.8116   -2.3219   -1.2260 C.ar      1 <0>        -0.1720
      7 C7         -5.3071   -1.9600    0.1022 C.2       1 <0>        -0.0376
      8 C8         -4.0998   -1.3456    0.1835 C.2       1 <0>        -0.1851
      9 C9         -3.3700   -1.0741   -0.9942 C.2       1 <0>         0.5022
     10 O1         -2.2878   -0.5224   -0.9077 O.2       1 <0>        -0.4295
     11 O2         -3.8382   -1.4088   -2.2064 O.3       1 <0>        -0.2592
     12 C10        -5.0319   -2.0214   -2.3564 C.ar      1 <0>         0.1641
     13 C11        -5.5003   -2.3662   -3.6179 C.ar      1 <0>        -0.1255
     14 C12        -6.1075   -2.2613    1.3430 C.3       1 <0>         0.0336
     15 N1         -5.8652   -3.6499    1.7567 N.4       1 <0>        -0.3852
     16 C13        -4.4642   -3.7982    2.2051 C.3       1 <0>        -0.0210
     17 C14        -4.5227   -3.6388    3.7449 C.3       1 <0>        -0.1372
     18 C15        -5.8588   -4.3510    4.0831 C.3       1 <0>        -0.1408
     19 C16        -6.7565   -3.9959    2.8791 C.3       1 <0>         0.1086
     20 H1         -7.3889   -3.1434    3.1268 H         1 <0>         0.1470
     21 C17        -7.6104   -5.1813    2.5091 C.2       1 <0>        -0.0432
     22 C18        -7.6439   -5.7860    1.3043 C.2       1 <0>        -0.1930
     23 C19        -8.5704   -6.8441    1.3892 C.2       1 <0>        -0.1818
     24 C20        -9.0678   -6.8455    2.6426 C.2       1 <0>         0.0243
     25 N2         -8.4779   -5.8308    3.3364 N.pl3     1 <0>        -0.4251
     26 C21        -8.7364   -5.4920    4.7381 C.3       1 <0>         0.0534
     27 H2         -7.1283   -5.0335   -6.4662 H         1 <0>         0.0700
     28 H3         -5.6720   -4.7995   -5.4700 H         1 <0>         0.0595
     29 H4         -7.1492   -5.4750   -4.7420 H         1 <0>         0.0586
     30 H5         -6.8441   -2.6480   -5.8521 H         1 <0>         0.0860
     31 H6         -8.3212   -3.3235   -5.1241 H         1 <0>         0.0867
     32 H7         -8.4463   -3.7730   -2.7497 H         1 <0>         0.1436
     33 H8         -7.6496   -3.1891   -0.5133 H         1 <0>         0.1317
     34 H9         -3.6986   -1.0650    1.1461 H         1 <0>         0.1758
     35 H10        -4.9092   -2.1447   -4.4942 H         1 <0>         0.1532
     36 H11        -5.8054   -1.5858    2.1433 H         1 <0>         0.1532
     37 H12        -7.1684   -2.1246    1.1332 H         1 <0>         0.1506
     38 H13        -4.0832   -4.7844    1.9399 H         1 <0>         0.1397
     39 H14        -3.8409   -3.0190    1.7664 H         1 <0>         0.1370
     40 H15        -3.6809   -4.1410    4.2216 H         1 <0>         0.1237
     41 H16        -4.5586   -2.5867    4.0275 H         1 <0>         0.1024
     42 H17        -5.7143   -5.4292    4.1513 H         1 <0>         0.1053
     43 H18        -6.2814   -3.9584    5.0080 H         1 <0>         0.1175
     44 H19        -7.0669   -5.5099    0.4341 H         1 <0>         0.1329
     45 H20        -8.8342   -7.5280    0.5960 H         1 <0>         0.1506
     46 H21        -9.8033   -7.5343    3.0312 H         1 <0>         0.1780
     47 H22        -9.5543   -4.7736    4.7933 H         1 <0>         0.0849
     48 H23        -9.0077   -6.3944    5.2859 H         1 <0>         0.0984
     49 H24        -7.8394   -5.0558    5.1778 H         1 <0>         0.0880
     50 H25        -6.0390   -4.2714    0.9811 H         1 <0>         0.4264
@<TRIPOS>BOND
     1    1    2 1
     2    1   27 1
     3    1   28 1
     4    1   29 1
     5    2    3 1
     6    2   30 1
     7    2   31 1
     8    3   13 ar
     9    3    4 ar
    10    4    5 ar
    11    4   32 1
    12    5    6 ar
    13    5   33 1
    14    6   12 ar
    15    6    7 1
    16    7    8 2
    17    7   14 1
    18    8    9 1
    19    8   34 1
    20    9   10 2
    21    9   11 1
    22   11   12 1
    23   12   13 ar
    24   13   35 1
    25   14   15 1
    26   14   36 1
    27   14   37 1
    28   15   19 1
    29   15   16 1
    30   15   50 1
    31   16   17 1
    32   16   38 1
    33   16   39 1
    34   17   18 1
    35   17   40 1
    36   17   41 1
    37   18   19 1
    38   18   42 1
    39   18   43 1
    40   19   20 1
    41   19   21 1
    42   21   25 1
    43   21   22 2
    44   22   23 1
    45   22   44 1
    46   23   24 2
    47   23   45 1
    48   24   25 1
    49   24   46 1
    50   25   26 1
    51   26   47 1
    52   26   48 1
    53   26   49 1
@<TRIPOS>MOLECULE
ZINC32146006
   48    50     0     0     0
SMALL
USER_CHARGES
N-(2-methoxy-5-methyl-phenyl)-4-(4-pyridylsulfamoyl)benzamide
@<TRIPOS>ATOM
      1 C1         -4.8566    5.2023    2.6365 C.3       1 <0>        -0.1159
      2 C2         -3.6050    5.6289    1.9136 C.ar      1 <0>        -0.0981
      3 C3         -3.5275    6.8914    1.3550 C.ar      1 <0>        -0.0890
      4 C4         -2.3819    7.2884    0.6906 C.ar      1 <0>        -0.1850
      5 C5         -1.3047    6.4231    0.5887 C.ar      1 <0>         0.0978
      6 C6         -1.3842    5.1489    1.1464 C.ar      1 <0>         0.1155
      7 C7         -2.5373    4.7574    1.8111 C.ar      1 <0>        -0.0876
      8 N1         -0.3009    4.2676    1.0411 N.am      1 <0>        -0.6638
      9 C8         -0.5186    2.9417    0.9354 C.2       1 <0>         0.5480
     10 O1         -1.6492    2.5027    1.0199 O.2       1 <0>        -0.5057
     11 C9          0.6172    2.0213    0.7169 C.ar      1 <0>        -0.0600
     12 C10         1.9159    2.5226    0.6138 C.ar      1 <0>        -0.1067
     13 C11         2.9708    1.6586    0.4046 C.ar      1 <0>        -0.0317
     14 C12         2.7438    0.2981    0.2966 C.ar      1 <0>        -0.6697
     15 C13         1.4590   -0.2053    0.3975 C.ar      1 <0>        -0.0173
     16 C14         0.3952    0.6476    0.6071 C.ar      1 <0>        -0.0753
     17 S1          4.0969   -0.7984    0.0289 S.o2      1 <0>         2.6850
     18 O2          5.2719   -0.0924    0.4034 O.2       1 <0>        -0.9333
     19 O3          3.7350   -2.0409    0.6157 O.2       1 <0>        -0.9160
     20 N2          4.2009   -1.0583   -1.6033 N.pl3     1 <0>        -1.0897
     21 C15         4.4790    0.0022   -2.4604 C.ar      1 <0>         0.2698
     22 C16         3.4820    0.5509   -3.2668 C.ar      1 <0>        -0.1382
     23 C17         3.7973    1.6047   -4.0984 C.ar      1 <0>         0.1501
     24 N3          5.0254    2.0862   -4.1447 N.ar      1 <0>        -0.4651
     25 C18         5.9975    1.5910   -3.4016 C.ar      1 <0>         0.1506
     26 C19         5.7633    0.5404   -2.5397 C.ar      1 <0>        -0.1327
     27 O4         -0.1749    6.8145   -0.0587 O.3       1 <0>        -0.3246
     28 C20        -0.1647    8.1348   -0.6053 C.3       1 <0>         0.0247
     29 H1         -5.5899    6.0219    2.6149 H         1 <0>         0.0687
     30 H2         -4.6115    4.9570    3.6804 H         1 <0>         0.0714
     31 H3         -5.2819    4.3166    2.1418 H         1 <0>         0.0723
     32 H4         -4.3643    7.5691    1.4376 H         1 <0>         0.1302
     33 H5         -2.3250    8.2750    0.2549 H         1 <0>         0.1347
     34 H6         -2.6005    3.7721    2.2487 H         1 <0>         0.1481
     35 H7          0.7277    4.6575    1.0447 H         1 <0>         0.4346
     36 H8          2.0944    3.5845    0.6975 H         1 <0>         0.1409
     37 H9          3.9762    2.0451    0.3253 H         1 <0>         0.1467
     38 H10         1.2886   -1.2684    0.3123 H         1 <0>         0.1535
     39 H11        -0.6072    0.2533    0.6863 H         1 <0>         0.1552
     40 H12         4.0502   -2.0692   -2.0100 H         1 <0>         0.4805
     41 H13         2.4762    0.1584   -3.2375 H         1 <0>         0.1888
     42 H14         3.0307    2.0385   -4.7234 H         1 <0>         0.2128
     43 H15         6.9889    2.0138   -3.4698 H         1 <0>         0.2160
     44 H16         6.5632    0.1397   -1.9348 H         1 <0>         0.1946
     45 H17         0.8013    8.3204   -1.0976 H         1 <0>         0.1018
     46 H18        -0.3113    8.8671    0.2023 H         1 <0>         0.0601
     47 H19        -0.9762    8.2332   -1.3413 H         1 <0>         0.0584
     48 H20         5.2626    2.9242   -4.8166 H         1 <0>         0.4945
@<TRIPOS>BOND
     1    1    2 1
     2    1   29 1
     3    1   30 1
     4    1   31 1
     5    2    7 ar
     6    2    3 ar
     7    3    4 ar
     8    3   32 1
     9    4    5 ar
    10    4   33 1
    11    5    6 ar
    12    5   27 1
    13    6    7 ar
    14    6    8 1
    15    7   34 1
    16    8    9 am
    17    8   35 1
    18    9   10 2
    19    9   11 1
    20   11   16 ar
    21   11   12 ar
    22   12   13 ar
    23   12   36 1
    24   13   14 ar
    25   13   37 1
    26   14   15 ar
    27   14   17 1
    28   15   16 ar
    29   15   38 1
    30   16   39 1
    31   17   18 2
    32   17   19 2
    33   17   20 1
    34   20   21 1
    35   20   40 1
    36   21   26 ar
    37   21   22 ar
    38   22   23 ar
    39   22   41 1
    40   23   24 ar
    41   23   42 1
    42   24   25 ar
    43   24   48 1
    44   25   26 ar
    45   25   43 1
    46   26   44 1
    47   27   28 1
    48   28   45 1
    49   28   46 1
    50   28   47 1
@<TRIPOS>MOLECULE
ZINC47859843
   52    54     0     0     0
SMALL
USER_CHARGES

@<TRIPOS>ATOM
      1 C1          1.6382    0.7906   -0.9966 C.3       1 <0>        -0.0757
      2 C2          0.7817   -0.3271   -0.4599 C.2       1 <0>         0.0854
      3 C3         -0.5720   -0.5327   -0.7462 C.2       1 <0>        -0.2590
      4 C4         -0.9769   -1.6364   -0.0753 C.2       1 <0>         0.0887
      5 N1          0.0851   -2.1127    0.6121 N.pl3     1 <0>        -0.3332
      6 N2          1.1778   -1.2761    0.3502 N.2       1 <0>        -0.2837
      7 C5          0.0929   -3.2473    1.4382 C.ar      1 <0>         0.1082
      8 C6         -0.4222   -4.4490    0.9719 C.ar      1 <0>        -0.0718
      9 C7         -0.4143   -5.5654    1.7838 C.ar      1 <0>        -0.1358
     10 C8          0.1089   -5.4874    3.0681 C.ar      1 <0>         0.1877
     11 C9          0.6245   -4.2863    3.5363 C.ar      1 <0>        -0.1435
     12 C10         0.6217   -3.1693    2.7218 C.ar      1 <0>         0.1372
     13 F1          1.1283   -2.0015    3.1743 F         1 <0>        -0.1158
     14 N3          0.1159   -6.6203    3.8911 N.am      1 <0>        -0.6779
     15 C11        -0.0745   -6.4899    5.2189 C.2       1 <0>         0.7084
     16 O1         -0.1720   -5.3833    5.7133 O.2       1 <0>        -0.5550
     17 N4         -0.1568   -7.5860    5.9988 N.am      1 <0>        -0.7418
     18 C12        -0.3638   -7.4442    7.4421 C.3       1 <0>         0.1627
     19 C13        -0.4191   -8.8093    8.0782 C.ar      1 <0>         0.0474
     20 C14        -1.6259   -9.4847    8.2061 C.ar      1 <0>        -0.1601
     21 C15        -1.6427  -10.7338    8.7929 C.ar      1 <0>         0.1529
     22 N5         -0.5295  -11.2906    9.2316 N.ar      1 <0>        -0.5043
     23 C16         0.6401  -10.6789    9.1284 C.ar      1 <0>         0.4419
     24 C17         0.7315   -9.4202    8.5424 C.ar      1 <0>        -0.1825
     25 N6          1.7878  -11.3021    9.6044 N.pl3     1 <0>        -0.5871
     26 C18         1.6998  -12.6299   10.2171 C.3       1 <0>         0.0537
     27 C19         3.0854  -10.6311    9.4934 C.3       1 <0>         0.0699
     28 C20        -2.3629   -2.2278   -0.0915 C.3       1 <0>        -0.0964
     29 H1          2.0997    0.4772   -1.9330 H         1 <0>         0.0806
     30 H2          1.0190    1.6701   -1.1732 H         1 <0>         0.0818
     31 H3          2.4154    1.0330   -0.2718 H         1 <0>         0.0749
     32 H4         -1.1858    0.0812   -1.3886 H         1 <0>         0.1548
     33 H5         -0.8295   -4.5105   -0.0265 H         1 <0>         0.1470
     34 H6         -0.8156   -6.4999    1.4203 H         1 <0>         0.1448
     35 H7          1.0313   -4.2257    4.5349 H         1 <0>         0.1617
     36 H8          0.2578   -7.4990    3.5055 H         1 <0>         0.4133
     37 H9         -0.0791   -8.4688    5.6044 H         1 <0>         0.4016
     38 H10         0.4602   -6.8757    7.8732 H         1 <0>         0.1014
     39 H11        -1.3018   -6.9200    7.6249 H         1 <0>         0.1048
     40 H12        -2.5420   -9.0368    7.8503 H         1 <0>         0.1832
     41 H13        -2.5791  -11.2623    8.8947 H         1 <0>         0.2103
     42 H14         1.6874   -8.9252    8.4551 H         1 <0>         0.1817
     43 H15         1.8238  -13.3934    9.4491 H         1 <0>         0.0873
     44 H16         2.4844  -12.7372   10.9660 H         1 <0>         0.1102
     45 H17         0.7257  -12.7471   10.6920 H         1 <0>         0.0746
     46 H18         3.2614  -10.0306   10.3858 H         1 <0>         0.0858
     47 H19         3.8735  -11.3779    9.3967 H         1 <0>         0.1021
     48 H20         3.0867   -9.9857    8.6150 H         1 <0>         0.0904
     49 H21        -2.4660   -2.8885   -0.9523 H         1 <0>         0.0846
     50 H22        -2.5262   -2.7959    0.8242 H         1 <0>         0.0711
     51 H23        -3.0990   -1.4266   -0.1582 H         1 <0>         0.0903
     52 H24        -0.5693  -12.1695    9.6401 H         1 <0>         0.4411
@<TRIPOS>BOND
     1    1    2 1
     2    1   29 1
     3    1   30 1
     4    1   31 1
     5    2    6 2
     6    2    3 1
     7    3    4 2
     8    3   32 1
     9    4    5 1
    10    4   28 1
    11    5    6 1
    12    5    7 1
    13    7   12 ar
    14    7    8 ar
    15    8    9 ar
    16    8   33 1
    17    9   10 ar
    18    9   34 1
    19   10   11 ar
    20   10   14 1
    21   11   12 ar
    22   11   35 1
    23   12   13 1
    24   14   15 am
    25   14   36 1
    26   15   16 2
    27   15   17 am
    28   17   18 1
    29   17   37 1
    30   18   19 1
    31   18   38 1
    32   18   39 1
    33   19   24 ar
    34   19   20 ar
    35   20   21 ar
    36   20   40 1
    37   21   22 ar
    38   21   41 1
    39   22   23 ar
    40   22   52 1
    41   23   24 ar
    42   23   25 1
    43   24   42 1
    44   25   26 1
    45   25   27 1
    46   26   43 1
    47   26   44 1
    48   26   45 1
    49   27   46 1
    50   27   47 1
    51   27   48 1
    52   28   49 1
    53   28   50 1
    54   28   51 1
@<TRIPOS>MOLECULE
ZINC19996881
   57    59     0     0     0
SMALL
USER_CHARGES

@<TRIPOS>ATOM
      1 C1         -0.2233    1.3526   -1.8845 C.3       1 <0>        -0.1206
      2 C2         -0.1675   -0.1226   -1.5818 C.ar      1 <0>        -0.0547
      3 C3         -0.2073   -1.0409   -2.6149 C.ar      1 <0>        -0.1209
      4 C4         -0.1559   -2.3936   -2.3406 C.ar      1 <0>        -0.0485
      5 C5         -0.0641   -2.8310   -1.0262 C.ar      1 <0>         0.1083
      6 C6         -0.0244   -1.9066    0.0089 C.ar      1 <0>        -0.0490
      7 C7         -0.0708   -0.5550   -0.2720 C.ar      1 <0>        -0.1210
      8 C8          0.0752   -2.3772    1.4371 C.3       1 <0>        -0.1153
      9 N1         -0.0122   -4.2030   -0.7447 N.am      1 <0>        -0.5050
     10 C9         -1.1626   -4.8788   -0.5456 C.2       1 <0>         0.5855
     11 O1         -2.2381   -4.3134   -0.6079 O.2       1 <0>        -0.5165
     12 C10        -1.0815   -6.3203   -0.2512 C.2       1 <0>        -0.4060
     13 C11        -2.2179   -7.0779   -0.0364 C.2       1 <0>         0.3363
     14 N2         -3.4194   -6.4759    0.0687 N.pl3     1 <0>        -0.6798
     15 C12        -4.6369   -7.2839    0.1747 C.3       1 <0>         0.0752
     16 C13        -5.8532   -6.3619    0.2812 C.3       1 <0>        -0.0232
     17 N3         -7.0740   -7.1721    0.3875 N.4       1 <0>        -0.3785
     18 C14        -7.0446   -7.9364    1.6402 C.3       1 <0>        -0.0161
     19 C15        -8.2748   -8.8431    1.7179 C.3       1 <0>        -0.1456
     20 C16        -9.5404   -7.9820    1.6730 C.3       1 <0>        -0.1407
     21 C17        -9.5240   -7.1340    0.3979 C.3       1 <0>        -0.1461
     22 C18        -8.2475   -6.2907    0.3692 C.3       1 <0>        -0.0066
     23 C19         0.2640   -6.9194   -0.1963 C.2       1 <0>         0.5875
     24 N4          1.3276   -6.1194   -0.4166 N.am      1 <0>        -0.6612
     25 C20         1.1790   -4.8145   -0.6848 C.2       1 <0>         0.7074
     26 O2          2.1777   -4.1495   -0.8788 O.2       1 <0>        -0.5067
     27 O3          0.4115   -8.1034    0.0418 O.2       1 <0>        -0.5025
     28 C21        -0.1998   -3.3938   -3.4671 C.3       1 <0>        -0.1156
     29 H1          0.7884    1.7333   -2.0249 H         1 <0>         0.0782
     30 H2         -0.8021    1.5154   -2.7937 H         1 <0>         0.0708
     31 H3         -0.6965    1.8763   -1.0539 H         1 <0>         0.0707
     32 H4         -0.2790   -0.7001   -3.6372 H         1 <0>         0.1322
     33 H5         -0.0358    0.1647    0.5325 H         1 <0>         0.1322
     34 H6          1.1246   -2.4644    1.7186 H         1 <0>         0.0785
     35 H7         -0.4181   -1.6586    2.0916 H         1 <0>         0.0758
     36 H8         -0.4090   -3.3489    1.5340 H         1 <0>         0.0546
     37 H9         -2.1430   -8.1521    0.0472 H         1 <0>         0.1825
     38 H10        -4.7339   -7.9125   -0.7104 H         1 <0>         0.1016
     39 H11        -4.5791   -7.9132    1.0628 H         1 <0>         0.1014
     40 H12        -5.7562   -5.7332    1.1664 H         1 <0>         0.1412
     41 H13        -5.9110   -5.7325   -0.6069 H         1 <0>         0.1439
     42 H14        -6.1418   -8.5463    1.6722 H         1 <0>         0.1316
     43 H15        -7.0472   -7.2481    2.4854 H         1 <0>         0.1322
     44 H16        -8.2732   -9.5320    0.8733 H         1 <0>         0.0893
     45 H17        -8.2521   -9.4084    2.6496 H         1 <0>         0.1144
     46 H18       -10.4197   -8.6262    1.6710 H         1 <0>         0.0960
     47 H19        -9.5679   -7.3286    2.5450 H         1 <0>         0.0827
     48 H20        -9.5483   -7.7875   -0.4742 H         1 <0>         0.0891
     49 H21       -10.3942   -6.4777    0.3861 H         1 <0>         0.1147
     50 H22        -8.2244   -5.6375    1.2414 H         1 <0>         0.1311
     51 H23        -8.2328   -5.6855   -0.5373 H         1 <0>         0.1329
     52 H24         0.8150   -3.6088   -3.8018 H         1 <0>         0.0785
     53 H25        -0.6698   -4.3133   -3.1183 H         1 <0>         0.0550
     54 H26        -0.7763   -2.9827   -4.2957 H         1 <0>         0.0760
     55 H27         2.2201   -6.4978   -0.3837 H         1 <0>         0.4391
     56 H28        -3.4779   -5.5076    0.0742 H         1 <0>         0.4286
     57 H29        -7.1218   -7.8103   -0.3925 H         1 <0>         0.4253
@<TRIPOS>BOND
     1    1    2 1
     2    1   29 1
     3    1   30 1
     4    1   31 1
     5    2    7 ar
     6    2    3 ar
     7    3    4 ar
     8    3   32 1
     9    4    5 ar
    10    4   28 1
    11    5    6 ar
    12    5    9 1
    13    6    7 ar
    14    6    8 1
    15    7   33 1
    16    8   34 1
    17    8   35 1
    18    8   36 1
    19    9   25 am
    20    9   10 am
    21   10   11 2
    22   10   12 1
    23   12   23 1
    24   12   13 2
    25   13   37 1
    26   13   14 1
    27   14   15 1
    28   14   56 1
    29   15   16 1
    30   15   38 1
    31   15   39 1
    32   16   17 1
    33   16   40 1
    34   16   41 1
    35   17   22 1
    36   17   18 1
    37   17   57 1
    38   18   19 1
    39   18   42 1
    40   18   43 1
    41   19   20 1
    42   19   44 1
    43   19   45 1
    44   20   21 1
    45   20   46 1
    46   20   47 1
    47   21   22 1
    48   21   48 1
    49   21   49 1
    50   22   50 1
    51   22   51 1
    52   23   24 am
    53   23   27 2
    54   24   25 am
    55   24   55 1
    56   25   26 2
    57   28   52 1
    58   28   53 1
    59   28   54 1
@<TRIPOS>MOLECULE
ZINC63907389
   58    61     0     0     0
SMALL
USER_CHARGES

@<TRIPOS>ATOM
      1 C1         -0.0187    1.5258    0.0104 C.3       1 <0>        -0.1485
      2 C2          0.0021   -0.0041    0.0020 C.3       1 <0>        -0.1005
      3 H1         -1.0205   -0.3814    0.0098 H         1 <0>         0.0885
      4 C3          0.7182   -0.4975   -1.2568 C.3       1 <0>        -0.1161
      5 C4          0.7390   -2.0273   -1.2652 C.3       1 <0>        -0.1234
      6 C5          1.4790   -2.5342   -0.0257 C.3       1 <0>        -0.1181
      7 C6          0.7628   -2.0407    1.2331 C.3       1 <0>        -0.1307
      8 C7          0.7421   -0.5109    1.2415 C.3       1 <0>         0.1539
      9 H2          0.2319   -0.1594    2.1383 H         1 <0>         0.0901
     10 N1          2.1165   -0.0038    1.2311 N.am      1 <0>        -0.7109
     11 C8          2.7950    0.1277    2.3882 C.2       1 <0>         0.5121
     12 O1          2.2678   -0.1736    3.4380 O.2       1 <0>        -0.5230
     13 C9          4.2088    0.6494    2.3775 C.3       1 <0>         0.1281
     14 H3          4.8354   -0.0115    1.7785 H         1 <0>         0.1351
     15 C10         4.2290    2.0557    1.7752 C.3       1 <0>        -0.1676
     16 N2          4.7217    0.6981    3.7489 N.am      1 <0>        -0.5561
     17 C11         5.8077    0.0235    4.1754 C.2       1 <0>         0.5309
     18 O2          6.5175   -0.7102    3.5215 O.2       1 <0>        -0.4482
     19 C12         5.9576    0.3738    5.6426 C.3       1 <0>         0.1022
     20 H4          6.9090    0.8745    5.8221 H         1 <0>         0.1379
     21 N3          4.8331    1.2911    5.8962 N.am      1 <0>        -0.7337
     22 C13         4.1733    1.4222    4.7312 C.2       1 <0>         0.7110
     23 O3          3.1872    2.1180    4.5879 O.2       1 <0>        -0.5034
     24 C14         5.8393   -0.8808    6.5103 C.3       1 <0>        -0.0938
     25 C15         6.1135   -0.5244    7.9487 C.2       1 <0>         0.0600
     26 C16         5.2003   -0.2252    8.9005 C.ar      1 <0>        -0.1635
     27 C17         3.7349   -0.1439    8.8821 C.ar      1 <0>        -0.0174
     28 C18         3.0820    0.1887   10.0188 C.ar      1 <0>        -0.1458
     29 C19         3.7681    0.4575   11.2111 C.ar      1 <0>         0.0572
     30 C20         5.1135    0.4032   11.3064 C.ar      1 <0>        -0.2102
     31 C21         5.9012    0.0628   10.1723 C.ar      1 <0>         0.3291
     32 N4          7.1972   -0.0538   10.0129 N.pl3     1 <0>        -0.5832
     33 C22         7.4649   -0.4354    8.6217 C.3       1 <0>         0.0617
     34 H5          1.0039    1.9031    0.0027 H         1 <0>         0.0536
     35 H6         -0.5459    1.8868   -0.8726 H         1 <0>         0.0606
     36 H7         -0.5289    1.8773    0.9072 H         1 <0>         0.0572
     37 H8          0.1910   -0.1364   -2.1398 H         1 <0>         0.0704
     38 H9          1.7408   -0.1202   -1.2645 H         1 <0>         0.0582
     39 H10        -0.2836   -2.4046   -1.2575 H         1 <0>         0.0657
     40 H11         1.2492   -2.3788   -2.1620 H         1 <0>         0.0653
     41 H12         1.4937   -3.6240   -0.0317 H         1 <0>         0.0636
     42 H13         2.5015   -2.1569   -0.0334 H         1 <0>         0.0589
     43 H14        -0.2598   -2.4180    1.2409 H         1 <0>         0.0748
     44 H15         1.2900   -2.4018    2.1162 H         1 <0>         0.0650
     45 H16         2.5382    0.2372    0.3915 H         1 <0>         0.4009
     46 H17         3.6024    2.7165    2.3742 H         1 <0>         0.0853
     47 H18         5.2516    2.4330    1.7675 H         1 <0>         0.0766
     48 H19         3.8474    2.0194    0.7548 H         1 <0>         0.0860
     49 H20         4.6132    1.7194    6.7382 H         1 <0>         0.4381
     50 H21         4.8327   -1.2896    6.4228 H         1 <0>         0.1235
     51 H22         6.5635   -1.6236    6.1757 H         1 <0>         0.1392
     52 H23         3.1862   -0.3463    7.9741 H         1 <0>         0.1612
     53 H24         2.0037    0.2491   10.0075 H         1 <0>         0.1592
     54 H25         3.1969    0.7192   12.0896 H         1 <0>         0.1620
     55 H26         5.5943    0.6196   12.2489 H         1 <0>         0.1615
     56 H27         7.9672   -1.4020    8.5851 H         1 <0>         0.1780
     57 H28         8.0767    0.3253    8.1368 H         1 <0>         0.1748
     58 H29         7.8669    0.0850   10.7007 H         1 <0>         0.4568
@<TRIPOS>BOND
     1    1    2 1
     2    1   34 1
     3    1   35 1
     4    1   36 1
     5    2    3 1
     6    2    8 1
     7    2    4 1
     8    4    5 1
     9    4   37 1
    10    4   38 1
    11    5    6 1
    12    5   39 1
    13    5   40 1
    14    6    7 1
    15    6   41 1
    16    6   42 1
    17    7    8 1
    18    7   43 1
    19    7   44 1
    20    8    9 1
    21    8   10 1
    22   10   11 am
    23   10   45 1
    24   11   12 2
    25   11   13 1
    26   13   14 1
    27   13   15 1
    28   13   16 1
    29   15   46 1
    30   15   47 1
    31   15   48 1
    32   16   22 am
    33   16   17 am
    34   17   18 2
    35   17   19 1
    36   19   20 1
    37   19   21 1
    38   19   24 1
    39   21   22 am
    40   21   49 1
    41   22   23 2
    42   24   25 1
    43   24   50 1
    44   24   51 1
    45   25   33 1
    46   25   26 2
    47   26   31 ar
    48   26   27 ar
    49   27   28 ar
    50   27   52 1
    51   28   29 ar
    52   28   53 1
    53   29   30 ar
    54   29   54 1
    55   30   31 ar
    56   30   55 1
    57   31   32 2
    58   32   33 1
    59   32   58 1
    60   33   56 1
    61   33   57 1
@<TRIPOS>MOLECULE
ZINC67209883
   60    61     0     0     0
SMALL
USER_CHARGES

@<TRIPOS>ATOM
      1 C1          6.6581    4.2711    1.5531 C.3       1 <0>        -0.1868
      2 C2          6.3754    5.1622    0.3420 C.3       1 <0>         0.1343
      3 C3          4.8815    5.4881    0.2862 C.3       1 <0>        -0.1869
      4 C4          7.1762    6.4600    0.4657 C.3       1 <0>        -0.1417
      5 O1          6.7587    4.4781   -0.8526 O.3       1 <0>        -0.3545
      6 C5          6.1429    3.3092   -1.1119 C.2       1 <0>         0.6557
      7 O2          5.3030    2.8816   -0.3449 O.2       1 <0>        -0.5626
      8 N1          6.4580    2.6133   -2.2223 N.am      1 <0>        -0.7041
      9 C6          5.7879    1.3414   -2.5044 C.3       1 <0>         0.1205
     10 C7          6.3170    0.7703   -3.7948 C.2       1 <0>         0.5134
     11 O3          7.1698    1.3671   -4.4175 O.2       1 <0>        -0.5180
     12 N2          5.8424   -0.4035   -4.2569 N.am      1 <0>        -0.6656
     13 C8          6.2627   -0.8873   -5.5033 C.ar      1 <0>         0.0965
     14 C9          5.3750   -1.5833   -6.3130 C.ar      1 <0>        -0.0894
     15 C10         5.7887   -2.0596   -7.5410 C.ar      1 <0>        -0.1682
     16 C11         7.0928   -1.8426   -7.9665 C.ar      1 <0>         0.1934
     17 C12         7.9806   -1.1463   -7.1565 C.ar      1 <0>        -0.1782
     18 C13         7.5650   -0.6656   -5.9308 C.ar      1 <0>        -0.0698
     19 N3          7.5123   -2.3255   -9.2106 N.pl3     1 <0>        -0.6291
     20 C14         6.5489   -2.9628  -10.1117 C.3       1 <0>         0.0871
     21 C15         8.9150   -2.1940   -9.6124 C.3       1 <0>         0.1427
     22 C16         8.9955   -1.4810  -10.9653 C.3       1 <0>        -0.1610
     23 C17        10.4564   -1.4178  -11.4162 C.3       1 <0>        -0.0035
     24 N4         10.9915   -2.7784  -11.5460 N.4       1 <0>        -0.3860
     25 C18        10.9839   -3.4435  -10.2375 C.3       1 <0>        -0.0035
     26 C19         9.5433   -3.5846   -9.7412 C.3       1 <0>        -0.1632
     27 C20        12.3686   -2.7151  -12.0534 C.3       1 <0>        -0.0474
     28 H1          6.0876    3.3465    1.4650 H         1 <0>         0.0870
     29 H2          7.7224    4.0389    1.5928 H         1 <0>         0.0599
     30 H3          6.3658    4.7929    2.4643 H         1 <0>         0.0729
     31 H4          4.5892    6.0099    1.1974 H         1 <0>         0.0729
     32 H5          4.6801    6.1229   -0.5767 H         1 <0>         0.0601
     33 H6          4.3110    4.5635    0.1980 H         1 <0>         0.0870
     34 H7          8.2405    6.2279    0.5054 H         1 <0>         0.0673
     35 H8          6.9748    7.0949   -0.3972 H         1 <0>         0.0674
     36 H9          6.8839    6.9819    1.3769 H         1 <0>         0.0833
     37 H10         7.1284    2.9545   -2.8346 H         1 <0>         0.4177
     38 H11         5.9802    0.6413   -1.6914 H         1 <0>         0.1084
     39 H12         4.7145    1.5083   -2.5940 H         1 <0>         0.1089
     40 H13         5.2101   -0.9134   -3.7268 H         1 <0>         0.4164
     41 H14         4.3610   -1.7524   -5.9819 H         1 <0>         0.1313
     42 H15         5.0983   -2.6013   -8.1706 H         1 <0>         0.1301
     43 H16         8.9948   -0.9774   -7.4872 H         1 <0>         0.1220
     44 H17         8.2540   -0.1203   -5.3028 H         1 <0>         0.1415
     45 H18         6.1029   -2.2080  -10.7594 H         1 <0>         0.0532
     46 H19         7.0596   -3.7085  -10.7210 H         1 <0>         0.0632
     47 H20         5.7675   -3.4460   -9.5252 H         1 <0>         0.0772
     48 H21         9.4564   -1.6174   -8.8624 H         1 <0>         0.1076
     49 H22         8.4106   -2.0314  -11.7022 H         1 <0>         0.0912
     50 H23         8.6006   -0.4697  -10.8678 H         1 <0>         0.1167
     51 H24        10.5173   -0.9105  -12.3791 H         1 <0>         0.1344
     52 H25        11.0403   -0.8670  -10.6788 H         1 <0>         0.1309
     53 H26        11.4343   -4.4317  -10.3301 H         1 <0>         0.1339
     54 H27        11.5566   -2.8495   -9.5252 H         1 <0>         0.1307
     55 H28         9.5400   -4.0770   -8.7687 H         1 <0>         0.1160
     56 H29         8.9698   -4.1787  -10.4526 H         1 <0>         0.0905
     57 H30        12.9861   -2.1460  -11.3585 H         1 <0>         0.1226
     58 H31        12.7669   -3.7251  -12.1502 H         1 <0>         0.1245
     59 H32        12.3745   -2.2273  -13.0282 H         1 <0>         0.1246
     60 H33        10.4209   -3.3029  -12.1920 H         1 <0>         0.4245
@<TRIPOS>BOND
     1    1    2 1
     2    1   28 1
     3    1   29 1
     4    1   30 1
     5    2    3 1
     6    2    4 1
     7    2    5 1
     8    3   31 1
     9    3   32 1
    10    3   33 1
    11    4   34 1
    12    4   35 1
    13    4   36 1
    14    5    6 1
    15    6    7 2
    16    6    8 am
    17    8    9 1
    18    8   37 1
    19    9   10 1
    20    9   38 1
    21    9   39 1
    22   10   11 2
    23   10   12 am
    24   12   13 1
    25   12   40 1
    26   13   18 ar
    27   13   14 ar
    28   14   15 ar
    29   14   41 1
    30   15   16 ar
    31   15   42 1
    32   16   17 ar
    33   16   19 1
    34   17   18 ar
    35   17   43 1
    36   18   44 1
    37   19   20 1
    38   19   21 1
    39   20   45 1
    40   20   46 1
    41   20   47 1
    42   21   26 1
    43   21   22 1
    44   21   48 1
    45   22   23 1
    46   22   49 1
    47   22   50 1
    48   23   24 1
    49   23   51 1
    50   23   52 1
    51   24   25 1
    52   24   27 1
    53   24   60 1
    54   25   26 1
    55   25   53 1
    56   25   54 1
    57   26   55 1
    58   26   56 1
    59   27   57 1
    60   27   58 1
    61   27   59 1
@<TRIPOS>MOLECULE
ZINC09542203
   53    56     0     0     0
SMALL
USER_CHARGES
4-chloro-2-[2-(2,4-dichlorophenyl)-6-(4-ethoxyphenyl)-2,3,4,5-tetrahydropyrimidin-4-yl]-phenol
@<TRIPOS>ATOM
      1 C1          6.6126   -2.2949    7.2925 C.3       1 <0>        -0.1564
      2 C2          5.8675   -1.4583    6.2504 C.3       1 <0>         0.0510
      3 O1          4.8816   -2.2677    5.6062 O.3       1 <0>        -0.3066
      4 C3          4.1267   -1.6731    4.6473 C.ar      1 <0>         0.1782
      5 C4          3.1500   -2.4041    3.9820 C.ar      1 <0>        -0.1643
      6 C5          2.3815   -1.8046    3.0088 C.ar      1 <0>        -0.0165
      7 C6          2.5855   -0.4592    2.6904 C.ar      1 <0>        -0.1423
      8 C7          3.5731    0.2706    3.3576 C.ar      1 <0>        -0.0350
      9 C8          4.3332   -0.3351    4.3335 C.ar      1 <0>        -0.2171
     10 C9          1.7653    0.1867    1.6493 C.2       1 <0>         0.2780
     11 N1          0.8729   -0.5129    1.0542 N.2       1 <0>        -0.5173
     12 C10         0.0021   -0.0041    0.0020 C.3       1 <0>         0.2602
     13 H1          0.3653   -0.3529   -0.9647 H         1 <0>         0.1653
     14 C11         1.3575    1.9910   -0.0002 C.3       1 <0>         0.0982
     15 H2          1.9185    1.5392   -0.8182 H         1 <0>         0.1565
     16 C12         2.0163    1.6356    1.3361 C.3       1 <0>        -0.1402
     17 C13         1.3267    3.4881   -0.1698 C.ar      1 <0>        -0.1574
     18 C14         0.2113    4.2050    0.2189 C.ar      1 <0>        -0.1064
     19 C15         0.1825    5.5794    0.0634 C.ar      1 <0>        -0.0315
     20 C16         1.2703    6.2388   -0.4815 C.ar      1 <0>        -0.0652
     21 C17         2.3870    5.5256   -0.8717 C.ar      1 <0>        -0.1138
     22 C18         2.4202    4.1479   -0.7108 C.ar      1 <0>         0.1512
     23 O2          3.5205    3.4450   -1.0885 O.3       1 <0>        -0.4881
     24 Cl1        -1.2198    6.4780    0.5530 Cl        1 <0>        -0.0344
     25 C19        -1.3964   -0.5208    0.2218 C.ar      1 <0>        -0.1300
     26 C20        -2.4838    0.2656   -0.1104 C.ar      1 <0>        -0.1048
     27 C21        -3.7666   -0.2098    0.0857 C.ar      1 <0>        -0.0941
     28 C22        -3.9633   -1.4689    0.6251 C.ar      1 <0>        -0.0014
     29 C23        -2.8757   -2.2538    0.9629 C.ar      1 <0>        -0.0968
     30 C24        -1.5918   -1.7796    0.7612 C.ar      1 <0>         0.0243
     31 Cl2        -0.2261   -2.7643    1.1843 Cl        1 <0>        -0.0019
     32 Cl3        -5.5747   -2.0628    0.8784 Cl        1 <0>        -0.0254
     33 H3          5.9051   -2.6652    8.0344 H         1 <0>         0.0696
     34 H4          7.0988   -3.1379    6.8016 H         1 <0>         0.0697
     35 H5          7.3646   -1.6775    7.7839 H         1 <0>         0.0843
     36 H6          6.5750   -1.0880    5.5084 H         1 <0>         0.0681
     37 H7          5.3813   -0.6153    6.7413 H         1 <0>         0.0678
     38 H8          2.9930   -3.4438    4.2286 H         1 <0>         0.1412
     39 H9          1.6227   -2.3736    2.4922 H         1 <0>         0.1405
     40 H10         3.7370    1.3094    3.1115 H         1 <0>         0.1331
     41 H11         5.0938    0.2293    4.8525 H         1 <0>         0.1400
     42 H12         1.6284    2.2053    2.0607 H         1 <0>         0.1103
     43 H13         3.0899    1.8124    1.2704 H         1 <0>         0.1475
     44 H14        -0.6387    3.6921    0.6440 H         1 <0>         0.1307
     45 H15         1.2460    7.3118   -0.6021 H         1 <0>         0.1539
     46 H16         3.2357    6.0406   -1.2969 H         1 <0>         0.1563
     47 H17         3.4981    3.1429   -2.0069 H         1 <0>         0.4044
     48 H18        -2.3308    1.2500   -0.5273 H         1 <0>         0.1335
     49 H19        -4.6157    0.4032   -0.1781 H         1 <0>         0.1542
     50 H20        -3.0287   -3.2363    1.3843 H         1 <0>         0.1585
     51 N2         -0.0220    1.4665    0.0102 N.4       1 <0>        -0.5483
     52 H21        -0.5047    1.7944    0.8549 H         1 <0>         0.4319
     53 H22        -0.5208    1.8035   -0.8217 H         1 <0>         0.4368
@<TRIPOS>BOND
     1    1    2 1
     2    1   33 1
     3    1   34 1
     4    1   35 1
     5    2    3 1
     6    2   36 1
     7    2   37 1
     8    3    4 1
     9    4    9 ar
    10    4    5 ar
    11    5    6 ar
    12    5   38 1
    13    6    7 ar
    14    6   39 1
    15    7    8 ar
    16    7   10 1
    17    8    9 ar
    18    8   40 1
    19    9   41 1
    20   10   16 1
    21   10   11 2
    22   11   12 1
    23   12   13 1
    24   12   25 1
    25   12   51 1
    26   14   15 1
    27   14   16 1
    28   14   17 1
    29   14   51 1
    30   16   42 1
    31   16   43 1
    32   17   22 ar
    33   17   18 ar
    34   18   19 ar
    35   18   44 1
    36   19   20 ar
    37   19   24 1
    38   20   21 ar
    39   20   45 1
    40   21   22 ar
    41   21   46 1
    42   22   23 1
    43   23   47 1
    44   25   30 ar
    45   25   26 ar
    46   26   27 ar
    47   26   48 1
    48   27   28 ar
    49   27   49 1
    50   28   29 ar
    51   28   32 1
    52   29   30 ar
    53   29   50 1
    54   30   31 1
    55   51   52 1
    56   51   53 1
@<TRIPOS>MOLECULE
ZINC15067442
   60    63     0     0     0
SMALL
USER_CHARGES
(1S)-6-[(3-chloro-4-hydroxy-phenyl)methyl]-N-[2-(1-cyclohexenyl)ethyl]-6-azaspiro[2.5]octane-1-carboxamide
@<TRIPOS>ATOM
      1 C1         -5.0341    0.3115    4.6914 C.ar      1 <0>        -0.0746
      2 C2         -6.1021    0.8884    5.3520 C.ar      1 <0>        -0.1306
      3 C3         -7.3915    0.4410    5.1067 C.ar      1 <0>         0.1577
      4 C4         -7.6065   -0.5824    4.1931 C.ar      1 <0>        -0.0687
      5 C5         -6.5352   -1.1521    3.5311 C.ar      1 <0>        -0.0710
      6 C6         -5.2507   -0.7034    3.7782 C.ar      1 <0>        -0.1601
      7 C7         -4.0844   -1.3261    3.0551 C.3       1 <0>         0.0496
      8 C8         -2.5709   -1.0166    1.1916 C.3       1 <0>         0.0029
      9 C9         -2.4569   -0.4095   -0.2110 C.3       1 <0>        -0.1193
     10 C10        -2.6048    1.1115   -0.0992 C.3       1 <0>        -0.1302
     11 C11        -3.8389    1.5804    0.6785 C.3       1 <0>        -0.1055
     12 C12        -3.8711    0.8555    2.0285 C.3       1 <0>        -0.0075
     13 C13        -2.1396    1.9621   -1.2794 C.3       1 <0>        -0.1164
     14 C14        -1.3296    1.9443    0.0189 C.3       1 <0>        -0.1793
     15 H1         -1.3655    2.8345    0.6469 H         1 <0>         0.1314
     16 C15        -0.0144    1.2086    0.0087 C.2       1 <0>         0.5349
     17 O1          0.3483    0.6286   -0.9928 O.2       1 <0>        -0.5260
     18 N1          0.7615    1.1998    1.1107 N.am      1 <0>        -0.7268
     19 C16         2.0428    0.4897    1.0988 C.3       1 <0>         0.1217
     20 C17         2.7192    0.6354    2.4634 C.3       1 <0>        -0.0947
     21 C18         4.0373   -0.0951    2.4512 C.2       1 <0>        -0.1339
     22 C19         5.1048    0.5835    2.1762 C.2       1 <0>        -0.1345
     23 C20         6.4842   -0.0048    2.1214 C.3       1 <0>        -0.0956
     24 C21         6.5067   -1.3653    2.8216 C.3       1 <0>        -0.1225
     25 C22         5.3397   -2.2052    2.2874 C.3       1 <0>        -0.1225
     26 C23         4.0299   -1.5652    2.7526 C.3       1 <0>        -0.0795
     27 Cl1        -9.2190   -1.1454    3.8825 Cl        1 <0>        -0.0273
     28 O2         -8.4429    1.0028    5.7596 O.3       1 <0>        -0.4826
     29 H2         -4.0294    0.6569    4.8857 H         1 <0>         0.1422
     30 H3         -5.9323    1.6845    6.0617 H         1 <0>         0.1523
     31 H4         -6.7014   -1.9484    2.8207 H         1 <0>         0.1461
     32 H5         -4.3119   -2.3676    2.8278 H         1 <0>         0.1379
     33 H6         -3.1973   -1.2775    3.6867 H         1 <0>         0.1404
     34 H7         -2.5462   -2.1040    1.1200 H         1 <0>         0.1326
     35 H8         -1.7376   -0.6737    1.8049 H         1 <0>         0.1277
     36 H9         -3.2469   -0.8080   -0.8475 H         1 <0>         0.0998
     37 H10        -1.4833   -0.6521   -0.6367 H         1 <0>         0.1237
     38 H11        -3.7810    2.6564    0.8422 H         1 <0>         0.1152
     39 H12        -4.7399    1.3416    0.1134 H         1 <0>         0.0991
     40 H13        -4.7849    1.1194    2.5609 H         1 <0>         0.1336
     41 H14        -3.0062    1.1529    2.6214 H         1 <0>         0.1294
     42 H15        -2.7087    2.8638   -1.5053 H         1 <0>         0.1159
     43 H16        -1.7211    1.4418   -2.1409 H         1 <0>         0.1197
     44 H17         0.4714    1.6637    1.9117 H         1 <0>         0.4004
     45 H18         1.8711   -0.5661    0.8892 H         1 <0>         0.0711
     46 H19         2.6859    0.9134    0.3275 H         1 <0>         0.0731
     47 H20         2.8909    1.6911    2.6730 H         1 <0>         0.0750
     48 H21         2.0762    0.2117    3.2348 H         1 <0>         0.0725
     49 H22         4.9963    1.6395    1.9774 H         1 <0>         0.1035
     50 H23         7.1860    0.6673    2.6152 H         1 <0>         0.0752
     51 H24         6.7767   -0.1302    1.0789 H         1 <0>         0.0766
     52 H25         6.3957   -1.2258    3.8969 H         1 <0>         0.0646
     53 H26         7.4487   -1.8725    2.6134 H         1 <0>         0.0682
     54 H27         5.4102   -3.2205    2.6776 H         1 <0>         0.0670
     55 H28         5.3694   -2.2285    1.1980 H         1 <0>         0.0652
     56 H29         3.9169   -1.7132    3.8266 H         1 <0>         0.0721
     57 H30         3.1954   -2.0363    2.2332 H         1 <0>         0.0668
     58 H31        -8.6634    0.5701    6.5958 H         1 <0>         0.4090
     59 N2         -3.8613   -0.6039    1.7866 N.4       1 <0>        -0.3923
     60 H32        -4.6180   -0.8371    1.1329 H         1 <0>         0.4274
@<TRIPOS>BOND
     1    1    6 ar
     2    1    2 ar
     3    1   29 1
     4    2    3 ar
     5    2   30 1
     6    3    4 ar
     7    3   28 1
     8    4    5 ar
     9    4   27 1
    10    5    6 ar
    11    5   31 1
    12    6    7 1
    13    7   32 1
    14    7   33 1
    15    7   59 1
    16    8    9 1
    17    8   34 1
    18    8   35 1
    19    8   59 1
    20    9   10 1
    21    9   36 1
    22    9   37 1
    23   10   14 1
    24   10   11 1
    25   10   13 1
    26   11   12 1
    27   11   38 1
    28   11   39 1
    29   12   40 1
    30   12   41 1
    31   12   59 1
    32   13   14 1
    33   13   42 1
    34   13   43 1
    35   14   15 1
    36   14   16 1
    37   16   17 2
    38   16   18 am
    39   18   19 1
    40   18   44 1
    41   19   20 1
    42   19   45 1
    43   19   46 1
    44   20   21 1
    45   20   47 1
    46   20   48 1
    47   21   26 1
    48   21   22 2
    49   22   23 1
    50   22   49 1
    51   23   24 1
    52   23   50 1
    53   23   51 1
    54   24   25 1
    55   24   52 1
    56   24   53 1
    57   25   26 1
    58   25   54 1
    59   25   55 1
    60   26   56 1
    61   26   57 1
    62   28   58 1
    63   59   60 1
@<TRIPOS>MOLECULE
ZINC39533847
   65    68     0     0     0
SMALL
USER_CHARGES

@<TRIPOS>ATOM
      1 C1          0.0719    1.2728    2.0207 C.3       1 <0>        -0.1565
      2 C2          0.0671   -0.2352    1.7620 C.3       1 <0>         0.0645
      3 O1         -1.2442   -0.6473    1.3713 O.3       1 <0>        -0.3706
      4 C3         -1.3583   -2.0465    1.1045 C.3       1 <0>         0.2465
      5 H1         -0.9316   -2.6109    1.9336 H         1 <0>         0.0939
      6 C4         -2.8342   -2.4164    0.9409 C.3       1 <0>        -0.0449
      7 N1         -2.9499   -3.8508    0.6468 N.4       1 <0>        -0.3652
      8 C5         -2.2435   -4.1543   -0.6048 C.3       1 <0>        -0.0813
      9 C6         -0.7628   -3.7989   -0.4541 C.3       1 <0>         0.0439
     10 N2         -0.6345   -2.3704   -0.1330 N.3       1 <0>        -0.6999
     11 C7         -4.3678   -4.2090    0.5078 C.3       1 <0>         0.0905
     12 H2         -4.7814   -3.7195   -0.3739 H         1 <0>         0.1406
     13 C8         -4.4981   -5.7260    0.3571 C.3       1 <0>         0.0337
     14 N3         -3.9090   -6.1434   -0.9223 N.3       1 <0>        -0.6906
     15 C9         -4.0163   -7.5975   -1.1017 C.3       1 <0>         0.0966
     16 C10        -3.4028   -7.9873   -2.4218 C.ar      1 <0>        -0.1021
     17 C11        -4.1810   -8.0162   -3.5640 C.ar      1 <0>        -0.1117
     18 C12        -3.6183   -8.3738   -4.7749 C.ar      1 <0>        -0.1165
     19 C13        -2.2773   -8.7020   -4.8438 C.ar      1 <0>        -0.1086
     20 C14        -1.4988   -8.6722   -3.7018 C.ar      1 <0>        -0.1185
     21 C15        -2.0606   -8.3105   -2.4917 C.ar      1 <0>        -0.0998
     22 C16        -5.1219   -3.7592    1.7325 C.ar      1 <0>        -0.1485
     23 C17        -4.5475   -3.8939    2.9835 C.ar      1 <0>        -0.1136
     24 C18        -5.2337   -3.4836    4.1086 C.ar      1 <0>        -0.1017
     25 C19        -6.5074   -2.9329    3.9824 C.ar      1 <0>         0.0005
     26 C20        -7.0812   -2.7996    2.7197 C.ar      1 <0>        -0.1035
     27 C21        -6.3837   -3.2080    1.6009 C.ar      1 <0>        -0.0788
     28 C22        -7.2502   -2.4904    5.1884 C.ar      1 <0>        -0.0751
     29 C23        -6.6742   -2.6189    6.4506 C.ar      1 <0>        -0.1016
     30 C24        -7.3694   -2.2053    7.5689 C.ar      1 <0>        -0.1172
     31 C25        -8.6358   -1.6645    7.4383 C.ar      1 <0>        -0.1015
     32 C26        -9.2126   -1.5351    6.1878 C.ar      1 <0>        -0.1167
     33 C27        -8.5239   -1.9397    5.0622 C.ar      1 <0>        -0.1009
     34 H3          1.0721    1.5871    2.3187 H         1 <0>         0.0807
     35 H4         -0.2182    1.7984    1.1110 H         1 <0>         0.0661
     36 H5         -0.6348    1.5071    2.8168 H         1 <0>         0.0644
     37 H6          0.7739   -0.4695    0.9660 H         1 <0>         0.0696
     38 H7          0.3572   -0.7608    2.6718 H         1 <0>         0.0543
     39 H8         -3.3697   -2.1903    1.8630 H         1 <0>         0.1430
     40 H9         -3.2641   -1.8415    0.1207 H         1 <0>         0.1344
     41 H10        -2.3412   -5.2166   -0.8287 H         1 <0>         0.1942
     42 H11        -2.6765   -3.5705   -1.4171 H         1 <0>         0.1205
     43 H12        -0.3262   -4.3925    0.3491 H         1 <0>         0.0976
     44 H13        -0.2412   -4.0101   -1.3877 H         1 <0>         0.1267
     45 H14        -0.9546   -1.7976   -0.8996 H         1 <0>         0.3627
     46 H15        -3.9745   -6.2189    1.1762 H         1 <0>         0.1019
     47 H16        -5.5518   -6.0042    0.3798 H         1 <0>         0.0888
     48 H17        -4.3343   -5.6515   -1.6938 H         1 <0>         0.3542
     49 H18        -3.4893   -8.1033   -0.2927 H         1 <0>         0.0905
     50 H19        -5.0666   -7.8886   -1.0891 H         1 <0>         0.0557
     51 H20        -5.2288   -7.7598   -3.5101 H         1 <0>         0.1193
     52 H21        -4.2265   -8.3971   -5.6671 H         1 <0>         0.1257
     53 H22        -1.8378   -8.9821   -5.7897 H         1 <0>         0.1261
     54 H23        -0.4512   -8.9290   -3.7556 H         1 <0>         0.1259
     55 H24        -1.4516   -8.2836   -1.6002 H         1 <0>         0.1219
     56 H25        -3.5604   -4.3213    3.0802 H         1 <0>         0.1195
     57 H26        -4.7844   -3.5896    5.0849 H         1 <0>         0.1383
     58 H27        -8.0683   -2.3737    2.6162 H         1 <0>         0.1393
     59 H28        -6.8256   -3.1008    0.6213 H         1 <0>         0.1345
     60 H29        -5.6858   -3.0416    6.5537 H         1 <0>         0.1255
     61 H30        -6.9239   -2.3044    8.5477 H         1 <0>         0.1300
     62 H31        -9.1764   -1.3425    8.3160 H         1 <0>         0.1297
     63 H32       -10.2018   -1.1125    6.0915 H         1 <0>         0.1304
     64 H33        -8.9733   -1.8341    4.0858 H         1 <0>         0.1265
     65 H34        -2.5414   -4.3826    1.4007 H         1 <0>         0.4168
@<TRIPOS>BOND
     1    1    2 1
     2    1   34 1
     3    1   35 1
     4    1   36 1
     5    2    3 1
     6    2   37 1
     7    2   38 1
     8    3    4 1
     9    4    5 1
    10    4   10 1
    11    4    6 1
    12    6    7 1
    13    6   39 1
    14    6   40 1
    15    7    8 1
    16    7   11 1
    17    7   65 1
    18    8    9 1
    19    8   41 1
    20    8   42 1
    21    9   10 1
    22    9   43 1
    23    9   44 1
    24   10   45 1
    25   11   12 1
    26   11   13 1
    27   11   22 1
    28   13   14 1
    29   13   46 1
    30   13   47 1
    31   14   15 1
    32   14   48 1
    33   15   16 1
    34   15   49 1
    35   15   50 1
    36   16   21 ar
    37   16   17 ar
    38   17   18 ar
    39   17   51 1
    40   18   19 ar
    41   18   52 1
    42   19   20 ar
    43   19   53 1
    44   20   21 ar
    45   20   54 1
    46   21   55 1
    47   22   27 ar
    48   22   23 ar
    49   23   24 ar
    50   23   56 1
    51   24   25 ar
    52   24   57 1
    53   25   26 ar
    54   25   28 1
    55   26   27 ar
    56   26   58 1
    57   27   59 1
    58   28   33 ar
    59   28   29 ar
    60   29   30 ar
    61   29   60 1
    62   30   31 ar
    63   30   61 1
    64   31   32 ar
    65   31   62 1
    66   32   33 ar
    67   32   63 1
    68   33   64 1
@<TRIPOS>MOLECULE
ZINC59099247
   62    64     0     0     0
SMALL
USER_CHARGES

@<TRIPOS>ATOM
      1 C1         -2.1524    0.6835   -0.2969 C.3       1 <0>        -0.1220
      2 C2         -1.1240   -0.4056   -0.1317 C.ar      1 <0>        -0.0668
      3 C3         -0.2735   -0.7171   -1.1769 C.ar      1 <0>        -0.0918
      4 C4          0.6713   -1.7156   -1.0295 C.ar      1 <0>        -0.0973
      5 C5          0.7691   -2.4061    0.1632 C.ar      1 <0>        -0.0577
      6 C6         -0.0823   -2.0963    1.2149 C.ar      1 <0>         0.1219
      7 C7         -1.0278   -1.0884    1.0658 C.ar      1 <0>        -0.0405
      8 Cl1        -2.0906   -0.6922    2.3800 Cl        1 <0>        -0.0772
      9 N1          0.0144   -2.7939    2.4243 N.pl3     1 <0>        -0.6397
     10 C8         -0.0048   -4.1415    2.4283 C.2       1 <0>         0.5432
     11 S1         -0.0064   -5.0020    0.9482 S.2       1 <0>        -0.5459
     12 N2         -0.0226   -4.8118    3.5974 N.pl3     1 <0>        -0.5616
     13 C9          0.0453   -6.2752    3.6040 C.3       1 <0>         0.1895
     14 C10         1.4866   -6.7110    3.6656 C.2       1 <0>        -0.0457
     15 C11         2.1915   -6.9409    4.7880 C.2       1 <0>        -0.1873
     16 C12         3.4904   -7.3265    4.3840 C.2       1 <0>        -0.2248
     17 C13         3.5015   -7.3092    3.0390 C.2       1 <0>         0.0131
     18 O1          2.2834   -6.9413    2.6093 O.3       1 <0>        -0.1458
     19 C14         4.6792   -7.6503    2.1629 C.3       1 <0>        -0.0831
     20 C15        -0.1100   -4.0752    4.8647 C.3       1 <0>         0.1184
     21 C16         1.1528   -3.2302    5.0428 C.3       1 <0>        -0.1582
     22 C17         1.0715   -2.4474    6.3528 C.3       1 <0>         0.0599
     23 N3         -0.1465   -1.6561    6.4440 N.4       1 <0>        -0.4953
     24 C18        -1.4007   -2.3042    6.0949 C.3       1 <0>         0.0620
     25 C19        -1.3138   -3.1349    4.8190 C.3       1 <0>        -0.1742
     26 C20        -1.9317   -3.1658    7.2437 C.3       1 <0>        -0.1755
     27 C21        -2.4454   -1.1901    5.8465 C.3       1 <0>        -0.1828
     28 C22         2.2676   -1.4676    6.3762 C.3       1 <0>        -0.1822
     29 C23         1.2355   -3.3910    7.5436 C.3       1 <0>        -0.1715
     30 H1         -1.7215    1.6386    0.0036 H         1 <0>         0.0786
     31 H2         -2.4610    0.7365   -1.3409 H         1 <0>         0.0790
     32 H3         -3.0184    0.4632    0.3273 H         1 <0>         0.0733
     33 H4         -0.3479   -0.1794   -2.1106 H         1 <0>         0.1407
     34 H5          1.3335   -1.9565   -1.8479 H         1 <0>         0.1409
     35 H6          1.5071   -3.1864    0.2770 H         1 <0>         0.1482
     36 H7          0.0952   -2.3075    3.2597 H         1 <0>         0.3963
     37 H8         -0.4881   -6.6598    4.4733 H         1 <0>         0.1203
     38 H9         -0.4133   -6.6642    2.6949 H         1 <0>         0.1374
     39 H10         1.8341   -6.8481    5.8029 H         1 <0>         0.1436
     40 H11         4.3155   -7.5850    5.0312 H         1 <0>         0.1493
     41 H12         4.6670   -8.7165    1.9366 H         1 <0>         0.0878
     42 H13         4.6189   -7.0813    1.2352 H         1 <0>         0.0800
     43 H14         5.6037   -7.3999    2.6833 H         1 <0>         0.0911
     44 H15        -0.2126   -4.7855    5.6801 H         1 <0>         0.1282
     45 H16         2.0267   -3.8836    5.0635 H         1 <0>         0.1294
     46 H17         1.2458   -2.5343    4.2076 H         1 <0>         0.0877
     47 H18        -0.2245   -1.2952    7.3980 H         1 <0>         0.4314
     48 H19        -1.2189   -2.4684    3.9575 H         1 <0>         0.1025
     49 H20        -2.2280   -3.7231    4.7048 H         1 <0>         0.1279
     50 H21        -2.1758   -2.5282    8.0934 H         1 <0>         0.0894
     51 H22        -2.8272   -3.6947    6.9172 H         1 <0>         0.1077
     52 H23        -1.1703   -3.8880    7.5383 H         1 <0>         0.0841
     53 H24        -2.1073   -0.5502    5.0315 H         1 <0>         0.0756
     54 H25        -3.4016   -1.6413    5.5815 H         1 <0>         0.1107
     55 H26        -2.5632   -0.5942    6.7516 H         1 <0>         0.0917
     56 H27         2.2017   -0.7933    5.5224 H         1 <0>         0.0815
     57 H28         2.2447   -0.8883    7.2993 H         1 <0>         0.0897
     58 H29         3.1995   -2.0305    6.3236 H         1 <0>         0.1104
     59 H30         2.2439   -3.8048    7.5431 H         1 <0>         0.1094
     60 H31         1.0693   -2.8402    8.4693 H         1 <0>         0.0875
     61 H32         0.5103   -4.2012    7.4677 H         1 <0>         0.0836
     62 H33        -0.0364   -0.8286    5.8524 H         1 <0>         0.4241
@<TRIPOS>BOND
     1    1    2 1
     2    1   30 1
     3    1   31 1
     4    1   32 1
     5    2    7 ar
     6    2    3 ar
     7    3    4 ar
     8    3   33 1
     9    4    5 ar
    10    4   34 1
    11    5    6 ar
    12    5   35 1
    13    6    7 ar
    14    6    9 1
    15    7    8 1
    16    9   10 1
    17    9   36 1
    18   10   11 2
    19   10   12 1
    20   12   13 1
    21   12   20 1
    22   13   14 1
    23   13   37 1
    24   13   38 1
    25   14   18 1
    26   14   15 2
    27   15   16 1
    28   15   39 1
    29   16   17 2
    30   16   40 1
    31   17   18 1
    32   17   19 1
    33   19   41 1
    34   19   42 1
    35   19   43 1
    36   20   25 1
    37   20   21 1
    38   20   44 1
    39   21   22 1
    40   21   45 1
    41   21   46 1
    42   22   23 1
    43   22   28 1
    44   22   29 1
    45   23   24 1
    46   23   47 1
    47   23   62 1
    48   24   25 1
    49   24   26 1
    50   24   27 1
    51   25   48 1
    52   25   49 1
    53   26   50 1
    54   26   51 1
    55   26   52 1
    56   27   53 1
    57   27   54 1
    58   27   55 1
    59   28   56 1
    60   28   57 1
    61   28   58 1
    62   29   59 1
    63   29   60 1
    64   29   61 1
@<TRIPOS>MOLECULE
ZINC66886358
   70    72     0     0     0
SMALL
USER_CHARGES

@<TRIPOS>ATOM
      1 C1          0.5530   -0.1129   -0.8314 C.3       1 <0>        -0.1512
      2 C2          0.5653   -1.4505   -0.0887 C.3       1 <0>        -0.0988
      3 H1          1.2441   -2.1392   -0.5918 H         1 <0>         0.0796
      4 C3         -0.8459   -2.0414   -0.0789 C.3       1 <0>        -0.1141
      5 C4         -0.8336   -3.3790    0.6638 C.3       1 <0>        -0.1259
      6 C5         -0.3628   -3.1590    2.1028 C.3       1 <0>        -0.1190
      7 C6          1.0484   -2.5681    2.0930 C.3       1 <0>        -0.1274
      8 C7          1.0361   -1.2305    1.3504 C.3       1 <0>         0.1466
      9 H2          0.3574   -0.5418    1.8534 H         1 <0>         0.0977
     10 N1          2.3874   -0.6647    1.3410 N.am      1 <0>        -0.6966
     11 C8          2.8188    0.0674    2.3872 C.2       1 <0>         0.5035
     12 O1          2.0882    0.2577    3.3363 O.2       1 <0>        -0.5212
     13 C9          4.2088    0.6494    2.3775 C.3       1 <0>         0.0039
     14 H3          4.8797   -0.0210    1.8403 H         1 <0>         0.1567
     15 C10         4.1861    2.0125    1.6830 C.3       1 <0>        -0.1791
     16 N2          4.6814    0.8114    3.7589 N.4       1 <0>        -0.3711
     17 C11         4.7484   -0.5029    4.4089 C.3       1 <0>        -0.0061
     18 C12         5.1623   -0.3321    5.8721 C.3       1 <0>        -0.1514
     19 C13         6.5371    0.3399    5.9329 C.3       1 <0>         0.1357
     20 C14         6.4746    1.6762    5.1876 C.3       1 <0>        -0.1589
     21 C15         6.0120    1.4310    3.7497 C.3       1 <0>        -0.0076
     22 N3          6.9058    0.5755    7.3310 N.am      1 <0>        -0.7342
     23 C16         8.2045    0.6728    7.6782 C.2       1 <0>         0.5195
     24 O2          9.0678    0.5654    6.8332 O.2       1 <0>        -0.5233
     25 C17         8.5838    0.9152    9.1164 C.3       1 <0>        -0.1397
     26 C18        10.1074    0.9836    9.2375 C.3       1 <0>        -0.0710
     27 C19        10.7087   -0.3782    8.8843 C.3       1 <0>        -0.1184
     28 C20        12.2324   -0.3099    9.0053 C.3       1 <0>        -0.1185
     29 C21        12.6140    0.0594   10.4402 C.3       1 <0>        -0.1229
     30 C22        12.0127    1.4213   10.7934 C.3       1 <0>        -0.1202
     31 C23        10.4890    1.3529   10.6724 C.3       1 <0>        -0.1159
     32 H4          1.5584    0.3081   -0.8384 H         1 <0>         0.0509
     33 H5          0.2176   -0.2696   -1.8566 H         1 <0>         0.0657
     34 H6         -0.1257    0.5758   -0.3283 H         1 <0>         0.0587
     35 H7         -1.5247   -1.3527    0.4242 H         1 <0>         0.0681
     36 H8         -1.1813   -2.1981   -1.1041 H         1 <0>         0.0745
     37 H9         -1.8390   -3.8000    0.6708 H         1 <0>         0.0711
     38 H10        -0.1549   -4.0677    0.1607 H         1 <0>         0.0654
     39 H11        -1.0416   -2.4703    2.6059 H         1 <0>         0.0669
     40 H12        -0.3541   -4.1119    2.6319 H         1 <0>         0.0709
     41 H13         1.3838   -2.4114    3.1182 H         1 <0>         0.0646
     42 H14         1.7272   -3.2568    1.5900 H         1 <0>         0.0679
     43 H15         2.9717   -0.8170    0.5818 H         1 <0>         0.4085
     44 H16         3.5153    2.6829    2.2203 H         1 <0>         0.0907
     45 H17         5.1915    2.4334    1.6760 H         1 <0>         0.0989
     46 H18         3.8355    1.8922    0.6580 H         1 <0>         0.1110
     47 H19         3.7701   -0.9813    4.3620 H         1 <0>         0.1364
     48 H20         5.4811   -1.1251    3.8948 H         1 <0>         0.1321
     49 H21         4.4302    0.2898    6.3873 H         1 <0>         0.0965
     50 H22         5.2132   -1.3092    6.3525 H         1 <0>         0.1202
     51 H23         7.2793   -0.3053    5.4627 H         1 <0>         0.1052
     52 H24         5.7696    2.3397    5.6885 H         1 <0>         0.0919
     53 H25         7.4635    2.1346    5.1786 H         1 <0>         0.1199
     54 H26         6.7177    0.7676    3.2497 H         1 <0>         0.1345
     55 H27         5.9666    2.3804    3.2162 H         1 <0>         0.1393
     56 H28         6.2153    0.6615    8.0068 H         1 <0>         0.4070
     57 H29         8.1499    1.8569    9.4529 H         1 <0>         0.0972
     58 H30         8.2064    0.1002    9.7340 H         1 <0>         0.0976
     59 H31        10.4927    1.7394    8.5531 H         1 <0>         0.0781
     60 H32        10.3234   -1.1341    9.5686 H         1 <0>         0.0551
     61 H33        10.4369   -0.6413    7.8620 H         1 <0>         0.0760
     62 H34        12.6608   -1.2801    8.7536 H         1 <0>         0.0608
     63 H35        12.6177    0.4460    8.3209 H         1 <0>         0.0614
     64 H36        12.2287   -0.6964   11.1246 H         1 <0>         0.0612
     65 H37        13.6995    0.1082   10.5264 H         1 <0>         0.0624
     66 H38        12.2845    1.6844   11.8156 H         1 <0>         0.0643
     67 H39        12.3980    2.1771   10.1090 H         1 <0>         0.0621
     68 H40        10.0606    2.3231   10.9240 H         1 <0>         0.0624
     69 H41        10.1037    0.5971   11.3567 H         1 <0>         0.0637
     70 H42         4.0397    1.4027    4.2657 H         1 <0>         0.4302
@<TRIPOS>BOND
     1    1    2 1
     2    1   32 1
     3    1   33 1
     4    1   34 1
     5    2    3 1
     6    2    8 1
     7    2    4 1
     8    4    5 1
     9    4   35 1
    10    4   36 1
    11    5    6 1
    12    5   37 1
    13    5   38 1
    14    6    7 1
    15    6   39 1
    16    6   40 1
    17    7    8 1
    18    7   41 1
    19    7   42 1
    20    8    9 1
    21    8   10 1
    22   10   11 am
    23   10   43 1
    24   11   12 2
    25   11   13 1
    26   13   14 1
    27   13   15 1
    28   13   16 1
    29   15   44 1
    30   15   45 1
    31   15   46 1
    32   16   21 1
    33   16   17 1
    34   16   70 1
    35   17   18 1
    36   17   47 1
    37   17   48 1
    38   18   19 1
    39   18   49 1
    40   18   50 1
    41   19   20 1
    42   19   22 1
    43   19   51 1
    44   20   21 1
    45   20   52 1
    46   20   53 1
    47   21   54 1
    48   21   55 1
    49   22   23 am
    50   22   56 1
    51   23   24 2
    52   23   25 1
    53   25   26 1
    54   25   57 1
    55   25   58 1
    56   26   31 1
    57   26   27 1
    58   26   59 1
    59   27   28 1
    60   27   60 1
    61   27   61 1
    62   28   29 1
    63   28   62 1
    64   28   63 1
    65   29   30 1
    66   29   64 1
    67   29   65 1
    68   30   31 1
    69   30   66 1
    70   30   67 1
    71   31   68 1
    72   31   69 1
@<TRIPOS>MOLECULE
ZINC12309667
   58    60     0     0     0
SMALL
USER_CHARGES
1,3-dimethyl-5-[2-(1-piperidyl)ethoxyimino]-6-propyl-8H-pyrido[3,2-e]pyrimidine-2,4-dione
@<TRIPOS>ATOM
      1 C1          2.8605    9.2975   -0.6126 C.3       1 <0>        -0.1632
      2 C2          2.7276    7.8009   -0.3235 C.3       1 <0>        -0.1292
      3 C3          1.3333    7.3240   -0.7350 C.3       1 <0>        -0.0781
      4 C4          1.2023    5.8499   -0.4503 C.ar      1 <0>        -0.1786
      5 C5          2.2751    5.0438   -0.4978 C.ar      1 <0>         0.2025
      6 N1          2.1833    3.7027   -0.2375 N.ar      1 <0>        -0.5889
      7 H1          3.0946    3.1141   -0.0557 H         1 <0>         0.4814
      8 C6          0.9883    3.0557   -0.1936 C.ar      1 <0>         0.5145
      9 C7         -0.1939    3.7876   -0.1247 C.ar      1 <0>        -0.3261
     10 C8         -0.1085    5.2600   -0.1124 C.ar      1 <0>         0.4238
     11 N2         -1.1464    6.0090    0.1843 N.pl3     1 <0>        -0.4875
     12 O1         -2.2059    5.4762    0.9581 O.3       1 <0>        -0.1090
     13 C9         -3.3136    6.3650    1.1170 C.3       1 <0>        -0.0088
     14 C10        -4.3367    5.7399    2.0674 C.3       1 <0>         0.0094
     15 N3         -3.7369    5.5846    3.3993 N.4       1 <0>        -0.4020
     16 C11        -4.4699    4.5908    4.1940 C.3       1 <0>        -0.0055
     17 C12        -3.7352    4.3492    5.5145 C.3       1 <0>        -0.1466
     18 C13        -3.6308    5.6690    6.2838 C.3       1 <0>        -0.1431
     19 C14        -2.9061    6.7010    5.4153 C.3       1 <0>        -0.1454
     20 C15        -3.6649    6.8744    4.0976 C.3       1 <0>        -0.0104
     21 C16        -1.4322    3.1072   -0.0699 C.2       1 <0>         0.5799
     22 O2         -2.4784    3.7269   -0.0058 O.2       1 <0>        -0.4777
     23 N4         -1.4326    1.7565   -0.0951 N.am      1 <0>        -0.5520
     24 C17        -0.2790    1.0696   -0.1601 C.2       1 <0>         0.7016
     25 O3         -0.3165   -0.1454   -0.1781 O.2       1 <0>        -0.4794
     26 N5          0.9158    1.6866   -0.2114 N.am      1 <0>        -0.5255
     27 C18         2.1444    0.8920   -0.2859 C.3       1 <0>         0.0350
     28 C19        -2.7048    1.0318   -0.0455 C.3       1 <0>         0.0712
     29 H2          3.8629    9.6405   -0.3168 H         1 <0>         0.0699
     30 H3          2.1003    9.8502   -0.0411 H         1 <0>         0.0591
     31 H4          2.7138    9.4777   -1.6878 H         1 <0>         0.0642
     32 H5          3.4878    7.2482   -0.8950 H         1 <0>         0.0744
     33 H6          2.8744    7.6207    0.7517 H         1 <0>         0.0746
     34 H7          0.5732    7.8768   -0.1635 H         1 <0>         0.0811
     35 H8          1.1866    7.5043   -1.8102 H         1 <0>         0.1067
     36 H9          3.2375    5.4652   -0.7481 H         1 <0>         0.2161
     37 H10        -2.9608    7.3196    1.5344 H         1 <0>         0.0965
     38 H11        -3.7834    6.5439    0.1386 H         1 <0>         0.1247
     39 H12        -5.2194    6.3926    2.1366 H         1 <0>         0.1586
     40 H13        -4.6388    4.7541    1.6841 H         1 <0>         0.1513
     41 H14        -5.4839    4.9631    4.4019 H         1 <0>         0.1325
     42 H15        -4.5338    3.6471    3.6325 H         1 <0>         0.1316
     43 H16        -4.2927    3.6156    6.1154 H         1 <0>         0.1171
     44 H17        -2.7264    3.9627    5.3074 H         1 <0>         0.0845
     45 H18        -4.6402    6.0332    6.5257 H         1 <0>         0.0858
     46 H19        -3.0665    5.5075    7.2141 H         1 <0>         0.0979
     47 H20        -2.8654    7.6634    5.9465 H         1 <0>         0.1163
     48 H21        -1.8834    6.3528    5.2085 H         1 <0>         0.0845
     49 H22        -3.1387    7.6047    3.4654 H         1 <0>         0.1253
     50 H23        -4.6827    7.2359    4.3060 H         1 <0>         0.1337
     51 H24         1.8893   -0.1780   -0.2898 H         1 <0>         0.1379
     52 H25         2.7784    1.1147    0.5850 H         1 <0>         0.1010
     53 H26         2.6878    1.1428   -1.2088 H         1 <0>         0.1045
     54 H27        -2.5115   -0.0507   -0.0753 H         1 <0>         0.1140
     55 H28        -3.3235    1.3177   -0.9089 H         1 <0>         0.0929
     56 H29        -3.2345    1.2842    0.8849 H         1 <0>         0.0859
     57 H30        -2.7087    5.2165    3.2679 H         1 <0>         0.4382
     58 H31        -1.1923    7.0499   -0.1684 H         1 <0>         0.4767
@<TRIPOS>BOND
     1    1    2 1
     2    1   29 1
     3    1   30 1
     4    1   31 1
     5    2    3 1
     6    2   32 1
     7    2   33 1
     8    3    4 1
     9    3   34 1
    10    3   35 1
    11    4   10 ar
    12    4    5 ar
    13    5    6 ar
    14    5   36 1
    15    6    7 1
    16    6    8 ar
    17    8   26 1
    18    8    9 ar
    19    9   10 ar
    20    9   21 1
    21   10   11 1
    22   11   12 1
    23   11   58 1
    24   12   13 1
    25   13   14 1
    26   13   37 1
    27   13   38 1
    28   14   15 1
    29   14   39 1
    30   14   40 1
    31   15   20 1
    32   15   16 1
    33   15   57 1
    34   16   17 1
    35   16   41 1
    36   16   42 1
    37   17   18 1
    38   17   43 1
    39   17   44 1
    40   18   19 1
    41   18   45 1
    42   18   46 1
    43   19   20 1
    44   19   47 1
    45   19   48 1
    46   20   49 1
    47   20   50 1
    48   21   22 2
    49   21   23 am
    50   23   24 am
    51   23   28 1
    52   24   25 2
    53   24   26 am
    54   26   27 1
    55   27   51 1
    56   27   52 1
    57   27   53 1
    58   28   54 1
    59   28   55 1
    60   28   56 1
@<TRIPOS>MOLECULE
ZINC39695529
   70    72     0     0     0
SMALL
USER_CHARGES

@<TRIPOS>ATOM
      1 C1          1.9127    1.5394    0.8659 C.3       1 <0>        -0.1549
      2 C2          2.0205    0.0316    0.6295 C.3       1 <0>        -0.1149
      3 C3          0.7857   -0.6645    1.2053 C.3       1 <0>        -0.0976
      4 C4         -0.4572   -0.2212    0.4308 C.3       1 <0>        -0.1164
      5 C5         -1.7062   -0.8071    1.0923 C.3       1 <0>        -0.1458
      6 C6          0.9479   -2.1577    1.0828 C.2       1 <0>         0.5526
      7 O1          0.6354   -2.7193    0.0542 O.2       1 <0>        -0.5215
      8 N1          1.4403   -2.8691    2.1162 N.am      1 <0>        -0.6218
      9 C7          1.9575   -2.3568    3.4069 C.3       1 <0>         0.1138
     10 C8          1.4463   -3.3652    4.4602 C.3       1 <0>        -0.1142
     11 H1          2.1993   -3.5217    5.2326 H         1 <0>         0.1179
     12 C9          1.2066   -4.6654    3.6746 C.3       1 <0>        -0.0743
     13 C10         1.5808   -4.3414    2.2209 C.3       1 <0>         0.1035
     14 C11         2.0968   -5.7806    4.2143 C.3       1 <0>        -0.1314
     15 C12         1.7987   -7.0773    3.4563 C.3       1 <0>        -0.0136
     16 N2          0.3836   -7.4297    3.6231 N.4       1 <0>        -0.5039
     17 C13        -0.4645   -6.3954    3.0183 C.3       1 <0>        -0.0129
     18 C14        -0.2622   -5.0699    3.7580 C.3       1 <0>        -0.1418
     19 C15         0.1600   -2.8757    5.0742 C.2       1 <0>         0.5213
     20 O2         -0.6301   -2.2448    4.4045 O.2       1 <0>        -0.4864
     21 N3         -0.1122   -3.1391    6.3677 N.am      1 <0>        -0.7559
     22 C16        -1.3626   -2.6633    6.9646 C.3       1 <0>         0.0973
     23 C17        -1.4236   -3.0937    8.4316 C.3       1 <0>         0.0107
     24 H2         -0.6403   -2.5903    8.9984 H         1 <0>         0.1502
     25 C18        -2.8057   -2.7463    9.0236 C.3       1 <0>        -0.1339
     26 C19        -3.5823   -4.0843    8.9067 C.3       1 <0>        -0.1435
     27 C20        -2.4634   -5.1203    9.1795 C.3       1 <0>        -0.0108
     28 N4         -1.2559   -4.5550    8.5330 N.4       1 <0>        -0.3944
     29 C21        -0.0687   -4.8614    9.3421 C.3       1 <0>        -0.0153
     30 C22         0.1729   -6.3723    9.3413 C.3       1 <0>        -0.1862
     31 H3          1.8508    1.7359    1.9362 H         1 <0>         0.0548
     32 H4          2.7924    2.0353    0.4557 H         1 <0>         0.0645
     33 H5          1.0180    1.9212    0.3741 H         1 <0>         0.0639
     34 H6          2.0824   -0.1649   -0.4408 H         1 <0>         0.0749
     35 H7          2.9152   -0.3502    1.1213 H         1 <0>         0.0629
     36 H8          0.6740   -0.3961    2.2558 H         1 <0>         0.0896
     37 H9         -0.5197    0.8669    0.4362 H         1 <0>         0.0807
     38 H10        -0.3902   -0.5763   -0.5976 H         1 <0>         0.0779
     39 H11        -2.5833   -0.5625    0.4932 H         1 <0>         0.0595
     40 H12        -1.6054   -1.8901    1.1637 H         1 <0>         0.0448
     41 H13        -1.8196   -0.3862    2.0913 H         1 <0>         0.0531
     42 H14         3.0472   -2.3360    3.3983 H         1 <0>         0.0947
     43 H15         1.5591   -1.3624    3.6081 H         1 <0>         0.0986
     44 H16         0.8970   -4.8387    1.5330 H         1 <0>         0.0892
     45 H17         2.6093   -4.6407    2.0192 H         1 <0>         0.0863
     46 H18         3.1435   -5.5103    4.0753 H         1 <0>         0.1258
     47 H19         1.8957   -5.9252    5.2758 H         1 <0>         0.0908
     48 H20         2.0155   -6.9369    2.3974 H         1 <0>         0.1378
     49 H21         2.4217   -7.8800    3.8509 H         1 <0>         0.1438
     50 H22         0.2037   -8.3152    3.1741 H         1 <0>         0.4391
     51 H23        -0.1938   -6.2711    1.9698 H         1 <0>         0.1397
     52 H24        -1.5099   -6.6953    3.0901 H         1 <0>         0.1402
     53 H25        -0.5480   -5.1890    4.8030 H         1 <0>         0.0801
     54 H26        -0.8788   -4.2982    3.2971 H         1 <0>         0.1271
     55 H27         0.5197   -3.6437    6.9033 H         1 <0>         0.3940
     56 H28        -1.4040   -1.5758    6.9030 H         1 <0>         0.1197
     57 H29        -2.2082   -3.0902    6.4253 H         1 <0>         0.0978
     58 H30        -2.7132   -2.4443   10.0668 H         1 <0>         0.1111
     59 H31        -3.2912   -1.9663    8.4371 H         1 <0>         0.1204
     60 H32        -4.3660   -4.1481    9.6615 H         1 <0>         0.1249
     61 H33        -3.9951   -4.2099    7.9057 H         1 <0>         0.0988
     62 H34        -2.3016   -5.2305   10.2518 H         1 <0>         0.1388
     63 H35        -2.7188   -6.0811    8.7327 H         1 <0>         0.1343
     64 H36         0.7991   -4.3545    8.9203 H         1 <0>         0.1254
     65 H37        -0.2278   -4.5195   10.3647 H         1 <0>         0.1385
     66 H38         1.0538   -6.5996    9.9416 H         1 <0>         0.1114
     67 H39        -0.6950   -6.8792    9.7631 H         1 <0>         0.0848
     68 H40         0.3320   -6.7142    8.3186 H         1 <0>         0.0711
     69 H41         0.1707   -7.5048    4.6065 H         1 <0>         0.4211
     70 H42        -1.1477   -4.9492    7.6105 H         1 <0>         0.4124
@<TRIPOS>BOND
     1    1    2 1
     2    1   31 1
     3    1   32 1
     4    1   33 1
     5    2    3 1
     6    2   34 1
     7    2   35 1
     8    3    4 1
     9    3    6 1
    10    3   36 1
    11    4    5 1
    12    4   37 1
    13    4   38 1
    14    5   39 1
    15    5   40 1
    16    5   41 1
    17    6    7 2
    18    6    8 am
    19    8   13 1
    20    8    9 1
    21    9   10 1
    22    9   42 1
    23    9   43 1
    24   10   11 1
    25   10   12 1
    26   10   19 1
    27   12   18 1
    28   12   13 1
    29   12   14 1
    30   13   44 1
    31   13   45 1
    32   14   15 1
    33   14   46 1
    34   14   47 1
    35   15   16 1
    36   15   48 1
    37   15   49 1
    38   16   17 1
    39   16   50 1
    40   16   69 1
    41   17   18 1
    42   17   51 1
    43   17   52 1
    44   18   53 1
    45   18   54 1
    46   19   20 2
    47   19   21 am
    48   21   22 1
    49   21   55 1
    50   22   23 1
    51   22   56 1
    52   22   57 1
    53   23   24 1
    54   23   28 1
    55   23   25 1
    56   25   26 1
    57   25   58 1
    58   25   59 1
    59   26   27 1
    60   26   60 1
    61   26   61 1
    62   27   28 1
    63   27   62 1
    64   27   63 1
    65   28   29 1
    66   28   70 1
    67   29   30 1
    68   29   64 1
    69   29   65 1
    70   30   66 1
    71   30   67 1
    72   30   68 1
@<TRIPOS>MOLECULE
ZINC63529250
   44    46     0     0     0
SMALL
USER_CHARGES

@<TRIPOS>ATOM
      1 C1         -0.0187    1.5258    0.0104 C.3       1 <0>        -0.1405
      2 C2          0.0021   -0.0041    0.0020 C.3       1 <0>         0.0697
      3 H1         -1.0130   -0.4006    0.0221 H         1 <0>         0.0801
      4 C3          0.7681   -0.5313   -1.2326 C.3       1 <0>        -0.0635
      5 H2          1.4508    0.2299   -1.6103 H         1 <0>         0.1213
      6 C4          1.5562   -1.7484   -0.7073 C.3       1 <0>         0.0733
      7 H3          2.6274   -1.5786   -0.8166 H         1 <0>         0.0755
      8 N1          1.2014   -1.8693    0.7252 N.3       1 <0>        -0.3581
      9 N2          0.7899   -0.5234    1.1511 N.3       1 <0>        -0.5164
     10 C5          2.3466   -2.3445    1.5130 C.3       1 <0>         0.0336
     11 C6          1.9156   -2.5722    2.9390 C.2       1 <0>         0.5302
     12 O1          0.7675   -2.3595    3.2668 O.2       1 <0>        -0.4742
     13 N3          2.8061   -3.0121    3.8500 N.am      1 <0>        -0.7704
     14 C7          2.3871   -3.2334    5.2363 C.3       1 <0>         0.1037
     15 C8          3.5799   -3.7284    6.0568 C.3       1 <0>         0.2434
     16 N4          4.6843   -2.7644    5.9726 N.pl3     1 <0>        -0.4664
     17 C9          5.6994   -3.3792    5.4378 C.ar      1 <0>         0.3170
     18 C10         7.0638   -2.9493    5.1019 C.ar      1 <0>        -0.1397
     19 C11         7.9189   -3.8280    4.5415 C.ar      1 <0>         0.0383
     20 C12         7.5615   -5.1582    4.2580 C.ar      1 <0>         0.0376
     21 C13         6.3370   -5.6545    4.5254 C.ar      1 <0>        -0.1391
     22 C14         5.3212   -4.7873    5.1382 C.ar      1 <0>         0.3173
     23 N5          4.0869   -4.9886    5.4993 N.pl3     1 <0>        -0.4658
     24 C15         1.1425   -3.0121   -1.4641 C.3       1 <0>        -0.1505
     25 Br1        -0.4914   -1.0800   -2.6389 Br        1 <0>        -0.1118
     26 H4          1.0039    1.9031    0.0027 H         1 <0>         0.0662
     27 H5         -0.5459    1.8868   -0.8726 H         1 <0>         0.0764
     28 H6         -0.5289    1.8773    0.9072 H         1 <0>         0.0674
     29 H7          0.2268   -0.5624    1.9874 H         1 <0>         0.3622
     30 H8          2.7149   -3.2796    1.0910 H         1 <0>         0.1150
     31 H9          3.1399   -1.5973    1.4880 H         1 <0>         0.0836
     32 H10         3.7244   -3.1822    3.5879 H         1 <0>         0.3874
     33 H11         2.0189   -2.2983    5.6583 H         1 <0>         0.1508
     34 H12         1.5939   -3.9806    5.2612 H         1 <0>         0.1501
     35 H13         3.2851   -3.8710    7.0964 H         1 <0>         0.2550
     36 H14         7.3793   -1.9361    5.3023 H         1 <0>         0.2074
     37 H15         8.9183   -3.4970    4.3004 H         1 <0>         0.2056
     38 H16         8.2973   -5.8080    3.8078 H         1 <0>         0.2056
     39 H17         6.1040   -6.6826    4.2907 H         1 <0>         0.2076
     40 H18         1.3503   -2.8838   -2.5264 H         1 <0>         0.0820
     41 H19         1.7060   -3.8641   -1.0839 H         1 <0>         0.0563
     42 H20         0.0764   -3.1886   -1.3212 H         1 <0>         0.0801
     43 H21         4.6615   -1.8389    6.2620 H         1 <0>         0.4984
     44 H22         3.5927   -5.8190    5.4157 H         1 <0>         0.4985
@<TRIPOS>BOND
     1    1    2 1
     2    1   26 1
     3    1   27 1
     4    1   28 1
     5    2    3 1
     6    2    9 1
     7    2    4 1
     8    4    5 1
     9    4    6 1
    10    4   25 1
    11    6    7 1
    12    6    8 1
    13    6   24 1
    14    8    9 1
    15    8   10 1
    16    9   29 1
    17   10   11 1
    18   10   30 1
    19   10   31 1
    20   11   12 2
    21   11   13 am
    22   13   14 1
    23   13   32 1
    24   14   15 1
    25   14   33 1
    26   14   34 1
    27   15   23 1
    28   15   16 1
    29   15   35 1
    30   16   17 2
    31   16   43 1
    32   17   22 ar
    33   17   18 ar
    34   18   19 ar
    35   18   36 1
    36   19   20 ar
    37   19   37 1
    38   20   21 ar
    39   20   38 1
    40   21   22 ar
    41   21   39 1
    42   22   23 2
    43   23   44 1
    44   24   40 1
    45   24   41 1
    46   24   42 1
@<TRIPOS>MOLECULE
ZINC65305720
   47    49     0     0     0
SMALL
USER_CHARGES

@<TRIPOS>ATOM
      1 C1         -0.0184    1.5028    0.0103 C.3       1 <0>        -0.1221
      2 C2          0.0021   -0.0041    0.0020 C.ar      1 <0>        -0.0731
      3 C3          0.0057   -0.6887   -1.1989 C.ar      1 <0>        -0.1178
      4 C4          0.0245   -2.0709   -1.2065 C.ar      1 <0>        -0.0987
      5 C5          0.0400   -2.7685   -0.0132 C.ar      1 <0>        -0.0913
      6 C6          0.0373   -2.0839    1.1877 C.ar      1 <0>        -0.1007
      7 C7          0.0229   -0.7016    1.1953 C.ar      1 <0>        -0.1192
      8 C8          0.0595   -4.2753   -0.0215 C.3       1 <0>        -0.0943
      9 C9          1.4866   -4.7592   -0.0320 C.2       1 <0>         0.5241
     10 O1          2.3982   -3.9593   -0.0328 O.2       1 <0>        -0.5094
     11 N1          1.7500   -6.0810   -0.0407 N.am      1 <0>        -0.7300
     12 C10         3.1373   -6.5514   -0.0509 C.3       1 <0>         0.1404
     13 H1          3.7550   -5.8741    0.5388 H         1 <0>         0.1340
     14 C11         3.6527   -6.5883   -1.4910 C.3       1 <0>        -0.1703
     15 C12         3.2029   -7.9355    0.5417 C.2       1 <0>         0.5307
     16 O2          2.1903   -8.4757    0.9340 O.2       1 <0>        -0.4762
     17 N2          4.3866   -8.5729    0.6357 N.am      1 <0>        -0.7249
     18 C13         4.4503   -9.9184    1.2118 C.3       1 <0>         0.4793
     19 N3          4.3797   -9.8433    2.6765 N.pl3     1 <0>        -0.4775
     20 C14         5.4798  -10.3557    3.1473 C.ar      1 <0>         0.3370
     21 C15         5.9833  -10.5578    4.5129 C.ar      1 <0>        -0.1367
     22 C16         7.1900  -11.1292    4.6990 C.ar      1 <0>         0.0341
     23 C17         8.0036  -11.5476    3.6310 C.ar      1 <0>         0.0564
     24 C18         7.6378  -11.4086    2.3410 C.ar      1 <0>        -0.1476
     25 C19         6.3407  -10.7990    2.0169 C.ar      1 <0>         0.3478
     26 N4          5.7396  -10.5435    0.8909 N.pl3     1 <0>        -0.4900
     27 H2          1.0042    1.8801    0.0026 H         1 <0>         0.0741
     28 H3         -0.5455    1.8639   -0.8728 H         1 <0>         0.0706
     29 H4         -0.5286    1.8543    0.9071 H         1 <0>         0.0699
     30 H5         -0.0064   -0.1436   -2.1312 H         1 <0>         0.1259
     31 H6          0.0266   -2.6057   -2.1448 H         1 <0>         0.1196
     32 H7          0.0491   -2.6289    2.1200 H         1 <0>         0.1171
     33 H8          0.0245   -0.1667    2.1335 H         1 <0>         0.1247
     34 H9         -0.4447   -4.6501    0.8693 H         1 <0>         0.1078
     35 H10        -0.4546   -4.6404   -0.9106 H         1 <0>         0.1099
     36 H11         1.0209   -6.7208   -0.0401 H         1 <0>         0.4144
     37 H12         3.0350   -7.2657   -2.0807 H         1 <0>         0.0760
     38 H13         3.6053   -5.5873   -1.9197 H         1 <0>         0.0985
     39 H14         4.6850   -6.9383   -1.4987 H         1 <0>         0.0704
     40 H15         5.1964   -8.1408    0.3220 H         1 <0>         0.4395
     41 H16         3.6328  -10.5285    0.8278 H         1 <0>         0.2478
     42 H17         5.3907  -10.2503    5.3618 H         1 <0>         0.2091
     43 H18         7.5463  -11.2710    5.7086 H         1 <0>         0.2077
     44 H19         8.9598  -11.9978    3.8531 H         1 <0>         0.2086
     45 H20         8.2938  -11.7432    1.5509 H         1 <0>         0.2106
     46 H21         3.6475   -9.4785    3.1978 H         1 <0>         0.4947
     47 H22         6.0807  -10.7319    0.0026 H         1 <0>         0.4990
@<TRIPOS>BOND
     1    1    2 1
     2    1   27 1
     3    1   28 1
     4    1   29 1
     5    2    7 ar
     6    2    3 ar
     7    3    4 ar
     8    3   30 1
     9    4    5 ar
    10    4   31 1
    11    5    6 ar
    12    5    8 1
    13    6    7 ar
    14    6   32 1
    15    7   33 1
    16    8    9 1
    17    8   34 1
    18    8   35 1
    19    9   10 2
    20    9   11 am
    21   11   12 1
    22   11   36 1
    23   12   13 1
    24   12   14 1
    25   12   15 1
    26   14   37 1
    27   14   38 1
    28   14   39 1
    29   15   16 2
    30   15   17 am
    31   17   18 1
    32   17   40 1
    33   18   26 1
    34   18   19 1
    35   18   41 1
    36   19   20 2
    37   19   46 1
    38   20   25 ar
    39   20   21 ar
    40   21   22 ar
    41   21   42 1
    42   22   23 ar
    43   22   43 1
    44   23   24 ar
    45   23   44 1
    46   24   25 ar
    47   24   45 1
    48   25   26 2
    49   26   47 1
@<TRIPOS>MOLECULE
ZINC66411660
   56    58     0     0     0
SMALL
USER_CHARGES

@<TRIPOS>ATOM
      1 C1          0.4055    1.4771    0.0280 C.3       1 <0>        -0.1508
      2 C2          0.2035   -0.0162    0.0104 C.ar      1 <0>         0.2450
      3 C3          0.2167   -0.7092   -1.1842 C.ar      1 <0>        -0.2541
      4 C4          0.0256   -2.0919   -1.1504 C.ar      1 <0>         0.4947
      5 N1         -0.1609   -2.6871    0.0242 N.ar      1 <0>        -0.5246
      6 C5         -0.1659   -1.9864    1.1398 C.ar      1 <0>         0.4541
      7 N2          0.0165   -0.6812    1.1417 N.ar      1 <0>        -0.5292
      8 C6         -0.3805   -2.6979    2.4508 C.3       1 <0>        -0.0627
      9 C7          0.9746   -3.0220    3.0830 C.3       1 <0>        -0.1550
     10 C8         -1.1813   -1.7982    3.3943 C.3       1 <0>        -0.1714
     11 N3          0.0298   -2.8319   -2.3217 N.pl3     1 <0>        -0.5830
     12 C9          0.0443   -4.3025   -2.2872 C.3       1 <0>         0.0855
     13 C10        -1.0734   -4.8207   -3.1983 C.3       1 <0>        -0.0214
     14 N4         -0.9168   -4.2443   -4.5397 N.4       1 <0>        -0.3867
     15 C11        -1.0970   -2.7881   -4.4825 C.3       1 <0>        -0.0277
     16 C12         0.0138   -2.1693   -3.6350 C.3       1 <0>         0.0850
     17 C13        -1.9213   -4.8252   -5.4406 C.3       1 <0>        -0.0059
     18 C14        -1.6814   -4.3207   -6.8650 C.3       1 <0>        -0.1705
     19 C15        -2.7276   -4.9257   -7.8032 C.3       1 <0>         0.1245
     20 N5         -2.4979   -4.4427   -9.1671 N.am      1 <0>        -0.5820
     21 C16        -3.0495   -3.3237   -9.6769 C.2       1 <0>         0.5227
     22 O1         -3.8008   -2.5560   -9.1148 O.2       1 <0>        -0.4625
     23 C17        -2.5343   -3.2241  -11.0990 C.3       1 <0>         0.0579
     24 N6         -1.6713   -4.4098  -11.2385 N.am      1 <0>        -0.7208
     25 C18        -1.7102   -5.0549  -10.0586 C.2       1 <0>         0.6988
     26 O2         -1.1004   -6.0809   -9.8291 O.2       1 <0>        -0.5376
     27 H1          1.4688    1.6989    0.1187 H         1 <0>         0.1279
     28 H2          0.0224    1.9065   -0.8977 H         1 <0>         0.1236
     29 H3         -0.1287    1.9060    0.8759 H         1 <0>         0.1090
     30 H4          0.3705   -0.1944   -2.1211 H         1 <0>         0.1888
     31 H5         -0.9306   -3.6226    2.2765 H         1 <0>         0.1390
     32 H6          0.8194   -3.5366    4.0312 H         1 <0>         0.1001
     33 H7          1.5451   -3.6630    2.4108 H         1 <0>         0.0739
     34 H8          1.5247   -2.0973    3.2572 H         1 <0>         0.0656
     35 H9         -2.1467   -1.5673    2.9439 H         1 <0>         0.0745
     36 H10        -1.3365   -2.3128    4.3425 H         1 <0>         0.1057
     37 H11        -0.6312   -0.8735    3.5686 H         1 <0>         0.0632
     38 H12         1.0071   -4.6678   -2.6446 H         1 <0>         0.1139
     39 H13        -0.1256   -4.6466   -1.2670 H         1 <0>         0.1487
     40 H14        -1.0169   -5.9074   -3.2608 H         1 <0>         0.1579
     41 H15        -2.0406   -4.5299   -2.7884 H         1 <0>         0.1395
     42 H16        -1.0579   -2.3772   -5.4913 H         1 <0>         0.1573
     43 H17        -2.0635   -2.5589   -4.0337 H         1 <0>         0.1412
     44 H18        -0.1763   -1.1039   -3.5055 H         1 <0>         0.1378
     45 H19         0.9735   -2.3155   -4.1308 H         1 <0>         0.1191
     46 H20        -1.8411   -5.9120   -5.4217 H         1 <0>         0.1455
     47 H21        -2.9178   -4.5287   -5.1131 H         1 <0>         0.1387
     48 H22        -1.7617   -3.2338   -6.8838 H         1 <0>         0.0926
     49 H23        -0.6850   -4.6172   -7.1924 H         1 <0>         0.0996
     50 H24        -2.6474   -6.0126   -7.7844 H         1 <0>         0.1110
     51 H25        -3.7241   -4.6292   -7.4758 H         1 <0>         0.1071
     52 H26        -3.3598   -3.2649  -11.8097 H         1 <0>         0.1344
     53 H27        -1.9554   -2.3105  -11.2341 H         1 <0>         0.1318
     54 H28        -1.1704   -4.6726  -12.0265 H         1 <0>         0.4497
     55 H29         0.0105   -0.1993    1.9835 H         1 <0>         0.4524
     56 H30         0.0062   -4.4543   -4.8891 H         1 <0>         0.4284
@<TRIPOS>BOND
     1    1    2 1
     2    1   27 1
     3    1   28 1
     4    1   29 1
     5    2    7 ar
     6    2    3 ar
     7    3    4 ar
     8    3   30 1
     9    4    5 ar
    10    4   11 1
    11    5    6 ar
    12    6    7 ar
    13    6    8 1
    14    7   55 1
    15    8    9 1
    16    8   10 1
    17    8   31 1
    18    9   32 1
    19    9   33 1
    20    9   34 1
    21   10   35 1
    22   10   36 1
    23   10   37 1
    24   11   16 1
    25   11   12 1
    26   12   13 1
    27   12   38 1
    28   12   39 1
    29   13   14 1
    30   13   40 1
    31   13   41 1
    32   14   15 1
    33   14   17 1
    34   14   56 1
    35   15   16 1
    36   15   42 1
    37   15   43 1
    38   16   44 1
    39   16   45 1
    40   17   18 1
    41   17   46 1
    42   17   47 1
    43   18   19 1
    44   18   48 1
    45   18   49 1
    46   19   20 1
    47   19   50 1
    48   19   51 1
    49   20   25 am
    50   20   21 am
    51   21   22 2
    52   21   23 1
    53   23   24 1
    54   23   52 1
    55   23   53 1
    56   24   25 am
    57   24   54 1
    58   25   26 2
@<TRIPOS>MOLECULE
ZINC12146194
   55    57     0     0     0
SMALL
USER_CHARGES
N-[1-(4,5-dimethyl-6-oxo-1H-pyrimidin-2-yl)-4-piperidyl]-2-(3,4,5-trimethylpyrazol-1-yl)acetamide
@<TRIPOS>ATOM
      1 C1          1.7437   14.0739    6.1331 C.3       1 <0>        -0.0717
      2 C2          0.9217   13.4986    5.0086 C.2       1 <0>        -0.2360
      3 C3         -0.4736   13.4097    4.9713 C.2       1 <0>         0.0832
      4 N1         -0.8178   12.8596    3.8351 N.2       1 <0>        -0.2881
      5 N2          0.3499   12.5722    3.1165 N.pl3     1 <0>        -0.3614
      6 C4          1.4032   12.9770    3.8566 C.2       1 <0>         0.0929
      7 C5          2.8555   12.8672    3.4697 C.3       1 <0>        -0.0923
      8 C6          0.4156   11.9483    1.7927 C.3       1 <0>         0.1172
      9 C7          0.5040   10.4518    1.9464 C.2       1 <0>         0.4967
     10 O1          0.5114    9.9553    3.0529 O.2       1 <0>        -0.5127
     11 N3          0.5749    9.6652    0.8543 N.am      1 <0>        -0.7243
     12 C8          0.6608    8.2104    1.0038 C.3       1 <0>         0.1434
     13 C9          1.3346    7.6079   -0.2321 C.3       1 <0>        -0.1290
     14 C10         1.3666    6.0838   -0.0977 C.3       1 <0>         0.0797
     15 N4         -0.0043    5.5737    0.0322 N.pl3     1 <0>        -0.4800
     16 C11        -0.6553    6.1016    1.2379 C.3       1 <0>         0.0593
     17 C12        -0.7477    7.6262    1.1433 C.3       1 <0>        -0.1281
     18 C13        -0.0211    4.2048    0.0249 C.2       1 <0>         0.5661
     19 N5         -1.2141    3.5509    0.0333 N.am      1 <0>        -0.6312
     20 H1         -2.0441    4.0528    0.0442 H         1 <0>         0.4167
     21 C14        -1.2389    2.2010    0.0198 C.2       1 <0>         0.5374
     22 O2         -2.2999    1.5986    0.0211 O.2       1 <0>        -0.5335
     23 C15        -0.0184    1.5028    0.0103 C.2       1 <0>        -0.2836
     24 C16         1.1472    2.2124    0.0030 C.2       1 <0>         0.1980
     25 N6          1.1189    3.5431    0.0104 N.2       1 <0>        -0.5649
     26 C17         2.4687    1.4882   -0.0131 C.3       1 <0>        -0.1089
     27 C18         0.0021   -0.0041    0.0020 C.3       1 <0>        -0.0838
     28 C19        -1.4178   13.8731    6.0505 C.3       1 <0>        -0.0735
     29 H2          1.8945   15.1401    5.9644 H         1 <0>         0.0608
     30 H3          1.2208   13.9259    7.0780 H         1 <0>         0.0635
     31 H4          2.7104   13.5716    6.1704 H         1 <0>         0.0595
     32 H5          3.1587   13.7684    2.9367 H         1 <0>         0.0811
     33 H6          3.4632   12.7544    4.3675 H         1 <0>         0.0876
     34 H7          2.9952   11.9995    2.8250 H         1 <0>         0.0656
     35 H8          1.2962   12.3118    1.2630 H         1 <0>         0.1219
     36 H9         -0.4800   12.2031    1.2261 H         1 <0>         0.1257
     37 H10         0.5690   10.0623   -0.0306 H         1 <0>         0.4039
     38 H11         1.2457    7.9693    1.8914 H         1 <0>         0.0920
     39 H12         2.3531    7.9876   -0.3128 H         1 <0>         0.0884
     40 H13         0.7720    7.8828   -1.1244 H         1 <0>         0.0828
     41 H14         1.9416    5.8092    0.7867 H         1 <0>         0.0684
     42 H15         1.8328    5.6510   -0.9828 H         1 <0>         0.1022
     43 H16        -1.6576    5.6816    1.3230 H         1 <0>         0.0878
     44 H17        -0.0709    5.8269    2.1160 H         1 <0>         0.0645
     45 H18        -1.2169    8.0190    2.0454 H         1 <0>         0.0859
     46 H19        -1.3436    7.9014    0.2731 H         1 <0>         0.0822
     47 H20         2.7777    1.3188   -1.0445 H         1 <0>         0.0875
     48 H21         3.2199    2.0914    0.4968 H         1 <0>         0.0818
     49 H22         2.3645    0.5305    0.4969 H         1 <0>         0.0843
     50 H23         0.0168   -0.3729    1.0276 H         1 <0>         0.0668
     51 H24        -0.8878   -0.3767   -0.5053 H         1 <0>         0.0714
     52 H25         0.8920   -0.3525   -0.5222 H         1 <0>         0.0696
     53 H26        -1.6928   14.9125    5.8709 H         1 <0>         0.0772
     54 H27        -2.3142   13.2531    6.0399 H         1 <0>         0.0721
     55 H28        -0.9293   13.7891    7.0213 H         1 <0>         0.0780
@<TRIPOS>BOND
     1    1    2 1
     2    1   29 1
     3    1   30 1
     4    1   31 1
     5    2    6 2
     6    2    3 1
     7    3    4 2
     8    3   28 1
     9    4    5 1
    10    5    6 1
    11    5    8 1
    12    6    7 1
    13    7   32 1
    14    7   33 1
    15    7   34 1
    16    8    9 1
    17    8   35 1
    18    8   36 1
    19    9   10 2
    20    9   11 am
    21   11   12 1
    22   11   37 1
    23   12   17 1
    24   12   13 1
    25   12   38 1
    26   13   14 1
    27   13   39 1
    28   13   40 1
    29   14   15 1
    30   14   41 1
    31   14   42 1
    32   15   16 1
    33   15   18 1
    34   16   17 1
    35   16   43 1
    36   16   44 1
    37   17   45 1
    38   17   46 1
    39   18   25 2
    40   18   19 1
    41   19   20 1
    42   19   21 am
    43   21   22 2
    44   21   23 1
    45   23   24 2
    46   23   27 1
    47   24   25 1
    48   24   26 1
    49   26   47 1
    50   26   48 1
    51   26   49 1
    52   27   50 1
    53   27   51 1
    54   27   52 1
    55   28   53 1
    56   28   54 1
    57   28   55 1
@<TRIPOS>MOLECULE
ZINC36892661
   42    45     0     0     0
SMALL
USER_CHARGES

@<TRIPOS>ATOM
      1 C1         -0.0167    1.3779    0.0096 C.ar      1 <0>        -0.0962
      2 C2          1.1696    2.0876    0.0021 C.ar      1 <0>        -0.1119
      3 C3          2.3817    1.4145   -0.0127 C.ar      1 <0>         0.0549
      4 C4          2.4006    0.0245   -0.0177 C.ar      1 <0>         0.0515
      5 C5          1.2071   -0.6813   -0.0113 C.ar      1 <0>        -0.0952
      6 C6          0.0021   -0.0041    0.0020 C.ar      1 <0>        -0.0698
      7 C7         -1.2934   -0.7739    0.0087 C.3       1 <0>        -0.0851
      8 C8         -1.7371   -1.0229   -1.4099 C.2       1 <0>         0.5157
      9 O1         -1.0672   -0.6153   -2.3351 O.2       1 <0>        -0.5249
     10 N1         -2.8782   -1.6985   -1.6503 N.am      1 <0>        -0.5231
     11 N2         -3.2907   -1.9300   -2.9691 N.am      1 <0>        -0.5186
     12 C9         -4.4318   -2.6056   -3.2095 C.2       1 <0>         0.5689
     13 O2         -5.1033   -3.0142   -2.2819 O.2       1 <0>        -0.5305
     14 C10        -4.8664   -2.8495   -4.5989 C.ar      1 <0>        -0.1241
     15 C11        -4.0932   -2.3857   -5.6661 C.ar      1 <0>        -0.0699
     16 C12        -4.5005   -2.6139   -6.9622 C.ar      1 <0>        -0.1062
     17 C13        -5.6788   -3.3043   -7.2132 C.ar      1 <0>         0.0676
     18 C14        -6.4555   -3.7704   -6.1517 C.ar      1 <0>         0.0257
     19 C15        -6.0491   -3.5496   -4.8502 C.ar      1 <0>        -0.0356
     20 O3         -7.5500   -4.4086   -6.6605 O.3       1 <0>        -0.3026
     21 C16        -7.6458   -3.9735   -8.0296 C.3       1 <0>         0.2118
     22 O4         -6.2877   -3.6517   -8.3828 O.3       1 <0>        -0.3027
     23 O5          3.5794   -0.6560   -0.0244 O.3       1 <0>        -0.3074
     24 C17         4.7458    0.0812   -0.4063 C.3       1 <0>         0.0202
     25 C18         4.7331    1.4219    0.3404 C.3       1 <0>         0.0201
     26 O6          3.5415    2.1268   -0.0241 O.3       1 <0>        -0.3071
     27 H1         -0.9596    1.9041    0.0259 H         1 <0>         0.1324
     28 H2          1.1522    3.1675    0.0074 H         1 <0>         0.1367
     29 H3          1.2190   -1.7612   -0.0174 H         1 <0>         0.1339
     30 H4         -1.1469   -1.7274    0.5162 H         1 <0>         0.1135
     31 H5         -2.0561   -0.1973    0.5320 H         1 <0>         0.1151
     32 H6         -3.4139   -2.0245   -0.9103 H         1 <0>         0.4341
     33 H7         -2.7549   -1.6040   -3.7091 H         1 <0>         0.4323
     34 H8         -3.1763   -1.8480   -5.4749 H         1 <0>         0.1435
     35 H9         -3.9015   -2.2543   -7.7858 H         1 <0>         0.1475
     36 H10        -6.6471   -3.9135   -4.0278 H         1 <0>         0.1529
     37 H11        -8.0256   -4.7767   -8.6610 H         1 <0>         0.1378
     38 H12        -8.2810   -3.0911   -8.1075 H         1 <0>         0.0906
     39 H13         5.6402   -0.4808   -0.1375 H         1 <0>         0.1236
     40 H14         4.7323    0.2592   -1.4816 H         1 <0>         0.0785
     41 H15         4.7403    1.2438    1.4157 H         1 <0>         0.0787
     42 H16         5.6078    2.0080    0.0585 H         1 <0>         0.1235
@<TRIPOS>BOND
     1    1    6 ar
     2    1    2 ar
     3    1   27 1
     4    2    3 ar
     5    2   28 1
     6    3   26 1
     7    3    4 ar
     8    4    5 ar
     9    4   23 1
    10    5    6 ar
    11    5   29 1
    12    6    7 1
    13    7    8 1
    14    7   30 1
    15    7   31 1
    16    8    9 2
    17    8   10 am
    18   10   11 1
    19   10   32 1
    20   11   12 am
    21   11   33 1
    22   12   13 2
    23   12   14 1
    24   14   19 ar
    25   14   15 ar
    26   15   16 ar
    27   15   34 1
    28   16   17 ar
    29   16   35 1
    30   17   22 1
    31   17   18 ar
    32   18   19 ar
    33   18   20 1
    34   19   36 1
    35   20   21 1
    36   21   22 1
    37   21   37 1
    38   21   38 1
    39   23   24 1
    40   24   25 1
    41   24   39 1
    42   24   40 1
    43   25   26 1
    44   25   41 1
    45   25   42 1
@<TRIPOS>MOLECULE
ZINC49739163
   42    45     0     0     0
SMALL
USER_CHARGES

@<TRIPOS>ATOM
      1 C1         -0.0167    1.3784    0.0096 C.ar      1 <0>        -0.1074
      2 C2          1.1690    2.0900    0.0021 C.ar      1 <0>        -0.1093
      3 C3          2.3810    1.4239   -0.0067 C.ar      1 <0>        -0.1035
      4 C4          2.4077    0.0397   -0.0113 C.ar      1 <0>         0.0741
      5 C5          1.2132   -0.6772   -0.0147 C.ar      1 <0>         0.0924
      6 C6          0.0021   -0.0041    0.0020 C.ar      1 <0>        -0.1230
      7 N1          1.2490   -2.0778   -0.0542 N.am      1 <0>        -0.6567
      8 C7          2.4197   -2.6999   -0.3065 C.2       1 <0>         0.4989
      9 O1          2.4941   -3.9086   -0.2373 O.2       1 <0>        -0.4941
     10 C8          3.6346   -1.8867   -0.6753 C.3       1 <0>         0.0757
     11 H1          4.5350   -2.4259   -0.3810 H         1 <0>         0.1639
     12 O2          3.5932   -0.6268   -0.0015 O.3       1 <0>        -0.2912
     13 C9          3.6518   -1.6541   -2.1874 C.3       1 <0>         0.0953
     14 N2          4.8909   -0.9680   -2.5619 N.pl3     1 <0>        -1.1090
     15 S1          5.3604   -0.9141   -4.1490 S.o2      1 <0>         2.7007
     16 O3          6.5685   -0.1672   -4.1901 O.2       1 <0>        -0.9473
     17 O4          5.2689   -2.2427   -4.6449 O.2       1 <0>        -0.9475
     18 C10         4.1538    0.0317   -5.0174 C.ar      1 <0>        -0.6789
     19 C11         3.0532   -0.5954   -5.5714 C.ar      1 <0>        -0.0180
     20 C12         2.1054    0.1428   -6.2544 C.ar      1 <0>        -0.1333
     21 C13         2.2554    1.5156   -6.3848 C.ar      1 <0>         0.1099
     22 C14         3.3604    2.1463   -5.8258 C.ar      1 <0>         0.0313
     23 C15         4.3063    1.3999   -5.1387 C.ar      1 <0>        -0.0081
     24 O5          3.5229    3.4932   -5.9352 O.3       1 <0>        -0.3018
     25 C16         2.7488    4.1552   -6.9413 C.3       1 <0>         0.0182
     26 C17         1.3044    3.6446   -6.8500 C.3       1 <0>         0.0174
     27 O6          1.3152    2.2288   -7.0629 O.3       1 <0>        -0.3007
     28 H2         -0.9600    1.9040    0.0260 H         1 <0>         0.1335
     29 H3          1.1484    3.1698    0.0028 H         1 <0>         0.1351
     30 H4          3.3051    1.9828   -0.0104 H         1 <0>         0.1410
     31 H5         -0.9250   -0.5580    0.0088 H         1 <0>         0.1347
     32 H6          0.4419   -2.5938    0.0984 H         1 <0>         0.4194
     33 H7          3.5972   -2.6128   -2.7031 H         1 <0>         0.1079
     34 H8          2.7968   -1.0401   -2.4703 H         1 <0>         0.0788
     35 H9          5.4363   -0.5452   -1.8802 H         1 <0>         0.4266
     36 H10         2.9342   -1.6641   -5.4706 H         1 <0>         0.1503
     37 H11         1.2469   -0.3495   -6.6868 H         1 <0>         0.1469
     38 H12         5.1646    1.8879   -4.7012 H         1 <0>         0.1540
     39 H13         2.7695    5.2318   -6.7718 H         1 <0>         0.1291
     40 H14         3.1568    3.9298   -7.9266 H         1 <0>         0.0819
     41 H15         0.8984    3.8647   -5.8627 H         1 <0>         0.0839
     42 H16         0.6951    4.1267   -7.6145 H         1 <0>         0.1290
@<TRIPOS>BOND
     1    1    6 ar
     2    1    2 ar
     3    1   28 1
     4    2    3 ar
     5    2   29 1
     6    3    4 ar
     7    3   30 1
     8    4   12 1
     9    4    5 ar
    10    5    6 ar
    11    5    7 1
    12    6   31 1
    13    7    8 am
    14    7   32 1
    15    8    9 2
    16    8   10 1
    17   10   11 1
    18   10   12 1
    19   10   13 1
    20   13   14 1
    21   13   33 1
    22   13   34 1
    23   14   15 1
    24   14   35 1
    25   15   16 2
    26   15   17 2
    27   15   18 1
    28   18   23 ar
    29   18   19 ar
    30   19   20 ar
    31   19   36 1
    32   20   21 ar
    33   20   37 1
    34   21   27 1
    35   21   22 ar
    36   22   23 ar
    37   22   24 1
    38   23   38 1
    39   24   25 1
    40   25   26 1
    41   25   39 1
    42   25   40 1
    43   26   27 1
    44   26   41 1
    45   26   42 1
@<TRIPOS>MOLECULE
ZINC66177018
   41    43     0     0     0
SMALL
USER_CHARGES

@<TRIPOS>ATOM
      1 C1         -0.0184    1.5028    0.0103 C.3       1 <0>        -0.0739
      2 C2          0.0021   -0.0041    0.0020 C.2       1 <0>         0.2503
      3 N1          0.0076   -0.7759   -1.0906 N.2       1 <0>        -0.5219
      4 C3          0.0262   -2.0345   -0.7496 C.2       1 <0>         0.2752
      5 O1          0.0333   -2.1066    0.5874 O.3       1 <0>        -0.0968
      6 N2          0.0229   -0.7667    1.0572 N.2       1 <0>        -0.3320
      7 C4          0.0378   -3.2062   -1.6973 C.3       1 <0>         0.2286
      8 N3          1.4226   -3.5671   -2.0107 N.am      1 <0>        -0.7443
      9 C5          1.6791   -4.5940   -2.8451 C.2       1 <0>         0.7129
     10 O2          0.7611   -5.2208   -3.3377 O.2       1 <0>        -0.5791
     11 N4          2.9531   -4.9260   -3.1334 N.am      1 <0>        -0.7425
     12 C6          3.2318   -6.0422   -4.0404 C.3       1 <0>         0.1411
     13 C7          4.7449   -6.2066   -4.1968 C.3       1 <0>        -0.0867
     14 C8          5.0316   -7.3548   -5.1298 C.ar      1 <0>        -0.0677
     15 C9          5.1718   -8.6344   -4.6262 C.ar      1 <0>        -0.1017
     16 C10         5.4349   -9.6935   -5.4822 C.ar      1 <0>         0.0655
     17 C11         5.5557   -9.4653   -6.8476 C.ar      1 <0>         0.0588
     18 C12         5.4158   -8.1782   -7.3470 C.ar      1 <0>        -0.0298
     19 C13         5.1484   -7.1273   -6.4881 C.ar      1 <0>        -0.1003
     20 Cl1         5.5700   -7.8877   -9.0515 Cl        1 <0>        -0.0460
     21 O3          5.8061  -10.4917   -7.7061 O.3       1 <0>        -0.2945
     22 C14         6.3083  -11.7032   -7.1316 C.3       1 <0>         0.0190
     23 C15         5.4628  -12.0351   -5.8946 C.3       1 <0>         0.0188
     24 O4          5.5739  -10.9472   -4.9706 O.3       1 <0>        -0.3013
     25 H1          1.0042    1.8801    0.0026 H         1 <0>         0.0988
     26 H2         -0.5455    1.8639   -0.8728 H         1 <0>         0.0999
     27 H3         -0.5286    1.8543    0.9071 H         1 <0>         0.0934
     28 H4         -0.4624   -4.0552   -1.2315 H         1 <0>         0.1109
     29 H5         -0.4839   -2.9360   -2.6154 H         1 <0>         0.1206
     30 H6          2.1550   -3.0670   -1.6177 H         1 <0>         0.4020
     31 H7          3.6854   -4.4259   -2.7404 H         1 <0>         0.3990
     32 H8          2.8073   -6.9585   -3.6301 H         1 <0>         0.0731
     33 H9          2.7858   -5.8393   -5.0140 H         1 <0>         0.0738
     34 H10         5.1694   -5.2903   -4.6071 H         1 <0>         0.0868
     35 H11         5.1909   -6.4095   -3.2232 H         1 <0>         0.0863
     36 H12         5.0766   -8.8097   -3.5648 H         1 <0>         0.1426
     37 H13         5.0348   -6.1270   -6.8790 H         1 <0>         0.1444
     38 H14         6.2323  -12.5131   -7.8570 H         1 <0>         0.1272
     39 H15         7.3496  -11.5673   -6.8394 H         1 <0>         0.0811
     40 H16         4.4205  -12.1650   -6.1859 H         1 <0>         0.0817
     41 H17         5.8324  -12.9500   -5.4315 H         1 <0>         0.1268
@<TRIPOS>BOND
     1    1    2 1
     2    1   25 1
     3    1   26 1
     4    1   27 1
     5    2    6 2
     6    2    3 1
     7    3    4 2
     8    4    5 1
     9    4    7 1
    10    5    6 1
    11    7    8 1
    12    7   28 1
    13    7   29 1
    14    8    9 am
    15    8   30 1
    16    9   10 2
    17    9   11 am
    18   11   12 1
    19   11   31 1
    20   12   13 1
    21   12   32 1
    22   12   33 1
    23   13   14 1
    24   13   34 1
    25   13   35 1
    26   14   19 ar
    27   14   15 ar
    28   15   16 ar
    29   15   36 1
    30   16   24 1
    31   16   17 ar
    32   17   18 ar
    33   17   21 1
    34   18   19 ar
    35   18   20 1
    36   19   37 1
    37   21   22 1
    38   22   23 1
    39   22   38 1
    40   22   39 1
    41   23   24 1
    42   23   40 1
    43   23   41 1
@<TRIPOS>MOLECULE
ZINC67128135
   41    43     0     0     0
SMALL
USER_CHARGES

@<TRIPOS>ATOM
      1 C1         -0.0166    1.3740    0.0096 C.ar      1 <0>        -0.1541
      2 C2          1.1697    2.0890    0.0021 C.ar      1 <0>        -0.0471
      3 C3          2.3830    1.4293   -0.0135 C.ar      1 <0>        -0.2115
      4 C4          2.4206    0.0434   -0.0218 C.ar      1 <0>         0.1731
      5 C5          1.2225   -0.6840   -0.0138 C.ar      1 <0>        -0.0536
      6 C6          0.0021   -0.0041    0.0020 C.ar      1 <0>        -0.0308
      7 C7          1.2492   -2.1157   -0.0227 C.1       1 <0>         0.2546
      8 N1          1.2704   -3.2515   -0.0298 N.1       1 <0>        -0.4063
      9 O1          3.6121   -0.6059   -0.0380 O.3       1 <0>        -0.2831
     10 C8          4.7910    0.2016   -0.0458 C.3       1 <0>         0.0511
     11 C9          6.0083   -0.6867   -0.0637 C.2       1 <0>         0.5156
     12 O2          5.8790   -1.8925   -0.0692 O.2       1 <0>        -0.5087
     13 N2          7.2406   -0.1410   -0.0735 N.am      1 <0>        -0.5158
     14 N3          8.3722   -0.9668   -0.0902 N.am      1 <0>        -0.5198
     15 C10         9.6046   -0.4211   -0.1000 C.2       1 <0>         0.5674
     16 O3          9.7342    0.7878   -0.0945 O.2       1 <0>        -0.5127
     17 C11        10.7963   -1.2908   -0.1175 C.ar      1 <0>        -0.1343
     18 C12        10.6507   -2.6808   -0.1297 C.ar      1 <0>        -0.0809
     19 C13        11.7660   -3.4891   -0.1462 C.ar      1 <0>        -0.1204
     20 C14        13.0337   -2.9316   -0.1494 C.ar      1 <0>        -0.0797
     21 C15        13.1948   -1.5551   -0.1368 C.ar      1 <0>         0.0406
     22 C16        12.0786   -0.7268   -0.1278 C.ar      1 <0>         0.1171
     23 O4         12.2137    0.6246   -0.1279 O.3       1 <0>        -0.2725
     24 C17        13.4970    1.1436    0.2378 C.3       1 <0>         0.0145
     25 C18        14.5701    0.3480   -0.5177 C.3       1 <0>         0.0179
     26 O5         14.4508   -1.0298   -0.1363 O.3       1 <0>        -0.3027
     27 H1         -0.9604    1.8988    0.0260 H         1 <0>         0.1382
     28 H2          1.1458    3.1687    0.0082 H         1 <0>         0.1366
     29 H3          3.3037    1.9938   -0.0196 H         1 <0>         0.1401
     30 H4         -0.9253   -0.5575    0.0079 H         1 <0>         0.1426
     31 H5          4.7911    0.8359   -0.9323 H         1 <0>         0.1078
     32 H6          4.8098    0.8258    0.8476 H         1 <0>         0.1078
     33 H7          7.3440    0.8235   -0.0691 H         1 <0>         0.4349
     34 H8          8.2688   -1.9313   -0.0946 H         1 <0>         0.4324
     35 H9          9.6644   -3.1209   -0.1259 H         1 <0>         0.1368
     36 H10        11.6512   -4.5629   -0.1563 H         1 <0>         0.1438
     37 H11        13.9022   -3.5734   -0.1614 H         1 <0>         0.1435
     38 H12        13.5592    2.1968   -0.0362 H         1 <0>         0.1274
     39 H13        13.6456    1.0333    1.3119 H         1 <0>         0.0815
     40 H14        14.4182    0.4540   -1.5918 H         1 <0>         0.0821
     41 H15        15.5595    0.7170   -0.2476 H         1 <0>         0.1267
@<TRIPOS>BOND
     1    1    6 ar
     2    1    2 ar
     3    1   27 1
     4    2    3 ar
     5    2   28 1
     6    3    4 ar
     7    3   29 1
     8    4    5 ar
     9    4    9 1
    10    5    6 ar
    11    5    7 1
    12    6   30 1
    13    7    8 3
    14    9   10 1
    15   10   11 1
    16   10   31 1
    17   10   32 1
    18   11   12 2
    19   11   13 am
    20   13   14 1
    21   13   33 1
    22   14   15 am
    23   14   34 1
    24   15   16 2
    25   15   17 1
    26   17   22 ar
    27   17   18 ar
    28   18   19 ar
    29   18   35 1
    30   19   20 ar
    31   19   36 1
    32   20   21 ar
    33   20   37 1
    34   21   26 1
    35   21   22 ar
    36   22   23 1
    37   23   24 1
    38   24   25 1
    39   24   38 1
    40   24   39 1
    41   25   26 1
    42   25   40 1
    43   25   41 1
@<TRIPOS>MOLECULE
ZINC08014566
   57    59     0     0     0
SMALL
USER_CHARGES
2-methyl-N-[3-methyl-1-[(3-methyl-4-oxo-2-oxa-5-azabicyclo[4.4.0]deca-7,9,11-trien-8-yl)carbamoyl]butyl]-benzamide
@<TRIPOS>ATOM
      1 C1          1.7453    2.0128    3.7262 C.3       1 <0>        -0.1223
      2 C2          1.0275    0.8217    4.3068 C.ar      1 <0>        -0.0189
      3 C3          1.5300    0.1893    5.4254 C.ar      1 <0>        -0.1329
      4 C4          0.8718   -0.9037    5.9601 C.ar      1 <0>        -0.0856
      5 C5         -0.2934   -1.3704    5.3775 C.ar      1 <0>        -0.1353
      6 C6         -0.8090   -0.7444    4.2618 C.ar      1 <0>        -0.0804
      7 C7         -0.1471    0.3561    3.7144 C.ar      1 <0>        -0.1446
      8 C8         -0.6915    1.0291    2.5158 C.2       1 <0>         0.5642
      9 O1         -0.1801    2.0542    2.1094 O.2       1 <0>        -0.5159
     10 N1         -1.7549    0.5060    1.8738 N.am      1 <0>        -0.7113
     11 C9         -2.2943    1.1730    0.6862 C.3       1 <0>         0.1301
     12 H1         -2.2019    2.2528    0.8024 H         1 <0>         0.1246
     13 C10        -1.5124    0.7243   -0.5500 C.3       1 <0>        -0.1231
     14 C11        -0.0639    1.2042   -0.4392 C.3       1 <0>        -0.0922
     15 C12        -0.0294    2.7334   -0.4715 C.3       1 <0>        -0.1427
     16 C13         0.7479    0.6509   -1.6122 C.3       1 <0>        -0.1487
     17 C14        -3.7471    0.8080    0.5215 C.2       1 <0>         0.5135
     18 O2         -4.2796    0.0639    1.3178 O.2       1 <0>        -0.5127
     19 N2         -4.4548    1.3083   -0.5107 N.am      1 <0>        -0.6651
     20 C15        -5.7729    0.8854   -0.7267 C.ar      1 <0>         0.1551
     21 C16        -6.7123    1.7736   -1.2337 C.ar      1 <0>        -0.1311
     22 C17        -8.0139    1.3607   -1.4493 C.ar      1 <0>        -0.0846
     23 C18        -8.3831    0.0586   -1.1596 C.ar      1 <0>         0.0663
     24 C19        -7.4425   -0.8352   -0.6497 C.ar      1 <0>         0.1140
     25 C20        -6.1376   -0.4231   -0.4390 C.ar      1 <0>        -0.1241
     26 N3         -7.8332   -2.1501   -0.3594 N.am      1 <0>        -0.6592
     27 C21        -8.9973   -2.6139   -0.8638 C.2       1 <0>         0.4930
     28 O3         -9.3695   -3.7382   -0.6019 O.2       1 <0>        -0.5015
     29 C22        -9.8318   -1.7285   -1.7540 C.3       1 <0>         0.0781
     30 H2         -9.5172   -1.8555   -2.7898 H         1 <0>         0.1060
     31 O4         -9.6602   -0.3620   -1.3691 O.3       1 <0>        -0.2986
     32 C23       -11.3061   -2.1145   -1.6185 C.3       1 <0>        -0.1367
     33 H3          1.2857    2.9295    4.0957 H         1 <0>         0.0762
     34 H4          2.7935    1.9861    4.0243 H         1 <0>         0.0575
     35 H5          1.6760    1.9843    2.6388 H         1 <0>         0.0962
     36 H6          2.4390    0.5486    5.8849 H         1 <0>         0.1300
     37 H7          1.2689   -1.3947    6.8362 H         1 <0>         0.1281
     38 H8         -0.8025   -2.2242    5.7998 H         1 <0>         0.1289
     39 H9         -1.7209   -1.1068    3.8107 H         1 <0>         0.1259
     40 H10        -2.1630   -0.3120    2.1981 H         1 <0>         0.4089
     41 H11        -1.9691    1.1506   -1.4433 H         1 <0>         0.0780
     42 H12        -1.5307   -0.3635   -0.6165 H         1 <0>         0.0724
     43 H13         0.3653    0.8508    0.4984 H         1 <0>         0.0792
     44 H14         1.0026    3.0753   -0.3925 H         1 <0>         0.0524
     45 H15        -0.4585    3.0869   -1.4091 H         1 <0>         0.0430
     46 H16        -0.6076    3.1276    0.3642 H         1 <0>         0.0723
     47 H17         1.7798    0.9928   -1.5332 H         1 <0>         0.0562
     48 H18         0.7233   -0.4386   -1.5892 H         1 <0>         0.0505
     49 H19         0.3187    1.0043   -2.5498 H         1 <0>         0.0533
     50 H20        -4.0515    1.9611   -1.1040 H         1 <0>         0.4171
     51 H21        -6.4253    2.7899   -1.4599 H         1 <0>         0.1408
     52 H22        -8.7422    2.0537   -1.8439 H         1 <0>         0.1471
     53 H23        -5.4070   -1.1159   -0.0483 H         1 <0>         0.1442
     54 H24        -7.2758   -2.7183    0.1950 H         1 <0>         0.4175
     55 H25       -11.6209   -1.9888   -0.5826 H         1 <0>         0.0717
     56 H26       -11.9099   -1.4746   -2.2620 H         1 <0>         0.0823
     57 H27       -11.4378   -3.1553   -1.9145 H         1 <0>         0.0929
@<TRIPOS>BOND
     1    1    2 1
     2    1   33 1
     3    1   34 1
     4    1   35 1
     5    2    7 ar
     6    2    3 ar
     7    3    4 ar
     8    3   36 1
     9    4    5 ar
    10    4   37 1
    11    5    6 ar
    12    5   38 1
    13    6    7 ar
    14    6   39 1
    15    7    8 1
    16    8    9 2
    17    8   10 am
    18   10   11 1
    19   10   40 1
    20   11   12 1
    21   11   13 1
    22   11   17 1
    23   13   14 1
    24   13   41 1
    25   13   42 1
    26   14   15 1
    27   14   16 1
    28   14   43 1
    29   15   44 1
    30   15   45 1
    31   15   46 1
    32   16   47 1
    33   16   48 1
    34   16   49 1
    35   17   18 2
    36   17   19 am
    37   19   20 1
    38   19   50 1
    39   20   25 ar
    40   20   21 ar
    41   21   22 ar
    42   21   51 1
    43   22   23 ar
    44   22   52 1
    45   23   31 1
    46   23   24 ar
    47   24   25 ar
    48   24   26 1
    49   25   53 1
    50   26   27 am
    51   26   54 1
    52   27   28 2
    53   27   29 1
    54   29   30 1
    55   29   31 1
    56   29   32 1
    57   32   55 1
    58   32   56 1
    59   32   57 1
@<TRIPOS>MOLECULE
ZINC13482309
   54    57     0     0     0
SMALL
USER_CHARGES
methyl (6R,8S,9S)-6-(2-hydroxy-3-methoxy-phenyl)-9-methyl-7-oxo-5,6,8,9,10,11-hexahydrobenzo[c][1,5]benzodiazepine-8-carboxylate
@<TRIPOS>ATOM
      1 C1          1.1992    8.7256   -2.7058 C.3       1 <0>        -0.1721
      2 C2          1.3908    7.5407   -3.6547 C.3       1 <0>        -0.0663
      3 H1          1.1249    7.8342   -4.6702 H         1 <0>         0.0996
      4 C3          2.8452    7.0750   -3.6144 C.3       1 <0>        -0.1083
      5 C4          3.2145    6.6544   -2.2011 C.2       1 <0>         0.2650
      6 C5          2.2963    6.0932   -1.3972 C.2       1 <0>        -0.2932
      7 C6          2.5339    5.5960    0.0090 C.3       1 <0>         0.2827
      8 H2          1.7332    5.9716    0.6461 H         1 <0>         0.1046
      9 N1          3.8020    5.9985    0.5798 N.pl3     1 <0>        -0.7650
     10 C7          5.0079    5.5560    0.0394 C.ar      1 <0>         0.1708
     11 C8          5.8608    4.7289    0.7528 C.ar      1 <0>        -0.1264
     12 C9          7.0265    4.2782    0.1580 C.ar      1 <0>        -0.1061
     13 C10         7.3388    4.6464   -1.1380 C.ar      1 <0>        -0.1207
     14 C11         6.4968    5.4858   -1.8477 C.ar      1 <0>        -0.1124
     15 C12         5.3414    5.9539   -1.2466 C.ar      1 <0>         0.1177
     16 N2          4.5088    6.8819   -1.8621 N.pl3     1 <0>        -0.6831
     17 C13         2.4696    4.0903    0.0010 C.ar      1 <0>        -0.0632
     18 C14         2.6763    3.3957   -1.1768 C.ar      1 <0>        -0.1272
     19 C15         2.6181    2.0149   -1.1876 C.ar      1 <0>        -0.0876
     20 C16         2.3534    1.3218   -0.0206 C.ar      1 <0>        -0.1963
     21 C17         2.1454    2.0115    1.1626 C.ar      1 <0>         0.1020
     22 C18         2.1979    3.4024    1.1723 C.ar      1 <0>         0.0933
     23 O1          1.9889    4.0842    2.3302 O.3       1 <0>        -0.4797
     24 O2          1.8851    1.3314    2.3111 O.3       1 <0>        -0.3087
     25 C19         1.8406   -0.0944    2.2249 C.3       1 <0>         0.0258
     26 C20         0.9646    5.9246   -1.8459 C.2       1 <0>         0.4047
     27 O3          0.1583    5.4015   -1.1020 O.2       1 <0>        -0.4372
     28 C21         0.5123    6.3674   -3.2048 C.3       1 <0>        -0.1182
     29 H3          0.6016    5.6148   -3.8572 H         1 <0>         0.1240
     30 C22        -0.9271    6.8090   -3.1398 C.2       1 <0>         0.4778
     31 O4         -1.2238    7.9454   -3.4236 O.2       1 <0>        -0.4963
     32 O5         -1.8795    5.9400   -2.7666 O.3       1 <0>        -0.3376
     33 C23        -3.2441    6.4345   -2.7266 C.3       1 <0>         0.0350
     34 H4          1.8487    9.5454   -3.0126 H         1 <0>         0.0618
     35 H5          0.1602    9.0532   -2.7389 H         1 <0>         0.0898
     36 H6          1.4523    8.4221   -1.6900 H         1 <0>         0.0566
     37 H7          3.4954    7.8906   -3.9310 H         1 <0>         0.0951
     38 H8          2.9732    6.2287   -4.2892 H         1 <0>         0.0997
     39 H9          3.8124    6.5859    1.3516 H         1 <0>         0.4000
     40 H10         5.6178    4.4382    1.7641 H         1 <0>         0.1231
     41 H11         7.6965    3.6353    0.7095 H         1 <0>         0.1238
     42 H12         8.2433    4.2773   -1.5986 H         1 <0>         0.1259
     43 H13         6.7394    5.7727   -2.8602 H         1 <0>         0.1266
     44 H14         4.8800    7.7550   -2.0642 H         1 <0>         0.4075
     45 H15         2.8840    3.9335   -2.0901 H         1 <0>         0.1173
     46 H16         2.7801    1.4760   -2.1094 H         1 <0>         0.1245
     47 H17         2.3092    0.2428   -0.0316 H         1 <0>         0.1298
     48 H18         2.7935    4.2475    2.8412 H         1 <0>         0.3804
     49 H19         2.8033   -0.4674    1.8754 H         1 <0>         0.0544
     50 H20         1.6247   -0.5113    3.2086 H         1 <0>         0.1008
     51 H21         1.0598   -0.3919    1.5249 H         1 <0>         0.0555
     52 H22        -3.9119    5.6332   -2.4103 H         1 <0>         0.1031
     53 H23        -3.3100    7.2623   -2.0205 H         1 <0>         0.0637
     54 H24        -3.5349    6.7794   -3.7189 H         1 <0>         0.0632
@<TRIPOS>BOND
     1    1    2 1
     2    1   34 1
     3    1   35 1
     4    1   36 1
     5    2    3 1
     6    2   28 1
     7    2    4 1
     8    4    5 1
     9    4   37 1
    10    4   38 1
    11    5   16 1
    12    5    6 2
    13    6    7 1
    14    6   26 1
    15    7    8 1
    16    7    9 1
    17    7   17 1
    18    9   10 1
    19    9   39 1
    20   10   15 ar
    21   10   11 ar
    22   11   12 ar
    23   11   40 1
    24   12   13 ar
    25   12   41 1
    26   13   14 ar
    27   13   42 1
    28   14   15 ar
    29   14   43 1
    30   15   16 1
    31   16   44 1
    32   17   22 ar
    33   17   18 ar
    34   18   19 ar
    35   18   45 1
    36   19   20 ar
    37   19   46 1
    38   20   21 ar
    39   20   47 1
    40   21   22 ar
    41   21   24 1
    42   22   23 1
    43   23   48 1
    44   24   25 1
    45   25   49 1
    46   25   50 1
    47   25   51 1
    48   26   27 2
    49   26   28 1
    50   28   29 1
    51   28   30 1
    52   30   31 2
    53   30   32 1
    54   32   33 1
    55   33   52 1
    56   33   53 1
    57   33   54 1
@<TRIPOS>MOLECULE
ZINC03641476
   48    51     0     0     0
SMALL
USER_CHARGES

@<TRIPOS>ATOM
      1 C1          5.7327  -10.1302   -0.0283 C.3       1 <0>        -0.1258
      2 C2          4.8806   -8.9536   -0.4290 C.ar      1 <0>        -0.0215
      3 C3          3.5576   -9.1462   -0.7806 C.ar      1 <0>        -0.1395
      4 C4          2.7760   -8.0669   -1.1481 C.ar      1 <0>         0.0018
      5 C5          3.3172   -6.7950   -1.1636 C.ar      1 <0>        -0.6779
      6 C6          4.6399   -6.6023   -0.8111 C.ar      1 <0>        -0.0120
      7 C7          5.4203   -7.6810   -0.4394 C.ar      1 <0>        -0.1421
      8 S1          2.3212   -5.4194   -1.6332 S.o2      1 <0>         2.6913
      9 O1          3.2149   -4.3754   -1.9944 O.2       1 <0>        -0.9486
     10 O2          1.3331   -5.9187   -2.5240 O.2       1 <0>        -0.9407
     11 N1          1.5206   -4.9088   -0.2765 N.pl3     1 <0>        -0.8960
     12 N2          2.2416   -4.5638    0.8742 N.am      1 <0>        -0.4087
     13 C8          2.8281   -3.2280    0.9804 C.3       1 <0>         0.4274
     14 H1          3.0607   -2.8557   -0.0172 H         1 <0>         0.1306
     15 N3          4.0577   -3.2742    1.7810 N.pl3     1 <0>        -0.7233
     16 C9          4.0557   -4.0123    2.9591 C.ar      1 <0>         0.2431
     17 C10         4.8534   -3.6728    4.0381 C.ar      1 <0>        -0.1711
     18 C11         4.8106   -4.4386    5.1876 C.ar      1 <0>        -0.0508
     19 C12         3.9759   -5.5422    5.2684 C.ar      1 <0>        -0.1715
     20 C13         3.1754   -5.8949    4.2015 C.ar      1 <0>        -0.0196
     21 C14         3.2099   -5.1331    3.0364 C.ar      1 <0>        -0.1977
     22 C15         2.3776   -5.4680    1.8664 C.2       1 <0>         0.5766
     23 O3          1.8234   -6.5480    1.7943 O.2       1 <0>        -0.5055
     24 C16         1.8409   -2.3008    1.6414 C.ar      1 <0>        -0.1569
     25 C17         0.4903   -2.5897    1.6058 C.ar      1 <0>        -0.0832
     26 C18        -0.4158   -1.7393    2.2115 C.ar      1 <0>        -0.1279
     27 C19         0.0268   -0.5979    2.8547 C.ar      1 <0>        -0.0924
     28 C20         1.3761   -0.3049    2.8935 C.ar      1 <0>        -0.1462
     29 C21         2.2880   -1.1596    2.2909 C.ar      1 <0>         0.1397
     30 O4          3.6165   -0.8764    2.3324 O.3       1 <0>        -0.4878
     31 H2          5.6547  -10.2856    1.0478 H         1 <0>         0.0805
     32 H3          5.3880  -11.0229   -0.5502 H         1 <0>         0.0737
     33 H4          6.7716   -9.9332   -0.2926 H         1 <0>         0.0731
     34 H5          3.1348  -10.1399   -0.7685 H         1 <0>         0.1332
     35 H6          1.7426   -8.2174   -1.4235 H         1 <0>         0.1378
     36 H7          5.0628   -5.6086   -0.8235 H         1 <0>         0.1361
     37 H8          6.4527   -7.5300   -0.1605 H         1 <0>         0.1317
     38 H9          0.5525   -4.8485   -0.2784 H         1 <0>         0.4236
     39 H10         4.8539   -2.7999    1.4944 H         1 <0>         0.4209
     40 H11         5.5061   -2.8141    3.9818 H         1 <0>         0.1334
     41 H12         5.4329   -4.1751    6.0300 H         1 <0>         0.1291
     42 H13         3.9523   -6.1309    6.1735 H         1 <0>         0.1287
     43 H14         2.5266   -6.7557    4.2695 H         1 <0>         0.1339
     44 H15         0.1421   -3.4804    1.1041 H         1 <0>         0.1228
     45 H16        -1.4713   -1.9665    2.1820 H         1 <0>         0.1283
     46 H17        -0.6830    0.0651    3.3269 H         1 <0>         0.1294
     47 H18         1.7213    0.5866    3.3959 H         1 <0>         0.1320
     48 H19         3.9271   -0.3374    1.5921 H         1 <0>         0.3880
@<TRIPOS>BOND
     1    1    2 1
     2    1   31 1
     3    1   32 1
     4    1   33 1
     5    2    7 ar
     6    2    3 ar
     7    3    4 ar
     8    3   34 1
     9    4    5 ar
    10    4   35 1
    11    5    6 ar
    12    5    8 1
    13    6    7 ar
    14    6   36 1
    15    7   37 1
    16    8    9 2
    17    8   10 2
    18    8   11 1
    19   11   12 1
    20   11   38 1
    21   12   22 am
    22   12   13 1
    23   13   14 1
    24   13   15 1
    25   13   24 1
    26   15   16 1
    27   15   39 1
    28   16   21 ar
    29   16   17 ar
    30   17   18 ar
    31   17   40 1
    32   18   19 ar
    33   18   41 1
    34   19   20 ar
    35   19   42 1
    36   20   21 ar
    37   20   43 1
    38   21   22 1
    39   22   23 2
    40   24   29 ar
    41   24   25 ar
    42   25   26 ar
    43   25   44 1
    44   26   27 ar
    45   26   45 1
    46   27   28 ar
    47   27   46 1
    48   28   29 ar
    49   28   47 1
    50   29   30 1
    51   30   48 1
@<TRIPOS>MOLECULE
ZINC55528328
   55    57     0     0     0
SMALL
USER_CHARGES

@<TRIPOS>ATOM
      1 C1          1.9046    0.8559    0.4474 C.3       1 <0>        -0.1092
      2 C2          1.0747   -0.3884    0.2626 C.ar      1 <0>         0.2024
      3 C3          1.1828   -1.1033   -0.9210 C.ar      1 <0>        -0.1823
      4 C4          0.4176   -2.2540   -1.0962 C.ar      1 <0>         0.0022
      5 C5         -0.4425   -2.6403   -0.0442 C.ar      1 <0>        -0.1839
      6 C6         -1.3431   -3.7109    0.1404 C.2       1 <0>         0.1168
      7 N1         -1.8929   -3.5929    1.3153 N.2       1 <0>        -0.2319
      8 N2         -1.3924   -2.4554    1.9598 N.pl3     1 <0>        -0.3861
      9 C7         -0.4882   -1.8532    1.1239 C.ar      1 <0>         0.3222
     10 N3          0.2706   -0.7715    1.2293 N.ar      1 <0>        -0.4823
     11 C8         -1.7693   -1.9895    3.2966 C.3       1 <0>         0.1104
     12 C9         -1.6222   -4.8072   -0.8552 C.3       1 <0>        -0.0724
     13 C10         0.5024   -3.0449   -2.3427 C.2       1 <0>         0.5670
     14 O1          0.4530   -4.2585   -2.2970 O.2       1 <0>        -0.4908
     15 N4          0.6345   -2.4201   -3.5296 N.am      1 <0>        -0.5410
     16 N5          0.7148   -3.1695   -4.7106 N.pl3     1 <0>        -0.4701
     17 C11         0.8469   -2.5447   -5.8975 C.2       1 <0>         0.5615
     18 S1          0.9451   -3.4604   -7.3406 S.2       1 <0>        -0.5804
     19 N6          0.9017   -1.1990   -5.9482 N.pl3     1 <0>        -0.6777
     20 C12         1.0452   -0.5198   -7.2383 C.3       1 <0>         0.1481
     21 H1          1.6755   -1.1185   -7.8959 H         1 <0>         0.1205
     22 C13        -0.3336   -0.3414   -7.8770 C.3       1 <0>        -0.1294
     23 C14        -0.1837    0.3678   -9.2243 C.3       1 <0>        -0.1150
     24 C15         0.4604    1.7390   -9.0099 C.3       1 <0>        -0.1189
     25 C16         1.8392    1.5606   -8.3713 C.3       1 <0>        -0.0814
     26 H2          2.4695    0.9620   -9.0289 H         1 <0>         0.0773
     27 C17         1.6893    0.8513   -7.0239 C.3       1 <0>        -0.0938
     28 H3          1.0590    1.4500   -6.3663 H         1 <0>         0.0747
     29 C18         3.0681    0.6729   -6.3853 C.3       1 <0>        -0.1525
     30 C19         2.4833    2.9318   -8.1569 C.3       1 <0>        -0.1500
     31 H4          2.8614    0.5909    0.8974 H         1 <0>         0.0891
     32 H5          2.0763    1.3253   -0.5212 H         1 <0>         0.0840
     33 H6          1.3764    1.5513    1.0998 H         1 <0>         0.0855
     34 H7          1.8535   -0.7708   -1.6995 H         1 <0>         0.1477
     35 H8         -1.1076   -2.4379    4.0376 H         1 <0>         0.0760
     36 H9         -1.6821   -0.9040    3.3410 H         1 <0>         0.0928
     37 H10        -2.7989   -2.2802    3.5057 H         1 <0>         0.0928
     38 H11        -0.8691   -5.5889   -0.7555 H         1 <0>         0.0937
     39 H12        -2.6097   -5.2278   -0.6652 H         1 <0>         0.0762
     40 H13        -1.5896   -4.3980   -1.8649 H         1 <0>         0.0811
     41 H14         0.6739   -1.4516   -3.5661 H         1 <0>         0.4213
     42 H15         0.6754   -4.1380   -4.6741 H         1 <0>         0.4599
     43 H16         0.8460   -0.6801   -5.1305 H         1 <0>         0.3891
     44 H17        -0.7924   -1.3183   -8.0297 H         1 <0>         0.0823
     45 H18        -0.9639    0.2572   -7.2194 H         1 <0>         0.0596
     46 H19         0.4466   -0.2308   -9.8819 H         1 <0>         0.0703
     47 H20        -1.1660    0.4949   -9.6793 H         1 <0>         0.0682
     48 H21         0.5672    2.2443   -9.9698 H         1 <0>         0.0672
     49 H22        -0.1699    2.3377   -8.3523 H         1 <0>         0.0622
     50 H23         3.6984    0.0743   -7.0429 H         1 <0>         0.0621
     51 H24         3.5269    1.6498   -6.2326 H         1 <0>         0.0658
     52 H25         2.9613    0.1676   -5.4254 H         1 <0>         0.0475
     53 H26         1.8530    3.5305   -7.4993 H         1 <0>         0.0543
     54 H27         3.4656    2.8047   -7.7019 H         1 <0>         0.0591
     55 H28         2.5901    3.4371   -9.1168 H         1 <0>         0.0582
@<TRIPOS>BOND
     1    1    2 1
     2    1   31 1
     3    1   32 1
     4    1   33 1
     5    2   10 ar
     6    2    3 ar
     7    3    4 ar
     8    3   34 1
     9    4    5 ar
    10    4   13 1
    11    5    9 ar
    12    5    6 1
    13    6    7 2
    14    6   12 1
    15    7    8 1
    16    8    9 1
    17    8   11 1
    18    9   10 ar
    19   11   35 1
    20   11   36 1
    21   11   37 1
    22   12   38 1
    23   12   39 1
    24   12   40 1
    25   13   14 2
    26   13   15 am
    27   15   16 1
    28   15   41 1
    29   16   17 1
    30   16   42 1
    31   17   18 2
    32   17   19 1
    33   19   20 1
    34   19   43 1
    35   20   21 1
    36   20   27 1
    37   20   22 1
    38   22   23 1
    39   22   44 1
    40   22   45 1
    41   23   24 1
    42   23   46 1
    43   23   47 1
    44   24   25 1
    45   24   48 1
    46   24   49 1
    47   25   26 1
    48   25   27 1
    49   25   30 1
    50   27   28 1
    51   27   29 1
    52   29   50 1
    53   29   51 1
    54   29   52 1
    55   30   53 1
    56   30   54 1
    57   30   55 1
@<TRIPOS>MOLECULE
ZINC66685454
   56    58     0     0     0
SMALL
USER_CHARGES

@<TRIPOS>ATOM
      1 C1         -0.0475    1.2831   -0.4516 C.3       1 <0>        -0.1275
      2 C2          0.0074   -0.2132   -0.2813 C.ar      1 <0>        -0.0330
      3 C3          0.6766   -0.7613    0.7943 C.ar      1 <0>        -0.1117
      4 C4          0.7297   -2.1330    0.9549 C.ar      1 <0>        -0.1125
      5 C5          0.1098   -2.9698    0.0345 C.ar      1 <0>         0.1437
      6 C6         -0.5651   -2.4294   -1.0486 C.ar      1 <0>        -0.0809
      7 C7         -0.6233   -1.0448   -1.2080 C.ar      1 <0>        -0.1259
      8 C8         -1.3460   -0.4602   -2.3579 C.2       1 <0>         0.5623
      9 O1         -1.3382    0.7427   -2.5328 O.2       1 <0>        -0.5301
     10 N1         -2.0134   -1.2610   -3.2121 N.am      1 <0>        -0.7213
     11 C9         -2.7295   -0.6818   -4.3514 C.3       1 <0>         0.1364
     12 C10        -2.8557   -1.7286   -5.4600 C.3       1 <0>        -0.1623
     13 C11        -4.1249   -0.2402   -3.9056 C.3       1 <0>        -0.1638
     14 N2          0.1674   -4.3584    0.2014 N.am      1 <0>        -0.6835
     15 C12         0.2504   -5.1637   -0.8762 C.2       1 <0>         0.7054
     16 O2          0.1839   -4.6915   -1.9946 O.2       1 <0>        -0.5669
     17 N3          0.4072   -6.4924   -0.7139 N.am      1 <0>        -0.7317
     18 C13         0.4974   -7.3678   -1.8852 C.3       1 <0>         0.1288
     19 H1          1.0217   -6.8520   -2.6897 H         1 <0>         0.1078
     20 C14         1.2509   -8.6479   -1.5158 C.3       1 <0>        -0.0822
     21 C15         1.0915   -9.6665   -2.6160 C.ar      1 <0>        -0.1242
     22 C16         1.9774  -10.7315   -2.6714 C.ar      1 <0>        -0.1187
     23 C17         1.8616  -11.6863   -3.6620 C.ar      1 <0>        -0.1078
     24 C18         0.8567  -11.5847   -4.6066 C.ar      1 <0>        -0.1792
     25 C19        -0.0305  -10.5240   -4.5585 C.ar      1 <0>         0.1058
     26 C20         0.0875   -9.5568   -3.5590 C.ar      1 <0>         0.1011
     27 O3         -0.7950   -8.5229   -3.5497 O.3       1 <0>        -0.2953
     28 C21        -0.9120   -7.7550   -2.3512 C.3       1 <0>         0.0527
     29 O4         -1.0191  -10.4234   -5.4870 O.3       1 <0>        -0.3053
     30 C22        -1.0816  -11.4476   -6.4816 C.3       1 <0>         0.0255
     31 H2         -0.9879    1.6603   -0.0500 H         1 <0>         0.0729
     32 H3          0.7853    1.7404    0.0827 H         1 <0>         0.0580
     33 H4          0.0206    1.5310   -1.5109 H         1 <0>         0.1027
     34 H5          1.1605   -0.1161    1.5126 H         1 <0>         0.1351
     35 H6          1.2551   -2.5561    1.7984 H         1 <0>         0.1308
     36 H7         -1.0471   -3.0780   -1.7651 H         1 <0>         0.1444
     37 H8         -2.0197   -2.2209   -3.0725 H         1 <0>         0.4007
     38 H9         -2.1782    0.1803   -4.7268 H         1 <0>         0.0897
     39 H10        -3.4070   -2.5908   -5.0847 H         1 <0>         0.0610
     40 H11        -3.3885   -1.2977   -6.3077 H         1 <0>         0.0740
     41 H12        -1.8616   -2.0432   -5.7776 H         1 <0>         0.0631
     42 H13        -4.6762   -1.1024   -3.5302 H         1 <0>         0.0560
     43 H14        -4.0350    0.5055   -3.1158 H         1 <0>         0.0609
     44 H15        -4.6577    0.1907   -4.7533 H         1 <0>         0.0667
     45 H16         0.1475   -4.7411    1.0925 H         1 <0>         0.4092
     46 H17         0.4602   -6.8692    0.1783 H         1 <0>         0.4015
     47 H18         2.3086   -8.4205   -1.3824 H         1 <0>         0.0943
     48 H19         0.8473   -9.0511   -0.5870 H         1 <0>         0.0878
     49 H20         2.7633  -10.8147   -1.9353 H         1 <0>         0.1284
     50 H21         2.5561  -12.5125   -3.6993 H         1 <0>         0.1297
     51 H22         0.7648  -12.3320   -5.3809 H         1 <0>         0.1361
     52 H23        -1.4027   -8.3502   -1.5811 H         1 <0>         0.0659
     53 H24        -1.4943   -6.8546   -2.5467 H         1 <0>         0.1123
     54 H25        -0.1496  -11.4627   -7.0466 H         1 <0>         0.0558
     55 H26        -1.2299  -12.4138   -5.9993 H         1 <0>         0.0555
     56 H27        -1.9130  -11.2474   -7.1574 H         1 <0>         0.1019
@<TRIPOS>BOND
     1    1    2 1
     2    1   31 1
     3    1   32 1
     4    1   33 1
     5    2    7 ar
     6    2    3 ar
     7    3    4 ar
     8    3   34 1
     9    4    5 ar
    10    4   35 1
    11    5    6 ar
    12    5   14 1
    13    6    7 ar
    14    6   36 1
    15    7    8 1
    16    8    9 2
    17    8   10 am
    18   10   11 1
    19   10   37 1
    20   11   12 1
    21   11   13 1
    22   11   38 1
    23   12   39 1
    24   12   40 1
    25   12   41 1
    26   13   42 1
    27   13   43 1
    28   13   44 1
    29   14   15 am
    30   14   45 1
    31   15   16 2
    32   15   17 am
    33   17   18 1
    34   17   46 1
    35   18   19 1
    36   18   28 1
    37   18   20 1
    38   20   21 1
    39   20   47 1
    40   20   48 1
    41   21   26 ar
    42   21   22 ar
    43   22   23 ar
    44   22   49 1
    45   23   24 ar
    46   23   50 1
    47   24   25 ar
    48   24   51 1
    49   25   26 ar
    50   25   29 1
    51   26   27 1
    52   27   28 1
    53   28   52 1
    54   28   53 1
    55   29   30 1
    56   30   54 1
    57   30   55 1
    58   30   56 1
@<TRIPOS>MOLECULE
ZINC03536467
   46    47     0     0     0
SMALL
USER_CHARGES
2-[[5-(2,3-dimethylphenyl)amino-1,3,4-thiadiazol-2-yl]sulfanyl]-N-(isopropylcarbamoyl)acetamide
@<TRIPOS>ATOM
      1 C1          1.1767   -2.1529    0.2863 C.3       1 <0>        -0.1185
      2 C2          1.1993   -0.6483    0.3692 C.ar      1 <0>        -0.0586
      3 C3          0.0424    0.0439    0.6784 C.ar      1 <0>        -0.1384
      4 C4          0.0587    1.4244    0.7559 C.ar      1 <0>        -0.0886
      5 C5          1.2312    2.1168    0.5246 C.ar      1 <0>        -0.1575
      6 C6          2.3949    1.4248    0.2137 C.ar      1 <0>         0.1609
      7 C7          2.3749    0.0376    0.1367 C.ar      1 <0>        -0.1221
      8 C8          3.6349   -0.7175   -0.1997 C.3       1 <0>        -0.1175
      9 N1          3.5825    2.1221   -0.0214 N.pl3     1 <0>        -0.5984
     10 C9          3.5668    3.5090   -0.1187 C.2       1 <0>         0.3346
     11 N2          2.5383    4.3344   -0.1286 N.2       1 <0>        -0.3534
     12 N3          2.7492    5.6901   -0.2299 N.2       1 <0>        -0.2814
     13 C10         3.9794    6.1572   -0.3280 C.2       1 <0>         0.0276
     14 S1          4.9340    4.6484   -0.2717 S.3       1 <0>         0.0277
     15 S2          4.5325    7.8236   -0.4757 S.3       1 <0>         0.1369
     16 C11         3.0017    8.7968   -0.4634 C.3       1 <0>        -0.1621
     17 C12         3.3364   10.2612   -0.5851 C.2       1 <0>         0.5417
     18 O1          4.4932   10.6134   -0.6716 O.2       1 <0>        -0.4471
     19 N4          2.3497   11.1792   -0.5978 N.am      1 <0>        -0.6855
     20 C13         2.6490   12.4887   -0.7066 C.2       1 <0>         0.6950
     21 O2          3.8087   12.8419   -0.7934 O.2       1 <0>        -0.5243
     22 N5          1.6623   13.4067   -0.7193 N.am      1 <0>        -0.7318
     23 C14         1.9876   14.8302   -0.8377 C.3       1 <0>         0.1511
     24 C15         2.1472   15.1958   -2.3148 C.3       1 <0>        -0.1669
     25 C16         0.8604   15.6637   -0.2249 C.3       1 <0>        -0.1616
     26 H1          0.9392   -2.4571   -0.7330 H         1 <0>         0.0733
     27 H2          2.1543   -2.5467    0.5646 H         1 <0>         0.0711
     28 H3          0.4205   -2.5429    0.9675 H         1 <0>         0.0689
     29 H4         -0.8756   -0.4951    0.8601 H         1 <0>         0.1244
     30 H5         -0.8474    1.9620    0.9932 H         1 <0>         0.1273
     31 H6          1.2431    3.1951    0.5850 H         1 <0>         0.1647
     32 H7          3.7069   -0.8411   -1.2803 H         1 <0>         0.0743
     33 H8          4.4996   -0.1603    0.1607 H         1 <0>         0.0567
     34 H9          3.6096   -1.6974    0.2771 H         1 <0>         0.0800
     35 H10         4.4180    1.6386   -0.1166 H         1 <0>         0.4295
     36 H11         2.3736    8.4967   -1.3021 H         1 <0>         0.1358
     37 H12         2.4679    8.6226    0.4709 H         1 <0>         0.1359
     38 H13         1.4241   10.8973   -0.5285 H         1 <0>         0.4136
     39 H14         0.7367   13.1249   -0.6501 H         1 <0>         0.3989
     40 H15         2.9191   15.0351   -0.3100 H         1 <0>         0.0921
     41 H16         1.2157   14.9910   -2.8424 H         1 <0>         0.0575
     42 H17         2.3893   16.2550   -2.4028 H         1 <0>         0.0695
     43 H18         2.9503   14.6021   -2.7513 H         1 <0>         0.0619
     44 H19         0.7467   15.4032    0.8274 H         1 <0>         0.0632
     45 H20         1.1025   16.7228   -0.3129 H         1 <0>         0.0773
     46 H21        -0.0711   15.4588   -0.7525 H         1 <0>         0.0624
@<TRIPOS>BOND
     1    1    2 1
     2    1   26 1
     3    1   27 1
     4    1   28 1
     5    2    7 ar
     6    2    3 ar
     7    3    4 ar
     8    3   29 1
     9    4    5 ar
    10    4   30 1
    11    5    6 ar
    12    5   31 1
    13    6    7 ar
    14    6    9 1
    15    7    8 1
    16    8   32 1
    17    8   33 1
    18    8   34 1
    19    9   10 1
    20    9   35 1
    21   10   14 1
    22   10   11 2
    23   11   12 1
    24   12   13 2
    25   13   14 1
    26   13   15 1
    27   15   16 1
    28   16   17 1
    29   16   36 1
    30   16   37 1
    31   17   18 2
    32   17   19 am
    33   19   20 am
    34   19   38 1
    35   20   21 2
    36   20   22 am
    37   22   23 1
    38   22   39 1
    39   23   24 1
    40   23   25 1
    41   23   40 1
    42   24   41 1
    43   24   42 1
    44   24   43 1
    45   25   44 1
    46   25   45 1
    47   25   46 1
@<TRIPOS>MOLECULE
ZINC33810173
   52    55     0     0     0
SMALL
USER_CHARGES
(5R)-5-(3-hydroxy-4-methoxy-phenyl)-2-propylsulfanyl-1,5,7,8,9,10-hexahydropyrimido[4,5-b]quinoline-4,6-dione
@<TRIPOS>ATOM
      1 C1          1.6657   11.6907    5.5025 C.3       1 <0>        -0.1524
      2 C2          1.4241   10.2468    5.9470 C.3       1 <0>        -0.1064
      3 C3          0.9813    9.4104    4.7448 C.3       1 <0>        -0.1597
      4 S1          0.6956    7.7022    5.2707 S.3       1 <0>         0.0497
      5 C4          0.2114    6.9862    3.7352 C.2       1 <0>         0.3780
      6 N1         -0.1052    5.6620    3.6844 N.2       1 <0>        -0.5382
      7 C5         -0.4853    5.0915    2.4979 C.2       1 <0>         0.4213
      8 C6         -0.5428    5.8606    1.3776 C.2       1 <0>        -0.3026
      9 C7         -0.2032    7.2278    1.4717 C.2       1 <0>         0.5426
     10 O1         -0.2413    7.9404    0.4792 O.2       1 <0>        -0.5217
     11 N2          0.1616    7.7405    2.6569 N.am      1 <0>        -0.6327
     12 C8         -0.9599    5.2757    0.0607 C.3       1 <0>         0.1017
     13 H1         -0.2804    5.6589   -0.7148 H         1 <0>         0.0909
     14 C9         -0.8681    3.7710    0.0764 C.2       1 <0>        -0.2760
     15 C10        -0.8057    3.0909    1.2409 C.2       1 <0>         0.2279
     16 N3         -0.8035    3.7550    2.4374 N.pl3     1 <0>        -0.6344
     17 C11        -0.7371    1.5834    1.2607 C.3       1 <0>        -0.0982
     18 C12        -0.0127    1.0858    0.0080 C.3       1 <0>        -0.1112
     19 C13        -0.7619    1.5974   -1.2268 C.3       1 <0>        -0.1697
     20 C14        -0.8550    3.0969   -1.1571 C.2       1 <0>         0.4024
     21 O2         -0.9198    3.7383   -2.1872 O.2       1 <0>        -0.4656
     22 C15        -2.3823    5.6804   -0.2293 C.ar      1 <0>        -0.0526
     23 C16        -3.3985    5.2865    0.6212 C.ar      1 <0>        -0.1160
     24 C17        -4.7049    5.6552    0.3595 C.ar      1 <0>        -0.1733
     25 C18        -4.9982    6.4211   -0.7573 C.ar      1 <0>         0.0819
     26 C19        -3.9753    6.8176   -1.6134 C.ar      1 <0>         0.1283
     27 C20        -2.6673    6.4494   -1.3422 C.ar      1 <0>        -0.1468
     28 O3         -4.2581    7.5690   -2.7111 O.3       1 <0>        -0.5018
     29 O4         -6.2829    6.7843   -1.0164 O.3       1 <0>        -0.3085
     30 C21        -7.2808    6.3410   -0.0946 C.3       1 <0>         0.0246
     31 H2          1.9841   12.2920    6.3668 H         1 <0>         0.0686
     32 H3          0.7356   12.1074    5.0885 H         1 <0>         0.0610
     33 H4          2.4511   11.7108    4.7326 H         1 <0>         0.0610
     34 H5          2.3542    9.8301    6.3610 H         1 <0>         0.0812
     35 H6          0.6387   10.2267    6.7169 H         1 <0>         0.0812
     36 H7          0.0512    9.8271    4.3309 H         1 <0>         0.1030
     37 H8          1.7666    9.4306    3.9748 H         1 <0>         0.1031
     38 H9         -1.0598    3.2085    3.3570 H         1 <0>         0.4484
     39 H10        -0.1889    1.2530    2.1553 H         1 <0>         0.0941
     40 H11        -1.7563    1.1702    1.2818 H         1 <0>         0.1020
     41 H12         1.0188    1.4680    0.0048 H         1 <0>         0.0747
     42 H13         0.0038   -0.0141    0.0065 H         1 <0>         0.0884
     43 H14        -0.2166    1.3016   -2.1352 H         1 <0>         0.0981
     44 H15        -1.7726    1.1637   -1.2483 H         1 <0>         0.1015
     45 H16        -3.1712    4.6898    1.4922 H         1 <0>         0.1127
     46 H17        -5.4969    5.3465    1.0258 H         1 <0>         0.1295
     47 H18        -1.8709    6.7598   -2.0025 H         1 <0>         0.1333
     48 H19        -3.4486    7.8817   -3.3870 H         1 <0>         0.4304
     49 H20        -8.2674    6.7020   -0.4207 H         1 <0>         0.1001
     50 H21        -7.0575    6.7382    0.9066 H         1 <0>         0.0521
     51 H22        -7.2856    5.2415   -0.0602 H         1 <0>         0.0532
     52 H23         0.4212    8.8076    2.7197 H         1 <0>         0.4407
@<TRIPOS>BOND
     1    1    2 1
     2    1   31 1
     3    1   32 1
     4    1   33 1
     5    2    3 1
     6    2   34 1
     7    2   35 1
     8    3    4 1
     9    3   36 1
    10    3   37 1
    11    4    5 1
    12    5   11 1
    13    5    6 2
    14    6    7 1
    15    7   16 1
    16    7    8 2
    17    8    9 1
    18    8   12 1
    19    9   10 2
    20    9   11 am
    21   11   52 1
    22   12   13 1
    23   12   14 1
    24   12   22 1
    25   14   20 1
    26   14   15 2
    27   15   16 1
    28   15   17 1
    29   16   38 1
    30   17   18 1
    31   17   39 1
    32   17   40 1
    33   18   19 1
    34   18   41 1
    35   18   42 1
    36   19   20 1
    37   19   43 1
    38   19   44 1
    39   20   21 2
    40   22   27 ar
    41   22   23 ar
    42   23   24 ar
    43   23   45 1
    44   24   25 ar
    45   24   46 1
    46   25   26 ar
    47   25   29 1
    48   26   27 ar
    49   26   28 1
    50   27   47 1
    51   28   48 1
    52   29   30 1
    53   30   49 1
    54   30   50 1
    55   30   51 1
@<TRIPOS>MOLECULE
ZINC39426549
   46    48     0     0     0
SMALL
USER_CHARGES

@<TRIPOS>ATOM
      1 C1         -0.0187    1.5258    0.0104 C.3       1 <0>        -0.1477
      2 C2          0.0021   -0.0041    0.0020 C.3       1 <0>        -0.0878
      3 H1          0.5120   -0.3573   -0.8943 H         1 <0>         0.0767
      4 C3         -1.4336   -0.5366    0.0189 C.3       1 <0>        -0.1131
      5 C4         -1.4324   -2.0454   -0.2367 C.3       1 <0>        -0.0623
      6 C5         -0.4635   -2.7037    0.7345 C.2       1 <0>        -0.0583
      7 C6          0.4847   -1.9864    1.3744 C.2       1 <0>        -0.2189
      8 S1          1.3441   -3.1669    2.3726 S.3       1 <0>         0.3063
      9 C7          0.4940   -4.5575    1.9683 C.2       1 <0>         0.0415
     10 C8         -0.4590   -4.1196    1.0606 C.2       1 <0>        -0.2103
     11 C9         -1.4195   -5.0451    0.4563 C.2       1 <0>         0.5292
     12 O1         -1.1469   -5.6096   -0.5861 O.2       1 <0>        -0.4908
     13 O2         -2.6065   -5.2716    1.0555 O.3       1 <0>        -0.3464
     14 C10        -3.4948   -6.1863    0.4103 C.3       1 <0>         0.0286
     15 N1          0.6976   -5.8467    2.4349 N.am      1 <0>        -0.6117
     16 C11         1.6791   -6.0942    3.3247 C.2       1 <0>         0.5367
     17 O3          2.3842   -5.1889    3.7172 O.2       1 <0>        -0.4776
     18 C12         1.9005   -7.4959    3.8320 C.3       1 <0>        -0.1168
     19 H2          0.9414   -8.0066    3.9188 H         1 <0>         0.1306
     20 C13         2.7967   -8.2570    2.8530 C.3       1 <0>        -0.1485
     21 S2          2.7004   -7.4309    5.4588 S.3       1 <0>         0.1280
     22 C14         2.7544   -9.1148    5.9748 C.2       1 <0>         0.0247
     23 N2          2.3293  -10.1952    5.3484 N.2       1 <0>        -0.2721
     24 N3          2.4716  -11.4294    5.9393 N.2       1 <0>        -0.3743
     25 C15         3.0321  -11.5268    7.1289 C.2       1 <0>         0.3533
     26 S3          3.4065   -9.8164    7.4825 S.3       1 <0>         0.0120
     27 N4          3.2723  -12.6586    7.8992 N.pl3     1 <0>        -0.7877
     28 C16         0.7393   -0.5154    1.2485 C.3       1 <0>        -0.0300
     29 H3          1.0039    1.9031    0.0027 H         1 <0>         0.0583
     30 H4         -0.5459    1.8868   -0.8726 H         1 <0>         0.0585
     31 H5         -0.5289    1.8773    0.9072 H         1 <0>         0.0576
     32 H6         -1.8834   -0.3344    0.9909 H         1 <0>         0.0689
     33 H7         -2.0138   -0.0383   -0.7578 H         1 <0>         0.0721
     34 H8         -2.4348   -2.4437   -0.0795 H         1 <0>         0.0745
     35 H9         -1.1144   -2.2426   -1.2604 H         1 <0>         0.0804
     36 H10        -4.4102   -6.2773    0.9951 H         1 <0>         0.1051
     37 H11        -3.7357   -5.8169   -0.5865 H         1 <0>         0.0631
     38 H12        -3.0162   -7.1623    0.3303 H         1 <0>         0.0613
     39 H13         0.1336   -6.5708    2.1210 H         1 <0>         0.4217
     40 H14         2.3161   -8.2960    1.8755 H         1 <0>         0.0767
     41 H15         3.7558   -7.7463    2.7662 H         1 <0>         0.0807
     42 H16         2.9568   -9.2708    3.2199 H         1 <0>         0.0915
     43 H17         3.0138  -13.5335    7.5696 H         1 <0>         0.4235
     44 H18         3.6984  -12.5735    8.7664 H         1 <0>         0.4242
     45 H19         1.8088   -0.3333    1.1434 H         1 <0>         0.0833
     46 H20         0.3639   -0.0020    2.1338 H         1 <0>         0.0854
@<TRIPOS>BOND
     1    1    2 1
     2    1   29 1
     3    1   30 1
     4    1   31 1
     5    2    3 1
     6    2   28 1
     7    2    4 1
     8    4    5 1
     9    4   32 1
    10    4   33 1
    11    5    6 1
    12    5   34 1
    13    5   35 1
    14    6   10 1
    15    6    7 2
    16    7    8 1
    17    7   28 1
    18    8    9 1
    19    9   10 2
    20    9   15 1
    21   10   11 1
    22   11   12 2
    23   11   13 1
    24   13   14 1
    25   14   36 1
    26   14   37 1
    27   14   38 1
    28   15   16 am
    29   15   39 1
    30   16   17 2
    31   16   18 1
    32   18   19 1
    33   18   20 1
    34   18   21 1
    35   20   40 1
    36   20   41 1
    37   20   42 1
    38   21   22 1
    39   22   26 1
    40   22   23 2
    41   23   24 1
    42   24   25 2
    43   25   26 1
    44   25   27 1
    45   27   43 1
    46   27   44 1
    47   28   45 1
    48   28   46 1
@<TRIPOS>MOLECULE
ZINC53813973
   48    51     0     0     0
SMALL
USER_CHARGES

@<TRIPOS>ATOM
      1 C1         -8.3334   -4.8012   -4.3671 C.3       1 <0>        -0.1479
      2 C2         -8.2066   -3.2780   -4.2975 C.3       1 <0>        -0.0821
      3 C3         -7.3659   -2.8979   -3.1059 C.ar      1 <0>        -0.1227
      4 C4         -6.0517   -2.5723   -3.2795 C.ar      1 <0>        -0.0459
      5 C5         -5.2710   -2.2193   -2.1732 C.ar      1 <0>        -0.1512
      6 C6         -3.8587   -1.8648   -2.3292 C.2       1 <0>        -0.0011
      7 C7         -3.1542   -1.5307   -1.2167 C.2       1 <0>        -0.2231
      8 C8         -3.7889   -1.5331    0.0424 C.2       1 <0>         0.5093
      9 O1         -3.1455   -1.2315    1.0317 O.2       1 <0>        -0.4527
     10 O2         -5.0838   -1.8587    0.1787 O.3       1 <0>        -0.2684
     11 C9         -5.8404   -2.2006   -0.8861 C.ar      1 <0>         0.1616
     12 C10        -7.1767   -2.5345   -0.7279 C.ar      1 <0>        -0.1590
     13 C11        -7.9366   -2.8756   -1.8351 C.ar      1 <0>         0.1705
     14 O3         -9.2464   -3.1967   -1.6796 O.3       1 <0>        -0.4853
     15 C12        -3.2045   -1.8708   -3.6868 C.3       1 <0>         0.1683
     16 N1         -3.4397   -0.5847   -4.3479 N.pl3     1 <0>        -0.6140
     17 C13        -4.5981   -0.2728   -5.1893 C.3       1 <0>         0.1105
     18 C14        -4.3873    1.1813   -5.6420 C.3       1 <0>        -0.0831
     19 C15        -3.0817    1.5934   -4.9999 C.ar      1 <0>        -0.1864
     20 C16        -2.5961    0.5240   -4.2633 C.ar      1 <0>         0.2502
     21 C17        -1.3931    0.6698   -3.5695 C.ar      1 <0>        -0.1971
     22 C18        -0.7043    1.8632   -3.6155 C.ar      1 <0>         0.0278
     23 C19        -1.1995    2.9250   -4.3497 C.ar      1 <0>        -0.7225
     24 C20        -2.3855    2.7855   -5.0469 C.ar      1 <0>         0.0401
     25 S1         -0.3162    4.4486   -4.4053 S.o2      1 <0>         2.7051
     26 O4         -1.2667    5.4578   -4.7173 O.2       1 <0>        -0.9675
     27 O5          0.4876    4.4950   -3.2345 O.2       1 <0>        -0.9664
     28 N2          0.7243    4.3646   -5.6908 N.pl3     1 <0>        -1.2517
     29 H1         -8.9414   -5.0761   -5.2290 H         1 <0>         0.0643
     30 H2         -7.3423   -5.2441   -4.4655 H         1 <0>         0.0562
     31 H3         -8.8067   -5.1684   -3.4565 H         1 <0>         0.0531
     32 H4         -7.7332   -2.9108   -5.2081 H         1 <0>         0.0750
     33 H5         -9.1976   -2.8351   -4.1991 H         1 <0>         0.0841
     34 H6         -5.6158   -2.5874   -4.2675 H         1 <0>         0.1397
     35 H7         -2.1106   -1.2644   -1.2965 H         1 <0>         0.1646
     36 H8         -7.6250   -2.5242    0.2546 H         1 <0>         0.1527
     37 H9         -9.4046   -4.1373   -1.5204 H         1 <0>         0.3997
     38 H10        -2.1323   -2.0299   -3.5727 H         1 <0>         0.1046
     39 H11        -3.6286   -2.6728   -4.2909 H         1 <0>         0.1037
     40 H12        -4.6281   -0.9371   -6.0529 H         1 <0>         0.0785
     41 H13        -5.5189   -0.3595   -4.6124 H         1 <0>         0.0747
     42 H14        -4.3104    1.2342   -6.7280 H         1 <0>         0.0922
     43 H15        -5.2019    1.8123   -5.2864 H         1 <0>         0.0906
     44 H16        -1.0008   -0.1557   -2.9942 H         1 <0>         0.1281
     45 H17         0.2252    1.9692   -3.0759 H         1 <0>         0.1452
     46 H18        -2.7744    3.6143   -5.6197 H         1 <0>         0.1418
     47 H19         0.7516    3.5665   -6.2414 H         1 <0>         0.4160
     48 H20         1.3065    5.1136   -5.8933 H         1 <0>         0.4200
@<TRIPOS>BOND
     1    1    2 1
     2    1   29 1
     3    1   30 1
     4    1   31 1
     5    2    3 1
     6    2   32 1
     7    2   33 1
     8    3   13 ar
     9    3    4 ar
    10    4    5 ar
    11    4   34 1
    12    5   11 ar
    13    5    6 1
    14    6    7 2
    15    6   15 1
    16    7    8 1
    17    7   35 1
    18    8    9 2
    19    8   10 1
    20   10   11 1
    21   11   12 ar
    22   12   13 ar
    23   12   36 1
    24   13   14 1
    25   14   37 1
    26   15   16 1
    27   15   38 1
    28   15   39 1
    29   16   20 1
    30   16   17 1
    31   17   18 1
    32   17   40 1
    33   17   41 1
    34   18   19 1
    35   18   42 1
    36   18   43 1
    37   19   24 ar
    38   19   20 ar
    39   20   21 ar
    40   21   22 ar
    41   21   44 1
    42   22   23 ar
    43   22   45 1
    44   23   24 ar
    45   23   25 1
    46   24   46 1
    47   25   26 2
    48   25   27 2
    49   25   28 1
    50   28   47 1
    51   28   48 1
@<TRIPOS>MOLECULE
ZINC64430833
   55    57     0     0     0
SMALL
USER_CHARGES

@<TRIPOS>ATOM
      1 C1         -0.3937    1.3820    0.5345 C.3       1 <0>        -0.1167
      2 C2         -0.9261   -0.0086    0.7668 C.ar      1 <0>        -0.0655
      3 C3         -1.8314   -0.5591   -0.1221 C.ar      1 <0>        -0.1332
      4 C4         -2.3225   -1.8344    0.0878 C.ar      1 <0>        -0.0978
      5 C5         -1.9100   -2.5628    1.1866 C.ar      1 <0>        -0.1346
      6 C6         -1.0009   -2.0131    2.0806 C.ar      1 <0>         0.1611
      7 C7         -0.5051   -0.7339    1.8639 C.ar      1 <0>        -0.1176
      8 C8          0.4864   -0.1358    2.8284 C.3       1 <0>        -0.1165
      9 N1         -0.5811   -2.7483    3.1948 N.am      1 <0>        -0.6714
     10 C9         -0.6623   -4.0936    3.1840 C.2       1 <0>         0.6910
     11 O1         -1.0008   -4.6739    2.1711 O.2       1 <0>        -0.5033
     12 N2         -0.3683   -4.7954    4.2964 N.am      1 <0>        -0.6937
     13 C10        -0.4495   -6.1407    4.2856 C.2       1 <0>         0.4732
     14 O2         -0.7871   -6.7195    3.2753 O.2       1 <0>        -0.4372
     15 C11        -0.1207   -6.9254    5.5294 C.3       1 <0>         0.0852
     16 N3         -0.2843   -8.3564    5.2616 N.pl3     1 <0>        -0.6103
     17 C12        -1.6118   -8.9823    5.3315 C.3       1 <0>         0.1270
     18 C13        -1.4664  -10.3040    6.0972 C.3       1 <0>        -0.1355
     19 C14        -0.5489  -11.2351    5.3051 C.3       1 <0>        -0.0720
     20 C15         0.7340  -10.5323    4.9466 C.ar      1 <0>        -0.1329
     21 C16         0.8218   -9.1498    4.9286 C.ar      1 <0>         0.2116
     22 C17         2.0235   -8.5296    4.5821 C.ar      1 <0>         0.0635
     23 C18         3.1286   -9.2989    4.2532 C.ar      1 <0>        -0.0656
     24 C19         3.0360  -10.6781    4.2699 C.ar      1 <0>        -0.1522
     25 C20         1.8465  -11.2929    4.6225 C.ar      1 <0>        -0.0786
     26 N4          2.1124   -7.1310    4.5664 N.am      1 <0>        -0.6789
     27 C21         3.1046   -6.5112    5.2356 C.2       1 <0>         0.4998
     28 O3          3.9714   -7.1646    5.7770 O.2       1 <0>        -0.5140
     29 C22         3.1372   -5.0064    5.3111 C.3       1 <0>        -0.1782
     30 H1          0.5082    1.3286   -0.0753 H         1 <0>         0.0722
     31 H2         -1.1466    1.9777    0.0183 H         1 <0>         0.0687
     32 H3         -0.1578    1.8455    1.4924 H         1 <0>         0.0690
     33 H4         -2.1557    0.0085   -0.9818 H         1 <0>         0.1237
     34 H5         -3.0296   -2.2614   -0.6080 H         1 <0>         0.1264
     35 H6         -2.2945   -3.5587    1.3504 H         1 <0>         0.1480
     36 H7         -0.0479    0.3974    3.6147 H         1 <0>         0.0718
     37 H8          1.0869   -0.9302    3.2714 H         1 <0>         0.0606
     38 H9          1.1373    0.5582    2.2965 H         1 <0>         0.0760
     39 H10        -0.2316   -2.2898    3.9748 H         1 <0>         0.4089
     40 H11        -0.0981   -4.3323    5.1048 H         1 <0>         0.4105
     41 H12         0.9100   -6.7262    5.8229 H         1 <0>         0.1339
     42 H13        -0.7918   -6.6275    6.3350 H         1 <0>         0.1102
     43 H14        -2.3029   -8.3244    5.8583 H         1 <0>         0.0785
     44 H15        -1.9815   -9.1775    4.3248 H         1 <0>         0.0678
     45 H16        -1.0325  -10.1117    7.0785 H         1 <0>         0.0717
     46 H17        -2.4457  -10.7683    6.2134 H         1 <0>         0.0818
     47 H18        -0.3211  -12.1141    5.9081 H         1 <0>         0.0792
     48 H19        -1.0552  -11.5476    4.3918 H         1 <0>         0.0757
     49 H20         4.0596   -8.8220    3.9841 H         1 <0>         0.1256
     50 H21         3.8967  -11.2784    4.0146 H         1 <0>         0.1260
     51 H22         1.7812  -12.3708    4.6337 H         1 <0>         0.1266
     52 H23         1.4597   -6.6090    4.0740 H         1 <0>         0.3997
     53 H24         2.2289   -4.6472    5.7949 H         1 <0>         0.0847
     54 H25         4.0059   -4.6904    5.8888 H         1 <0>         0.1046
     55 H26         3.2005   -4.5934    4.3044 H         1 <0>         0.0915
@<TRIPOS>BOND
     1    1    2 1
     2    1   30 1
     3    1   31 1
     4    1   32 1
     5    2    7 ar
     6    2    3 ar
     7    3    4 ar
     8    3   33 1
     9    4    5 ar
    10    4   34 1
    11    5    6 ar
    12    5   35 1
    13    6    7 ar
    14    6    9 1
    15    7    8 1
    16    8   36 1
    17    8   37 1
    18    8   38 1
    19    9   10 am
    20    9   39 1
    21   10   11 2
    22   10   12 am
    23   12   13 am
    24   12   40 1
    25   13   14 2
    26   13   15 1
    27   15   16 1
    28   15   41 1
    29   15   42 1
    30   16   21 1
    31   16   17 1
    32   17   18 1
    33   17   43 1
    34   17   44 1
    35   18   19 1
    36   18   45 1
    37   18   46 1
    38   19   20 1
    39   19   47 1
    40   19   48 1
    41   20   25 ar
    42   20   21 ar
    43   21   22 ar
    44   22   23 ar
    45   22   26 1
    46   23   24 ar
    47   23   49 1
    48   24   25 ar
    49   24   50 1
    50   25   51 1
    51   26   27 am
    52   26   52 1
    53   27   28 2
    54   27   29 1
    55   29   53 1
    56   29   54 1
    57   29   55 1
@<TRIPOS>MOLECULE
ZINC01444421
   16    17     0     0     0
SMALL
USER_CHARGES
2,5-dichloro-3-(trichloromethyl)-7,9-dithia-4-azabicyclo[4.3.0]nona-1,3,5-trien-8-one
@<TRIPOS>ATOM
      1 C1          1.1793    2.4598   -0.1003 C.ar      1 <0>        -0.0564
      2 C2          1.1134    3.8414    0.0147 C.ar      1 <0>        -0.1281
      3 C3         -0.1454    4.4422    0.1316 C.ar      1 <0>         0.2483
      4 N1         -1.2469    3.7238    0.1331 N.ar      1 <0>        -0.4012
      5 C4         -1.2200    2.4080    0.0209 C.ar      1 <0>         0.1383
      6 C5         -0.0243    1.7362   -0.0929 C.ar      1 <0>        -0.0032
      7 Cl1        -0.0043    0.0061   -0.2335 Cl        1 <0>         0.0166
      8 C6         -2.5127    1.6334    0.0227 C.3       1 <0>         0.1770
      9 Cl2        -2.5206    0.4806    1.4090 Cl        1 <0>        -0.0521
     10 Cl3        -3.8979    2.7763    0.1837 Cl        1 <0>        -0.0356
     11 Cl4        -2.6663    0.7167   -1.5222 Cl        1 <0>        -0.0520
     12 Cl5        -0.2547    6.1686    0.2769 Cl        1 <0>         0.0328
     13 S1          2.7039    4.6080   -0.0104 S.3       1 <0>         0.0206
     14 C7          3.8775    3.2894   -0.1810 C.2       1 <0>         0.3800
     15 O1          5.0918    3.3513   -0.2430 O.2       1 <0>        -0.3030
     16 S2          2.8324    1.8576   -0.2393 S.3       1 <0>         0.0180
@<TRIPOS>BOND
     1    1    6 ar
     2    1   16 1
     3    1    2 ar
     4    2    3 ar
     5    2   13 1
     6    3    4 ar
     7    3   12 1
     8    4    5 ar
     9    5    6 ar
    10    5    8 1
    11    6    7 1
    12    8    9 1
    13    8   10 1
    14    8   11 1
    15   13   14 1
    16   14   15 2
    17   14   16 1
@<TRIPOS>MOLECULE
ZINC12374976
   37    40     0     0     0
SMALL
USER_CHARGES
(7R)-2-(4-chlorophenyl)-7-(2-thienyl)-7,8-dihydro-6H-quinolin-5-one
@<TRIPOS>ATOM
      1 C1          1.1688    1.7934    0.0005 C.2       1 <0>        -0.1581
      2 C2         -0.0126    1.0758    0.0080 C.2       1 <0>        -0.1457
      3 C3         -1.1898    1.7477    0.0171 C.2       1 <0>        -0.1457
      4 S1         -0.6445    3.4477    0.0268 S.3       1 <0>         0.0415
      5 C4          1.1153    3.1478    0.0084 C.2       1 <0>        -0.1674
      6 C5         -2.5943    1.2015    0.0200 C.3       1 <0>         0.0066
      7 H1         -2.5606    0.1120    0.0129 H         1 <0>         0.1035
      8 C6         -3.3352    1.6961   -1.2191 C.3       1 <0>        -0.0715
      9 C7         -4.7814    1.2789   -1.1930 C.ar      1 <0>         0.1967
     10 C8         -5.4268    0.9681    0.0066 C.ar      1 <0>        -0.2269
     11 C9         -6.7791    0.5963   -0.0053 C.ar      1 <0>        -0.0091
     12 C10        -7.4329    0.5470   -1.2200 C.ar      1 <0>        -0.1784
     13 C11        -6.7261    0.8655   -2.3805 C.ar      1 <0>         0.2082
     14 N1         -5.4473    1.2145   -2.3308 N.ar      1 <0>        -0.4860
     15 C12        -7.4161    0.8133   -3.6905 C.ar      1 <0>        -0.0583
     16 C13        -8.7589    0.4426   -3.7600 C.ar      1 <0>        -0.0819
     17 C14        -9.3977    0.3999   -4.9819 C.ar      1 <0>        -0.1143
     18 C15        -8.7054    0.7145   -6.1392 C.ar      1 <0>        -0.0192
     19 C16        -7.3708    1.0785   -6.0765 C.ar      1 <0>        -0.1165
     20 C17        -6.7237    1.1292   -4.8593 C.ar      1 <0>        -0.0602
     21 Cl1        -9.5135    0.6517   -7.6744 Cl        1 <0>        -0.0625
     22 C18        -4.6943    1.0284    1.2830 C.2       1 <0>         0.4072
     23 O1         -5.1684    0.5710    2.3013 O.2       1 <0>        -0.4407
     24 C19        -3.3278    1.6826    1.2789 C.3       1 <0>        -0.1491
     25 H2          2.1203    1.2826   -0.0110 H         1 <0>         0.1356
     26 H3          0.0021   -0.0041    0.0020 H         1 <0>         0.1344
     27 H4          1.9267    3.8606    0.0041 H         1 <0>         0.1869
     28 H5         -3.2780    2.7838   -1.2588 H         1 <0>         0.1003
     29 H6         -2.8600    1.2818   -2.1083 H         1 <0>         0.1037
     30 H7         -7.2954    0.3549    0.9120 H         1 <0>         0.1505
     31 H8         -8.4746    0.2665   -1.2715 H         1 <0>         0.1475
     32 H9         -9.2985    0.1927   -2.8584 H         1 <0>         0.1388
     33 H10       -10.4385    0.1166   -5.0364 H         1 <0>         0.1403
     34 H11        -6.8356    1.3229   -6.9821 H         1 <0>         0.1397
     35 H12        -5.6826    1.4125   -4.8115 H         1 <0>         0.1468
     36 H13        -2.8061    1.4185    2.0901 H         1 <0>         0.0945
     37 H14        -3.4360    2.7669    1.2533 H         1 <0>         0.1087
@<TRIPOS>BOND
     1    1    5 2
     2    1    2 1
     3    1   25 1
     4    2    3 2
     5    2   26 1
     6    3    4 1
     7    3    6 1
     8    4    5 1
     9    5   27 1
    10    6    7 1
    11    6   24 1
    12    6    8 1
    13    8    9 1
    14    8   28 1
    15    8   29 1
    16    9   14 ar
    17    9   10 ar
    18   10   11 ar
    19   10   22 1
    20   11   12 ar
    21   11   30 1
    22   12   13 ar
    23   12   31 1
    24   13   14 ar
    25   13   15 1
    26   15   20 ar
    27   15   16 ar
    28   16   17 ar
    29   16   32 1
    30   17   18 ar
    31   17   33 1
    32   18   19 ar
    33   18   21 1
    34   19   20 ar
    35   19   34 1
    36   20   35 1
    37   22   23 2
    38   22   24 1
    39   24   36 1
    40   24   37 1
@<TRIPOS>MOLECULE
ZINC36930740
   34    35     0     0     0
SMALL
USER_CHARGES

@<TRIPOS>ATOM
      1 C1         -0.5481    1.4370   -0.2349 C.3       1 <0>        -0.1243
      2 C2         -0.2508   -0.0355   -0.1150 C.ar      1 <0>        -0.0403
      3 C3          0.0122   -0.7795   -1.2523 C.ar      1 <0>        -0.1393
      4 C4          0.2851   -2.1271   -1.1510 C.ar      1 <0>        -0.0645
      5 C5          0.2957   -2.7422    0.1052 C.ar      1 <0>        -0.1841
      6 C6          0.0289   -1.9837    1.2492 C.ar      1 <0>        -0.0098
      7 C7         -0.2367   -0.6356    1.1318 C.ar      1 <0>        -0.1371
      8 C8          0.0374   -2.6366    2.6074 C.3       1 <0>        -0.1272
      9 C9          0.5855   -4.1803    0.2221 C.2       1 <0>         0.4106
     10 O1          0.7016   -4.6883    1.3170 O.2       1 <0>        -0.4149
     11 C10         0.7381   -5.0216   -1.0189 C.3       1 <0>         0.0102
     12 H1          1.2105   -4.4300   -1.8030 H         1 <0>         0.1490
     13 C11        -0.5881   -5.4697   -1.4740 C.1       1 <0>         0.2089
     14 N1         -1.6116   -5.8156   -1.8252 N.1       1 <0>        -0.3902
     15 C12         1.5952   -6.2219   -0.7098 C.ar      1 <0>        -0.0812
     16 C13         1.1942   -7.1274    0.2547 C.ar      1 <0>        -0.0726
     17 C14         1.9798   -8.2287    0.5382 C.ar      1 <0>        -0.0908
     18 C15         3.1674   -8.4247   -0.1433 C.ar      1 <0>        -0.0783
     19 C16         3.5683   -7.5184   -1.1083 C.ar      1 <0>        -0.0930
     20 C17         2.7795   -6.4202   -1.3949 C.ar      1 <0>        -0.0914
     21 Br1         4.2430   -9.9310    0.2445 Br        1 <0>        -0.0439
     22 H2          0.3823    2.0016   -0.1743 H         1 <0>         0.0787
     23 H3         -1.0307    1.6335   -1.1923 H         1 <0>         0.0723
     24 H4         -1.2110    1.7409    0.5753 H         1 <0>         0.0717
     25 H5          0.0033   -0.3032   -2.2216 H         1 <0>         0.1318
     26 H6          0.4898   -2.7064   -2.0393 H         1 <0>         0.1318
     27 H7         -0.4385   -0.0475    2.0149 H         1 <0>         0.1315
     28 H8          1.0609   -2.6900    2.9786 H         1 <0>         0.0811
     29 H9         -0.5689   -2.0490    3.2968 H         1 <0>         0.0640
     30 H10        -0.3737   -3.6431    2.5293 H         1 <0>         0.0904
     31 H11         0.2671   -6.9741    0.7871 H         1 <0>         0.1348
     32 H12         1.6666   -8.9359    1.2920 H         1 <0>         0.1376
     33 H13         4.4955   -7.6711   -1.6408 H         1 <0>         0.1392
     34 H14         3.0903   -5.7147   -2.1512 H         1 <0>         0.1397
@<TRIPOS>BOND
     1    1    2 1
     2    1   22 1
     3    1   23 1
     4    1   24 1
     5    2    7 ar
     6    2    3 ar
     7    3    4 ar
     8    3   25 1
     9    4    5 ar
    10    4   26 1
    11    5    6 ar
    12    5    9 1
    13    6    7 ar
    14    6    8 1
    15    7   27 1
    16    8   28 1
    17    8   29 1
    18    8   30 1
    19    9   10 2
    20    9   11 1
    21   11   12 1
    22   11   13 1
    23   11   15 1
    24   13   14 3
    25   15   20 ar
    26   15   16 ar
    27   16   17 ar
    28   16   31 1
    29   17   18 ar
    30   17   32 1
    31   18   19 ar
    32   18   21 1
    33   19   20 ar
    34   19   33 1
    35   20   34 1
@<TRIPOS>MOLECULE
ZINC43726455
   58    61     0     0     0
SMALL
USER_CHARGES

@<TRIPOS>ATOM
      1 C1         -0.0187    1.5258    0.0104 C.3       1 <0>        -0.1514
      2 C2          0.0021   -0.0041    0.0020 C.3       1 <0>        -0.1226
      3 C3         -1.4333   -0.5336    0.0129 C.3       1 <0>         0.0611
      4 O1         -1.4139   -1.9625    0.0050 O.3       1 <0>        -0.3742
      5 C4         -2.7113   -2.5614    0.0142 C.3       1 <0>         0.0975
      6 H1         -3.4226   -1.9124    0.5250 H         1 <0>         0.0615
      7 C5         -3.1838   -2.8405   -1.4344 C.3       1 <0>        -0.1466
      8 C6         -3.3035   -4.3833   -1.5666 C.3       1 <0>        -0.1143
      9 C7         -2.3497   -4.8955   -0.4818 C.3       1 <0>        -0.0787
     10 H2         -1.3143   -4.7853   -0.8043 H         1 <0>         0.0789
     11 C8         -2.6586   -3.9259    0.6938 C.3       1 <0>        -0.0601
     12 C9         -1.5742   -4.1206    1.7360 C.3       1 <0>        -0.0916
     13 C10        -1.7096   -5.5553    2.2709 C.3       1 <0>        -0.1240
     14 C11        -1.6038   -6.5852    1.1505 C.3       1 <0>        -0.0651
     15 H3         -0.5985   -6.5567    0.7301 H         1 <0>         0.0703
     16 C12        -2.6021   -6.3102    0.0058 C.3       1 <0>        -0.0796
     17 H4         -3.6175   -6.3881    0.3945 H         1 <0>         0.0851
     18 C13        -2.3988   -7.3034   -1.1384 C.3       1 <0>        -0.1099
     19 C14        -2.6789   -8.7296   -0.6503 C.3       1 <0>        -0.0972
     20 C15        -1.7906   -8.9861    0.5553 C.2       1 <0>        -0.0245
     21 C16        -1.0038  -10.0586    0.5570 C.2       1 <0>        -0.2421
     22 C17        -0.1118  -10.2865    1.7029 C.2       1 <0>         0.3888
     23 O2          0.2789  -11.3951    2.0032 O.2       1 <0>        -0.4580
     24 C18         0.2905   -9.0519    2.4878 C.3       1 <0>        -0.1641
     25 C19        -0.9898   -8.3117    2.8729 C.3       1 <0>        -0.1122
     26 C20        -1.8760   -7.9813    1.7112 C.3       1 <0>        -0.0251
     27 C21        -3.3177   -7.9691    2.2231 C.3       1 <0>        -0.1548
     28 C22        -4.0255   -4.2586    1.2954 C.3       1 <0>        -0.1507
     29 H5          1.0039    1.9031    0.0027 H         1 <0>         0.0616
     30 H6         -0.5459    1.8868   -0.8726 H         1 <0>         0.0555
     31 H7         -0.5289    1.8773    0.9072 H         1 <0>         0.0555
     32 H8          0.5123   -0.3556   -0.8948 H         1 <0>         0.0691
     33 H9          0.5293   -0.3651    0.8851 H         1 <0>         0.0694
     34 H10        -1.9435   -0.1821    0.9097 H         1 <0>         0.0461
     35 H11        -1.9605   -0.1726   -0.8702 H         1 <0>         0.0457
     36 H12        -4.1534   -2.3738   -1.6081 H         1 <0>         0.0656
     37 H13        -2.4518   -2.4596   -2.1466 H         1 <0>         0.0735
     38 H14        -4.3244   -4.7094   -1.3679 H         1 <0>         0.0682
     39 H15        -2.9775   -4.7123   -2.5534 H         1 <0>         0.0663
     40 H16        -0.5931   -3.9854    1.2806 H         1 <0>         0.0718
     41 H17        -1.7085   -3.4071    2.5491 H         1 <0>         0.0611
     42 H18        -0.9199   -5.7394    2.9993 H         1 <0>         0.0668
     43 H19        -2.6768   -5.6620    2.7621 H         1 <0>         0.0722
     44 H20        -3.0795   -7.0600   -1.9541 H         1 <0>         0.0711
     45 H21        -1.3709   -7.2386   -1.4954 H         1 <0>         0.0654
     46 H22        -3.7265   -8.8234   -0.3643 H         1 <0>         0.0826
     47 H23        -2.4451   -9.4433   -1.4403 H         1 <0>         0.0769
     48 H24        -1.0204  -10.7518   -0.2710 H         1 <0>         0.1357
     49 H25         0.8325   -9.3456    3.3867 H         1 <0>         0.0921
     50 H26         0.9178   -8.4092    1.8702 H         1 <0>         0.0985
     51 H27        -1.5589   -8.9291    3.5680 H         1 <0>         0.0700
     52 H28        -0.7224   -7.3791    3.3697 H         1 <0>         0.0873
     53 H29        -3.9939   -7.7411    1.3991 H         1 <0>         0.0669
     54 H30        -3.5650   -8.9470    2.6361 H         1 <0>         0.0560
     55 H31        -3.4214   -7.2103    2.9988 H         1 <0>         0.0688
     56 H32        -4.7798   -4.2532    0.5086 H         1 <0>         0.0580
     57 H33        -3.9889   -5.2454    1.7569 H         1 <0>         0.0723
     58 H34        -4.2815   -3.5141    2.0493 H         1 <0>         0.0538
@<TRIPOS>BOND
     1    1    2 1
     2    1   29 1
     3    1   30 1
     4    1   31 1
     5    2    3 1
     6    2   32 1
     7    2   33 1
     8    3    4 1
     9    3   34 1
    10    3   35 1
    11    4    5 1
    12    5    6 1
    13    5   11 1
    14    5    7 1
    15    7    8 1
    16    7   36 1
    17    7   37 1
    18    8    9 1
    19    8   38 1
    20    8   39 1
    21    9   10 1
    22    9   16 1
    23    9   11 1
    24   11   12 1
    25   11   28 1
    26   12   13 1
    27   12   40 1
    28   12   41 1
    29   13   14 1
    30   13   42 1
    31   13   43 1
    32   14   15 1
    33   14   26 1
    34   14   16 1
    35   16   17 1
    36   16   18 1
    37   18   19 1
    38   18   44 1
    39   18   45 1
    40   19   20 1
    41   19   46 1
    42   19   47 1
    43   20   26 1
    44   20   21 2
    45   21   22 1
    46   21   48 1
    47   22   23 2
    48   22   24 1
    49   24   25 1
    50   24   49 1
    51   24   50 1
    52   25   26 1
    53   25   51 1
    54   25   52 1
    55   26   27 1
    56   27   53 1
    57   27   54 1
    58   27   55 1
    59   28   56 1
    60   28   57 1
    61   28   58 1
@<TRIPOS>MOLECULE
ZINC58713928
   38    39     0     0     0
SMALL
USER_CHARGES

@<TRIPOS>ATOM
      1 C1          0.2996    1.4643    0.5819 C.3       1 <0>        -0.1713
      2 C2          0.0033    0.0642    0.0406 C.3       1 <0>         0.1151
      3 N1         -1.4442   -0.1616    0.0368 N.am      1 <0>        -0.5646
      4 C3         -2.1861    0.0774   -1.1244 C.ar      1 <0>         0.1282
      5 C4         -2.2285   -0.8777   -2.1322 C.ar      1 <0>        -0.1195
      6 C5         -2.9624   -0.6388   -3.2772 C.ar      1 <0>        -0.0800
      7 C6         -3.6548    0.5498   -3.4213 C.ar      1 <0>        -0.1076
      8 C7         -3.6143    1.5026   -2.4202 C.ar      1 <0>        -0.1045
      9 C8         -2.8867    1.2675   -1.2699 C.ar      1 <0>        -0.0785
     10 C9         -2.8486    2.3038   -0.1764 C.3       1 <0>        -0.1159
     11 C10        -3.0085   -1.6741   -4.3713 C.3       1 <0>        -0.1168
     12 C11        -2.0608   -0.5997    1.1523 C.2       1 <0>         0.5689
     13 O1         -1.4347   -0.7136    2.1880 O.2       1 <0>        -0.5160
     14 C12        -3.4984   -0.9416    1.1163 C.ar      1 <0>        -0.1234
     15 C13        -4.0179   -1.6755    0.0482 C.ar      1 <0>        -0.0691
     16 C14        -5.3602   -1.9919    0.0205 C.ar      1 <0>        -0.1167
     17 C15        -6.1920   -1.5838    1.0482 C.ar      1 <0>        -0.0673
     18 C16        -5.6838   -0.8558    2.1102 C.ar      1 <0>        -0.0974
     19 C17        -4.3411   -0.5371    2.1526 C.ar      1 <0>        -0.0399
     20 Br1        -6.8295   -0.3030    3.5094 Br        1 <0>        -0.0397
     21 H1          1.3766    1.6323    0.5847 H         1 <0>         0.0694
     22 H2         -0.1825    2.2085   -0.0520 H         1 <0>         0.0591
     23 H3         -0.0841    1.5495    1.5986 H         1 <0>         0.0632
     24 H4          0.3870   -0.0209   -0.9761 H         1 <0>         0.0821
     25 H5          0.4855   -0.6799    0.6744 H         1 <0>         0.0860
     26 H6         -1.6877   -1.8059   -2.0205 H         1 <0>         0.1278
     27 H7         -4.2280    0.7341   -4.3178 H         1 <0>         0.1270
     28 H8         -4.1555    2.4300   -2.5361 H         1 <0>         0.1282
     29 H9         -2.0157    2.9851   -0.3503 H         1 <0>         0.0748
     30 H10        -3.7830    2.8651   -0.1751 H         1 <0>         0.0697
     31 H11        -2.7196    1.8107    0.7871 H         1 <0>         0.0629
     32 H12        -3.8444   -2.3513   -4.1957 H         1 <0>         0.0730
     33 H13        -3.1376   -1.1798   -5.3341 H         1 <0>         0.0698
     34 H14        -2.0770   -2.2402   -4.3754 H         1 <0>         0.0676
     35 H15        -3.3701   -1.9946   -0.7549 H         1 <0>         0.1391
     36 H16        -5.7630   -2.5593   -0.8055 H         1 <0>         0.1383
     37 H17        -7.2423   -1.8339    1.0213 H         1 <0>         0.1381
     38 H18        -3.9446    0.0273    2.9836 H         1 <0>         0.1397
@<TRIPOS>BOND
     1    1    2 1
     2    1   21 1
     3    1   22 1
     4    1   23 1
     5    2    3 1
     6    2   24 1
     7    2   25 1
     8    3    4 1
     9    3   12 am
    10    4    9 ar
    11    4    5 ar
    12    5    6 ar
    13    5   26 1
    14    6    7 ar
    15    6   11 1
    16    7    8 ar
    17    7   27 1
    18    8    9 ar
    19    8   28 1
    20    9   10 1
    21   10   29 1
    22   10   30 1
    23   10   31 1
    24   11   32 1
    25   11   33 1
    26   11   34 1
    27   12   13 2
    28   12   14 1
    29   14   19 ar
    30   14   15 ar
    31   15   16 ar
    32   15   35 1
    33   16   17 ar
    34   16   36 1
    35   17   18 ar
    36   17   37 1
    37   18   19 ar
    38   18   20 1
    39   19   38 1
@<TRIPOS>MOLECULE
ZINC04426834
   59    61     0     0     0
SMALL
USER_CHARGES
(3,4-dimethylcyclohexyl) 4-(2,5-dimethoxyphenyl)-6-methyl-2-thioxo-3,4-dihydro-1H-pyrimidine-5-carboxylate
@<TRIPOS>ATOM
      1 C1         -9.1215    4.6708   -1.1316 C.3       1 <0>        -0.1506
      2 C2         -7.7898    3.9246   -1.0281 C.3       1 <0>        -0.0893
      3 H1         -7.8752    2.9583   -1.5252 H         1 <0>         0.0710
      4 C3         -6.6899    4.7486   -1.7006 C.3       1 <0>        -0.1105
      5 C4         -5.3582    4.0024   -1.5971 C.3       1 <0>        -0.1331
      6 C5         -5.0066    3.7886   -0.1235 C.3       1 <0>         0.0935
      7 H2         -4.9212    4.7549    0.3736 H         1 <0>         0.0828
      8 C6         -6.1065    2.9646    0.5489 C.3       1 <0>        -0.1079
      9 C7         -7.4382    3.7108    0.4455 C.3       1 <0>        -0.0826
     10 H3         -7.3528    4.6771    0.9425 H         1 <0>         0.0733
     11 C8         -8.5381    2.8868    1.1179 C.3       1 <0>        -0.1489
     12 O1         -3.7628    3.0916   -0.0268 O.3       1 <0>        -0.3344
     13 C9         -2.6386    3.8374   -0.0584 C.2       1 <0>         0.5348
     14 O2         -2.7146    5.0508   -0.1109 O.2       1 <0>        -0.5091
     15 C10        -1.3721    3.2089   -0.0303 C.2       1 <0>        -0.2638
     16 C11        -0.2326    3.9296   -0.1146 C.2       1 <0>         0.2323
     17 N1          0.9889    3.3218   -0.0883 N.pl3     1 <0>        -0.5987
     18 C12         1.1576    1.9980    0.0206 C.2       1 <0>         0.5562
     19 S1          2.7482    1.3650    0.0414 S.2       1 <0>        -0.5923
     20 N2          0.1164    1.1475    0.1148 N.pl3     1 <0>        -0.6363
     21 C13        -1.2470    1.7035    0.0901 C.3       1 <0>         0.2265
     22 H4         -1.7506    1.3996    1.0078 H         1 <0>         0.1100
     23 C14        -1.9829    1.0782   -1.0668 C.ar      1 <0>        -0.0948
     24 C15        -2.1648    1.7911   -2.2362 C.ar      1 <0>        -0.0862
     25 C16        -2.8416    1.2155   -3.3010 C.ar      1 <0>         0.0975
     26 C17        -3.3359   -0.0761   -3.1920 C.ar      1 <0>        -0.1573
     27 C18        -3.1533   -0.7890   -2.0233 C.ar      1 <0>        -0.1636
     28 C19        -2.4725   -0.2148   -0.9597 C.ar      1 <0>         0.1117
     29 O3         -2.2886   -0.9185    0.1893 O.3       1 <0>        -0.3181
     30 C20        -2.7163   -2.2819    0.1905 C.3       1 <0>         0.0270
     31 O4         -3.0210    1.9172   -4.4518 O.3       1 <0>        -0.3155
     32 C21        -3.7271    1.2624   -5.5076 C.3       1 <0>         0.0271
     33 C22        -0.3116    5.4293   -0.2403 C.3       1 <0>        -0.1215
     34 H5         -9.0361    5.6371   -0.6345 H         1 <0>         0.0551
     35 H6         -9.3720    4.8232   -2.1814 H         1 <0>         0.0544
     36 H7         -9.9051    4.0838   -0.6526 H         1 <0>         0.0590
     37 H8         -6.9404    4.9009   -2.7504 H         1 <0>         0.0682
     38 H9         -6.6045    5.7149   -1.2035 H         1 <0>         0.0656
     39 H10        -4.5746    4.5894   -2.0761 H         1 <0>         0.0679
     40 H11        -5.4436    3.0361   -2.0942 H         1 <0>         0.0694
     41 H12        -6.1919    1.9983    0.0519 H         1 <0>         0.0730
     42 H13        -5.8560    2.8123    1.5988 H         1 <0>         0.0712
     43 H14        -8.2876    2.7345    2.1677 H         1 <0>         0.0555
     44 H15        -9.4868    3.4184    1.0442 H         1 <0>         0.0617
     45 H16        -8.6235    1.9205    0.6208 H         1 <0>         0.0552
     46 H17         1.7795    3.8802   -0.1524 H         1 <0>         0.4443
     47 H18         0.2615    0.1916    0.1929 H         1 <0>         0.4481
     48 H19        -1.7796    2.7964   -2.3212 H         1 <0>         0.1299
     49 H20        -3.8633   -0.5242   -4.0211 H         1 <0>         0.1332
     50 H21        -3.5379   -1.7946   -1.9385 H         1 <0>         0.1349
     51 H22        -3.7901   -2.3260    0.0084 H         1 <0>         0.0565
     52 H23        -2.1921   -2.8279   -0.5938 H         1 <0>         0.0570
     53 H24        -2.4931   -2.7319    1.1579 H         1 <0>         0.1033
     54 H25        -3.1917    0.3580   -5.7965 H         1 <0>         0.0552
     55 H26        -4.7281    0.9987   -5.1663 H         1 <0>         0.0553
     56 H27        -3.8001    1.9311   -6.3653 H         1 <0>         0.1016
     57 H28         0.6953    5.8428   -0.2962 H         1 <0>         0.0746
     58 H29        -0.8620    5.6896   -1.1443 H         1 <0>         0.1088
     59 H30        -0.8254    5.8401    0.6289 H         1 <0>         0.1119
@<TRIPOS>BOND
     1    1    2 1
     2    1   34 1
     3    1   35 1
     4    1   36 1
     5    2    3 1
     6    2    9 1
     7    2    4 1
     8    4    5 1
     9    4   37 1
    10    4   38 1
    11    5    6 1
    12    5   39 1
    13    5   40 1
    14    6    7 1
    15    6    8 1
    16    6   12 1
    17    8    9 1
    18    8   41 1
    19    8   42 1
    20    9   10 1
    21    9   11 1
    22   11   43 1
    23   11   44 1
    24   11   45 1
    25   12   13 1
    26   13   14 2
    27   13   15 1
    28   15   21 1
    29   15   16 2
    30   16   17 1
    31   16   33 1
    32   17   18 1
    33   17   46 1
    34   18   19 2
    35   18   20 1
    36   20   21 1
    37   20   47 1
    38   21   22 1
    39   21   23 1
    40   23   28 ar
    41   23   24 ar
    42   24   25 ar
    43   24   48 1
    44   25   26 ar
    45   25   31 1
    46   26   27 ar
    47   26   49 1
    48   27   28 ar
    49   27   50 1
    50   28   29 1
    51   29   30 1
    52   30   51 1
    53   30   52 1
    54   30   53 1
    55   31   32 1
    56   32   54 1
    57   32   55 1
    58   32   56 1
    59   33   57 1
    60   33   58 1
    61   33   59 1
@<TRIPOS>MOLECULE
ZINC08959144
   54    56     0     0     0
SMALL
USER_CHARGES
4-butoxy-N-(4,4-dimethyl-3-oxo-6-oxa-2-azabicyclo[5.4.0]undeca-8,10,12-trien-9-yl)-benzamide
@<TRIPOS>ATOM
      1 C1          9.1067    6.0033   -0.3691 C.3       1 <0>        -0.1535
      2 C2          8.0027    4.9503   -0.2535 C.3       1 <0>        -0.1216
      3 C3          6.6433    5.6074   -0.5002 C.3       1 <0>        -0.1211
      4 C4          5.5393    4.5544   -0.3847 C.3       1 <0>         0.0554
      5 O1          4.2696    5.1682   -0.6151 O.3       1 <0>        -0.3089
      6 C5          3.1766    4.3665   -0.5486 C.ar      1 <0>         0.1655
      7 C6          1.9113    4.9004   -0.7628 C.ar      1 <0>        -0.1604
      8 C7          0.7997    4.0904   -0.6962 C.ar      1 <0>        -0.0126
      9 C8          0.9451    2.7297   -0.4129 C.ar      1 <0>        -0.1828
     10 C9          2.2185    2.1978   -0.1930 C.ar      1 <0>        -0.0406
     11 C10         3.3255    3.0135   -0.2670 C.ar      1 <0>        -0.2183
     12 C11        -0.2434    1.8580   -0.3401 C.2       1 <0>         0.5663
     13 O2         -1.3508    2.3225   -0.5317 O.2       1 <0>        -0.5144
     14 N1         -0.1012    0.5459   -0.0667 N.am      1 <0>        -0.6707
     15 C12        -1.2328   -0.2595    0.1073 C.ar      1 <0>         0.1581
     16 C13        -1.2045   -1.5902   -0.2899 C.ar      1 <0>        -0.1298
     17 C14        -2.3175   -2.3899   -0.1129 C.ar      1 <0>        -0.1012
     18 C15        -3.4672   -1.8603    0.4507 C.ar      1 <0>         0.1044
     19 C16        -3.5019   -0.5227    0.8422 C.ar      1 <0>         0.1063
     20 C17        -2.3839    0.2747    0.6716 C.ar      1 <0>        -0.1179
     21 O3         -4.6378   -0.0087    1.3837 O.3       1 <0>        -0.3217
     22 C18        -5.7172    0.2654    0.4943 C.3       1 <0>         0.0781
     23 C19        -5.9012   -0.8849   -0.4930 C.3       1 <0>        -0.1202
     24 C20        -5.8089   -2.2051    0.2278 C.2       1 <0>         0.5366
     25 O4         -6.8108   -2.8553    0.4393 O.2       1 <0>        -0.5172
     26 N2         -4.6041   -2.6612    0.6369 N.am      1 <0>        -0.6690
     27 C21        -4.8105   -0.8140   -1.5636 C.3       1 <0>        -0.1661
     28 C22        -7.2738   -0.7648   -1.1581 C.3       1 <0>        -0.1288
     29 H1          9.0898    6.4393   -1.3680 H         1 <0>         0.0566
     30 H2          8.9415    6.7857    0.3717 H         1 <0>         0.0566
     31 H3         10.0752    5.5351   -0.1933 H         1 <0>         0.0583
     32 H4          8.0196    4.5143    0.7454 H         1 <0>         0.0654
     33 H5          8.1679    4.1679   -0.9943 H         1 <0>         0.0653
     34 H6          6.6264    6.0434   -1.4991 H         1 <0>         0.0756
     35 H7          6.4781    6.3898    0.2405 H         1 <0>         0.0757
     36 H8          5.5562    4.1184    0.6142 H         1 <0>         0.0661
     37 H9          5.7045    3.7720   -1.1254 H         1 <0>         0.0661
     38 H10         1.7997    5.9522   -0.9814 H         1 <0>         0.1414
     39 H11        -0.1830    4.5060   -0.8631 H         1 <0>         0.1459
     40 H12         2.3347    1.1475    0.0303 H         1 <0>         0.1291
     41 H13         4.3104    2.6023   -0.1019 H         1 <0>         0.1364
     42 H14         0.7854    0.1598    0.0095 H         1 <0>         0.4124
     43 H15        -0.3100   -2.0015   -0.7339 H         1 <0>         0.1377
     44 H16        -2.2926   -3.4258   -0.4175 H         1 <0>         0.1402
     45 H17        -2.4066    1.3105    0.9763 H         1 <0>         0.1505
     46 H18        -5.5067    1.1824   -0.0560 H         1 <0>         0.0777
     47 H19        -6.6325    0.3941    1.0722 H         1 <0>         0.1107
     48 H20        -4.5263   -3.5332    1.0546 H         1 <0>         0.4132
     49 H21        -4.7427   -1.7731   -2.0772 H         1 <0>         0.0647
     50 H22        -5.0578   -0.0333   -2.2830 H         1 <0>         0.0728
     51 H23        -3.8541   -0.5852   -1.0935 H         1 <0>         0.0800
     52 H24        -8.0523   -0.8196   -0.3972 H         1 <0>         0.0708
     53 H25        -7.3423    0.1897   -1.6800 H         1 <0>         0.0698
     54 H26        -7.4046   -1.5789   -1.8710 H         1 <0>         0.0672
@<TRIPOS>BOND
     1    1    2 1
     2    1   29 1
     3    1   30 1
     4    1   31 1
     5    2    3 1
     6    2   32 1
     7    2   33 1
     8    3    4 1
     9    3   34 1
    10    3   35 1
    11    4    5 1
    12    4   36 1
    13    4   37 1
    14    5    6 1
    15    6   11 ar
    16    6    7 ar
    17    7    8 ar
    18    7   38 1
    19    8    9 ar
    20    8   39 1
    21    9   10 ar
    22    9   12 1
    23   10   11 ar
    24   10   40 1
    25   11   41 1
    26   12   13 2
    27   12   14 am
    28   14   15 1
    29   14   42 1
    30   15   20 ar
    31   15   16 ar
    32   16   17 ar
    33   16   43 1
    34   17   18 ar
    35   17   44 1
    36   18   26 1
    37   18   19 ar
    38   19   20 ar
    39   19   21 1
    40   20   45 1
    41   21   22 1
    42   22   23 1
    43   22   46 1
    44   22   47 1
    45   23   24 1
    46   23   27 1
    47   23   28 1
    48   24   25 2
    49   24   26 am
    50   26   48 1
    51   27   49 1
    52   27   50 1
    53   27   51 1
    54   28   52 1
    55   28   53 1
    56   28   54 1
@<TRIPOS>MOLECULE
ZINC17091103
   58    60     0     0     0
SMALL
USER_CHARGES
N-[4-[N-[(4-tert-butylbenzoyl)amino]-C-methyl-carbonimidoyl]phenyl]-5-methyl-furan-2-carboxamide
@<TRIPOS>ATOM
      1 C1         12.8295    0.4917    0.4020 C.3       1 <0>        -0.0825
      2 C2         11.8903    1.2605   -0.4912 C.2       1 <0>         0.0326
      3 C3         12.0089    1.3914   -1.8309 C.2       1 <0>        -0.2249
      4 C4         10.9325    2.1802   -2.2659 C.2       1 <0>        -0.0998
      5 C5         10.2022    2.4945   -1.1555 C.2       1 <0>        -0.0963
      6 O1         10.8037    1.9314   -0.0872 O.3       1 <0>        -0.1645
      7 C6          8.9820    3.3069   -1.1283 C.2       1 <0>         0.6090
      8 O2          8.5350    3.7684   -2.1620 O.2       1 <0>        -0.4956
      9 N1          8.3554    3.5427    0.0414 N.am      1 <0>        -0.6675
     10 C7          7.1388    4.2282    0.0560 C.ar      1 <0>         0.1609
     11 C8          6.2054    4.0060   -0.9508 C.ar      1 <0>        -0.1112
     12 C9          5.0042    4.6799   -0.9396 C.ar      1 <0>        -0.1023
     13 C10         4.7241    5.5884    0.0851 C.ar      1 <0>        -0.1128
     14 C11         5.6673    5.8136    1.0918 C.ar      1 <0>        -0.0645
     15 C12         6.8636    5.1309    1.0774 C.ar      1 <0>        -0.1350
     16 C13         3.4399    6.3115    0.1008 C.2       1 <0>         0.1389
     17 N2          2.3538    5.7141   -0.2854 N.2       1 <0>        -0.2227
     18 N3          2.3758    4.3459   -0.5856 N.am      1 <0>        -0.5851
     19 C14         1.2784    3.7494   -1.0920 C.2       1 <0>         0.5741
     20 O3          0.2693    4.3988   -1.2883 O.2       1 <0>        -0.4996
     21 C15         1.3016    2.3060   -1.4087 C.ar      1 <0>        -0.1395
     22 C16         0.1666    1.6850   -1.9334 C.ar      1 <0>        -0.0503
     23 C17         0.1952    0.3375   -2.2272 C.ar      1 <0>        -0.1214
     24 C18         1.3454   -0.3983   -2.0034 C.ar      1 <0>        -0.0386
     25 C19         2.4736    0.2108   -1.4832 C.ar      1 <0>        -0.1267
     26 C20         2.4585    1.5575   -1.1845 C.ar      1 <0>        -0.0844
     27 C21         1.3693   -1.8699   -2.3273 C.3       1 <0>        -0.0347
     28 C22         1.0848   -2.0689   -3.8173 C.3       1 <0>        -0.1406
     29 C23         2.7468   -2.4440   -1.9900 C.3       1 <0>        -0.1469
     30 C24         0.3006   -2.5909   -1.5033 C.3       1 <0>        -0.1404
     31 C25         3.3875    7.7442    0.5651 C.3       1 <0>        -0.0951
     32 H1         13.6227    1.1531    0.7504 H         1 <0>         0.0899
     33 H2         12.2791    0.1020    1.2584 H         1 <0>         0.0821
     34 H3         13.2660   -0.3363   -0.1566 H         1 <0>         0.0961
     35 H4         12.7862    0.9689   -2.4505 H         1 <0>         0.1604
     36 H5         10.7227    2.4807   -3.2818 H         1 <0>         0.1634
     37 H6          8.7493    3.2362    0.8731 H         1 <0>         0.4182
     38 H7          6.4226    3.3039   -1.7422 H         1 <0>         0.1386
     39 H8          4.2795    4.5064   -1.7213 H         1 <0>         0.1311
     40 H9          5.4562    6.5181    1.8827 H         1 <0>         0.1397
     41 H10         7.5908    5.3006    1.8577 H         1 <0>         0.1357
     42 H11         3.1808    3.8278   -0.4290 H         1 <0>         0.3896
     43 H12        -0.7302    2.2593   -2.1130 H         1 <0>         0.1392
     44 H13        -0.6821   -0.1441   -2.6331 H         1 <0>         0.1322
     45 H14         3.3679   -0.3694   -1.3102 H         1 <0>         0.1347
     46 H15         3.3396    2.0317   -0.7782 H         1 <0>         0.1201
     47 H16         1.8461   -1.5553   -4.4044 H         1 <0>         0.0578
     48 H17         1.1021   -3.1333   -4.0516 H         1 <0>         0.0620
     49 H18         0.1034   -1.6599   -4.0576 H         1 <0>         0.0593
     50 H19         2.9495   -2.3023   -0.9284 H         1 <0>         0.0597
     51 H20         2.7641   -3.5084   -2.2242 H         1 <0>         0.0616
     52 H21         3.5082   -1.9304   -2.5770 H         1 <0>         0.0598
     53 H22        -0.6808   -2.1819   -1.7436 H         1 <0>         0.0593
     54 H23         0.3179   -3.6553   -1.7375 H         1 <0>         0.0620
     55 H24         0.5033   -2.4491   -0.4417 H         1 <0>         0.0577
     56 H25         3.2075    7.7716    1.6397 H         1 <0>         0.0875
     57 H26         4.3361    8.2330    0.3430 H         1 <0>         0.0839
     58 H27         2.5810    8.2644    0.0482 H         1 <0>         0.0857
@<TRIPOS>BOND
     1    1    2 1
     2    1   32 1
     3    1   33 1
     4    1   34 1
     5    2    6 1
     6    2    3 2
     7    3    4 1
     8    3   35 1
     9    4    5 2
    10    4   36 1
    11    5    6 1
    12    5    7 1
    13    7    8 2
    14    7    9 am
    15    9   10 1
    16    9   37 1
    17   10   15 ar
    18   10   11 ar
    19   11   12 ar
    20   11   38 1
    21   12   13 ar
    22   12   39 1
    23   13   14 ar
    24   13   16 1
    25   14   15 ar
    26   14   40 1
    27   15   41 1
    28   16   17 2
    29   16   31 1
    30   17   18 1
    31   18   19 am
    32   18   42 1
    33   19   20 2
    34   19   21 1
    35   21   26 ar
    36   21   22 ar
    37   22   23 ar
    38   22   43 1
    39   23   24 ar
    40   23   44 1
    41   24   25 ar
    42   24   27 1
    43   25   26 ar
    44   25   45 1
    45   26   46 1
    46   27   28 1
    47   27   29 1
    48   27   30 1
    49   28   47 1
    50   28   48 1
    51   28   49 1
    52   29   50 1
    53   29   51 1
    54   29   52 1
    55   30   53 1
    56   30   54 1
    57   30   55 1
    58   31   56 1
    59   31   57 1
    60   31   58 1
@<TRIPOS>MOLECULE
ZINC36625123
   64    69     0     0     0
SMALL
USER_CHARGES

@<TRIPOS>ATOM
      1 C1         -0.0187    1.5258    0.0104 C.3       1 <0>        -0.1108
      2 C2          1.4167    2.0553   -0.0004 C.3       1 <0>        -0.0838
      3 C3          2.1567    1.5485    1.2391 C.3       1 <0>        -0.1106
      4 C4          2.1775    0.0187    1.2307 C.3       1 <0>        -0.0838
      5 C5          0.7421   -0.5109    1.2415 C.3       1 <0>        -0.1109
      6 C6          0.0021   -0.0041    0.0020 C.3       1 <0>        -0.0869
      7 C7          0.7182   -0.4975   -1.2568 C.3       1 <0>        -0.0878
      8 C8          2.1536    0.0321   -1.2676 C.3       1 <0>        -0.0656
      9 C9          2.1328    1.5619   -1.2592 C.3       1 <0>        -0.1018
     10 C10         2.8936   -0.4747   -0.0281 C.3       1 <0>        -0.1018
     11 C11         2.8590   -0.4539   -2.5075 C.2       1 <0>         0.5300
     12 O1          2.2715   -1.1548   -3.3041 O.2       1 <0>        -0.5284
     13 N1          4.1427   -0.1096   -2.7312 N.am      1 <0>        -0.7244
     14 C12         4.8284   -0.5821   -3.9366 C.3       1 <0>         0.1298
     15 C13         6.2422   -0.0605   -3.9472 C.2       1 <0>         0.4411
     16 O2          6.6379    0.6371   -3.0378 O.2       1 <0>        -0.4958
     17 O3          7.0611   -0.3672   -4.9608 O.3       1 <0>        -0.1004
     18 N2          8.3579    0.1890   -4.8420 N.am      1 <0>        -0.5759
     19 C14         9.2786   -0.0427   -5.7941 C.2       1 <0>         0.5357
     20 O4          8.9982   -0.7284   -6.7553 O.2       1 <0>        -0.5046
     21 C15        10.6587    0.5492   -5.6677 C.3       1 <0>        -0.0496
     22 C16        10.5565    2.0749   -5.6158 C.3       1 <0>        -0.1062
     23 C17        11.9577    2.6759   -5.4874 C.3       1 <0>        -0.0833
     24 C18        12.8026    2.2621   -6.6940 C.3       1 <0>        -0.1120
     25 C19        12.9048    0.7364   -6.7459 C.3       1 <0>        -0.0859
     26 C20        11.5036    0.1355   -6.8743 C.3       1 <0>        -0.0892
     27 C21        13.5633    0.2254   -5.4629 C.3       1 <0>        -0.1120
     28 C22        12.7184    0.6392   -4.2563 C.3       1 <0>        -0.0833
     29 C23        12.6162    2.1649   -4.2044 C.3       1 <0>        -0.1120
     30 C24        11.3172    0.0383   -4.3847 C.3       1 <0>        -0.1062
     31 H1         -0.5289    1.8773    0.9072 H         1 <0>         0.0654
     32 H2         -0.5459    1.8868   -0.8726 H         1 <0>         0.0638
     33 H3          1.4019    3.1452    0.0056 H         1 <0>         0.0755
     34 H4          3.1793    1.9258    1.2314 H         1 <0>         0.0637
     35 H5          1.6465    1.9000    2.1359 H         1 <0>         0.0663
     36 H6          2.7046   -0.3424    2.1137 H         1 <0>         0.0756
     37 H7          0.7568   -1.6008    1.2355 H         1 <0>         0.0638
     38 H8          0.2319   -0.1594    2.1383 H         1 <0>         0.0654
     39 H9         -1.0205   -0.3814    0.0098 H         1 <0>         0.0757
     40 H10         0.7330   -1.5874   -1.2628 H         1 <0>         0.0708
     41 H11         0.1910   -0.1364   -2.1398 H         1 <0>         0.0708
     42 H12         1.6057    1.9230   -2.1423 H         1 <0>         0.0695
     43 H13         3.1554    1.9392   -1.2670 H         1 <0>         0.0669
     44 H14         3.9162   -0.0975   -0.0359 H         1 <0>         0.0669
     45 H15         2.9084   -1.5646   -0.0341 H         1 <0>         0.0695
     46 H16         4.6126    0.4510   -2.0942 H         1 <0>         0.4129
     47 H17         4.8432   -1.6720   -3.9425 H         1 <0>         0.1207
     48 H18         4.3012   -0.2210   -4.8196 H         1 <0>         0.1207
     49 H19         8.5820    0.7371   -4.0737 H         1 <0>         0.4249
     50 H20        10.0874    2.4390   -6.5298 H         1 <0>         0.0739
     51 H21         9.9546    2.3697   -4.7562 H         1 <0>         0.0679
     52 H22        11.8848    3.7628   -5.4504 H         1 <0>         0.0784
     53 H23        12.3334    2.6261   -7.6081 H         1 <0>         0.0654
     54 H24        13.8008    2.6902   -6.6026 H         1 <0>         0.0675
     55 H25        13.5067    0.4416   -7.6055 H         1 <0>         0.0790
     56 H26        11.5765   -0.9515   -6.9113 H         1 <0>         0.0745
     57 H27        11.0345    0.4995   -7.7884 H         1 <0>         0.0746
     58 H28        13.6361   -0.8615   -5.4999 H         1 <0>         0.0654
     59 H29        14.5615    0.6536   -5.3715 H         1 <0>         0.0675
     60 H30        13.1875    0.2752   -3.3423 H         1 <0>         0.0784
     61 H31        13.6144    2.5930   -4.1130 H         1 <0>         0.0685
     62 H32        12.0143    2.4597   -3.3448 H         1 <0>         0.0647
     63 H33        10.7153    0.3330   -3.5251 H         1 <0>         0.0679
     64 H34        11.3901   -1.0487   -4.4217 H         1 <0>         0.0739
@<TRIPOS>BOND
     1    1    6 1
     2    1    2 1
     3    1   31 1
     4    1   32 1
     5    2    9 1
     6    2    3 1
     7    2   33 1
     8    3    4 1
     9    3   34 1
    10    3   35 1
    11    4   10 1
    12    4    5 1
    13    4   36 1
    14    5    6 1
    15    5   37 1
    16    5   38 1
    17    6    7 1
    18    6   39 1
    19    7    8 1
    20    7   40 1
    21    7   41 1
    22    8    9 1
    23    8   10 1
    24    8   11 1
    25    9   42 1
    26    9   43 1
    27   10   44 1
    28   10   45 1
    29   11   12 2
    30   11   13 am
    31   13   14 1
    32   13   46 1
    33   14   15 1
    34   14   47 1
    35   14   48 1
    36   15   16 2
    37   15   17 1
    38   17   18 1
    39   18   19 am
    40   18   49 1
    41   19   20 2
    42   19   21 1
    43   21   26 1
    44   21   30 1
    45   21   22 1
    46   22   23 1
    47   22   50 1
    48   22   51 1
    49   23   29 1
    50   23   24 1
    51   23   52 1
    52   24   25 1
    53   24   53 1
    54   24   54 1
    55   25   26 1
    56   25   27 1
    57   25   55 1
    58   26   56 1
    59   26   57 1
    60   27   28 1
    61   27   58 1
    62   27   59 1
    63   28   29 1
    64   28   30 1
    65   28   60 1
    66   29   61 1
    67   29   62 1
    68   30   63 1
    69   30   64 1
@<TRIPOS>MOLECULE
ZINC57651759
   62    64     0     0     0
SMALL
USER_CHARGES

@<TRIPOS>ATOM
      1 C1         -0.0187    1.5258    0.0104 C.3       1 <0>        -0.1544
      2 C2          0.0021   -0.0041    0.0020 C.3       1 <0>        -0.1180
      3 C3         -1.4333   -0.5336    0.0129 C.3       1 <0>        -0.0847
      4 C4         -1.4129   -2.0405    0.0046 C.ar      1 <0>        -0.0691
      5 C5         -1.4092   -2.7251   -1.1963 C.ar      1 <0>        -0.1162
      6 C6         -1.3905   -4.1073   -1.2039 C.ar      1 <0>        -0.0919
      7 C7         -1.3749   -4.8049   -0.0106 C.ar      1 <0>        -0.1018
      8 C8         -1.3777   -4.1203    1.1903 C.ar      1 <0>        -0.0994
      9 C9         -1.3921   -2.7380    1.1979 C.ar      1 <0>        -0.1121
     10 C10        -1.3555   -6.3117   -0.0189 C.3       1 <0>         0.1709
     11 C11        -2.1431   -6.8617    1.1536 C.2       1 <0>         0.5429
     12 O1         -1.9172   -6.6905    2.3324 O.2       1 <0>        -0.4562
     13 N1         -3.1473   -7.5800    0.6133 N.am      1 <0>        -0.5596
     14 C12        -3.1040   -7.5604   -0.7238 C.2       1 <0>         0.7120
     15 O2         -3.9048   -8.1360   -1.4342 O.2       1 <0>        -0.5362
     16 N2         -2.0748   -6.8329   -1.1941 N.am      1 <0>        -0.7153
     17 C13        -4.1606   -8.2946    1.3935 C.3       1 <0>         0.0975
     18 C14        -5.3314   -7.3817    1.6521 C.2       1 <0>         0.5017
     19 O3         -5.3205   -6.2461    1.2266 O.2       1 <0>        -0.5221
     20 N3         -6.3907   -7.8274    2.3563 N.am      1 <0>        -0.7209
     21 C15        -7.5289   -6.9400    2.6078 C.3       1 <0>         0.1502
     22 H1         -7.1708   -5.9196    2.7445 H         1 <0>         0.0925
     23 C16        -8.4867   -6.9889    1.4157 C.3       1 <0>        -0.1295
     24 C17        -9.6755   -6.0621    1.6783 C.3       1 <0>        -0.1191
     25 C18       -10.4090   -6.5187    2.9409 C.3       1 <0>        -0.1174
     26 C19        -9.4511   -6.4698    4.1330 C.3       1 <0>        -0.0821
     27 H2         -9.9737   -6.7951    5.0326 H         1 <0>         0.0755
     28 C20        -8.2624   -7.3966    3.8704 C.3       1 <0>        -0.0930
     29 H3         -8.6205   -8.4170    3.7337 H         1 <0>         0.0761
     30 C21        -7.3045   -7.3477    5.0625 C.3       1 <0>        -0.1506
     31 C22        -8.9485   -5.0376    4.3250 C.3       1 <0>        -0.1575
     32 C23         0.0839   -6.8300    0.0047 C.3       1 <0>        -0.1435
     33 H4          1.0039    1.9031    0.0027 H         1 <0>         0.0559
     34 H5         -0.5459    1.8868   -0.8726 H         1 <0>         0.0547
     35 H6         -0.5289    1.8773    0.9072 H         1 <0>         0.0549
     36 H7          0.5123   -0.3556   -0.8948 H         1 <0>         0.0632
     37 H8          0.5293   -0.3651    0.8851 H         1 <0>         0.0636
     38 H9         -1.9435   -0.1821    0.9097 H         1 <0>         0.0737
     39 H10        -1.9605   -0.1726   -0.8702 H         1 <0>         0.0736
     40 H11        -1.4214   -2.1801   -2.1286 H         1 <0>         0.1259
     41 H12        -1.3883   -4.6421   -2.1422 H         1 <0>         0.1211
     42 H13        -1.3658   -4.6653    2.1226 H         1 <0>         0.1375
     43 H14        -1.3904   -2.2031    2.1361 H         1 <0>         0.1258
     44 H15        -1.8503   -6.6808   -2.1254 H         1 <0>         0.4408
     45 H16        -4.4976   -9.1691    0.8370 H         1 <0>         0.1294
     46 H17        -3.7305   -8.6119    2.3435 H         1 <0>         0.1269
     47 H18        -6.3994   -8.7357    2.6967 H         1 <0>         0.4009
     48 H19        -7.9642   -6.6636    0.5161 H         1 <0>         0.0669
     49 H20        -8.8448   -8.0093    1.2789 H         1 <0>         0.0642
     50 H21        -9.3174   -5.0417    1.8150 H         1 <0>         0.0672
     51 H22       -10.3578   -6.0970    0.8290 H         1 <0>         0.0650
     52 H23       -11.2558   -5.8585    3.1280 H         1 <0>         0.0653
     53 H24       -10.7670   -7.5391    2.8042 H         1 <0>         0.0632
     54 H25        -6.9464   -6.3273    5.1993 H         1 <0>         0.0599
     55 H26        -7.8271   -7.6730    5.9621 H         1 <0>         0.0585
     56 H27        -6.4577   -8.0079    4.8754 H         1 <0>         0.0546
     57 H28        -9.7953   -4.3773    4.5120 H         1 <0>         0.0559
     58 H29        -8.2661   -5.0027    5.1742 H         1 <0>         0.0581
     59 H30        -8.4259   -4.7123    3.4254 H         1 <0>         0.0607
     60 H31         0.5832   -6.4748    0.9061 H         1 <0>         0.0874
     61 H32         0.0777   -7.9200   -0.0017 H         1 <0>         0.0726
     62 H33         0.6161   -6.4646   -0.8735 H         1 <0>         0.0838
@<TRIPOS>BOND
     1    1    2 1
     2    1   33 1
     3    1   34 1
     4    1   35 1
     5    2    3 1
     6    2   36 1
     7    2   37 1
     8    3    4 1
     9    3   38 1
    10    3   39 1
    11    4    9 ar
    12    4    5 ar
    13    5    6 ar
    14    5   40 1
    15    6    7 ar
    16    6   41 1
    17    7    8 ar
    18    7   10 1
    19    8    9 ar
    20    8   42 1
    21    9   43 1
    22   10   16 1
    23   10   11 1
    24   10   32 1
    25   11   12 2
    26   11   13 am
    27   13   14 am
    28   13   17 1
    29   14   15 2
    30   14   16 am
    31   16   44 1
    32   17   18 1
    33   17   45 1
    34   17   46 1
    35   18   19 2
    36   18   20 am
    37   20   21 1
    38   20   47 1
    39   21   22 1
    40   21   28 1
    41   21   23 1
    42   23   24 1
    43   23   48 1
    44   23   49 1
    45   24   25 1
    46   24   50 1
    47   24   51 1
    48   25   26 1
    49   25   52 1
    50   25   53 1
    51   26   27 1
    52   26   28 1
    53   26   31 1
    54   28   29 1
    55   28   30 1
    56   30   54 1
    57   30   55 1
    58   30   56 1
    59   31   57 1
    60   31   58 1
    61   31   59 1
    62   32   60 1
    63   32   61 1
    64   32   62 1
@<TRIPOS>MOLECULE
ZINC04862989
   30    31     0     0     0
SMALL
USER_CHARGES
(4-chlorophenyl)-[5-hydroxy-3,5-bis(trifluoromethyl)-4H-pyrazol-1-yl]-methanone
@<TRIPOS>ATOM
      1 C1         -0.0139    1.3904    0.0121 C.ar      1 <0>        -0.0362
      2 C2          1.1734    2.0916    0.0247 C.ar      1 <0>        -0.1251
      3 C3          2.3811    1.4138    0.0483 C.ar      1 <0>         0.0015
      4 C4          2.4044    0.0289    0.0603 C.ar      1 <0>        -0.1236
      5 C5          1.2237   -0.6834    0.0478 C.ar      1 <0>        -0.0655
      6 C6          0.0031   -0.0058    0.0235 C.ar      1 <0>        -0.1479
      7 C7         -1.2654   -0.7630    0.0105 C.2       1 <0>         0.6031
      8 O1         -2.3257   -0.1745    0.0983 O.2       1 <0>        -0.4794
      9 N1         -1.2473   -2.1063   -0.0986 N.am      1 <0>        -0.4718
     10 C8         -2.4314   -2.9744   -0.2082 C.3       1 <0>         0.2805
     11 C9         -1.8250   -4.3890   -0.3045 C.3       1 <0>        -0.1089
     12 C10        -0.3338   -4.1477   -0.2363 C.2       1 <0>         0.0281
     13 N2         -0.1047   -2.9030   -0.1324 N.2       1 <0>        -0.1549
     14 C11         0.7217   -5.2219   -0.2909 C.3       1 <0>         0.5579
     15 F1          1.9888   -4.6356   -0.2015 F         1 <0>        -0.1539
     16 F2          0.5413   -6.1076    0.7769 F         1 <0>        -0.1529
     17 F3          0.6149   -5.9197   -1.4988 F         1 <0>        -0.1529
     18 C12        -3.3109   -2.8477    1.0373 C.3       1 <0>         0.4295
     19 F4         -3.7606   -1.5285    1.1584 F         1 <0>        -0.1503
     20 F5         -4.4096   -3.7061    0.9217 F         1 <0>        -0.1597
     21 F6         -2.5668   -3.1926    2.1707 F         1 <0>        -0.1682
     22 O2         -3.1769   -2.6640   -1.3872 O.3       1 <0>        -0.5090
     23 Cl1         3.8717    2.3036    0.0630 Cl        1 <0>        -0.0547
     24 H1         -0.9548    1.9200   -0.0112 H         1 <0>         0.1478
     25 H2          1.1616    3.1715    0.0155 H         1 <0>         0.1456
     26 H3          3.3491   -0.4941    0.0790 H         1 <0>         0.1445
     27 H4          1.2431   -1.7632    0.0571 H         1 <0>         0.1737
     28 H5         -2.1520   -5.0036    0.5342 H         1 <0>         0.1415
     29 H6         -2.0962   -4.8582   -1.2502 H         1 <0>         0.1547
     30 H7         -3.5191   -1.7599   -1.4095 H         1 <0>         0.4067
@<TRIPOS>BOND
     1    1    6 ar
     2    1    2 ar
     3    1   24 1
     4    2    3 ar
     5    2   25 1
     6    3    4 ar
     7    3   23 1
     8    4    5 ar
     9    4   26 1
    10    5    6 ar
    11    5   27 1
    12    6    7 1
    13    7    8 2
    14    7    9 am
    15    9   13 1
    16    9   10 1
    17   10   11 1
    18   10   18 1
    19   10   22 1
    20   11   12 1
    21   11   28 1
    22   11   29 1
    23   12   13 2
    24   12   14 1
    25   14   15 1
    26   14   16 1
    27   14   17 1
    28   18   19 1
    29   18   20 1
    30   18   21 1
    31   22   30 1
@<TRIPOS>MOLECULE
ZINC16007386
   42    45     0     0     0
SMALL
USER_CHARGES
(3S,9bS)-N-[2-(4-chlorophenyl)ethyl]-5-oxo-3,9b-dihydro-2H-thiazolo[2,3-a]isoindole-3-carboxamide
@<TRIPOS>ATOM
      1 C1         -2.4071    1.3657    0.0588 C.ar      1 <0>        -0.0857
      2 C2         -2.3986   -0.0181    0.0633 C.ar      1 <0>        -0.1152
      3 C3         -1.2035   -0.7064    0.0350 C.ar      1 <0>        -0.0446
      4 C4          0.0021   -0.0041    0.0020 C.ar      1 <0>        -0.1367
      5 C5         -0.0169    1.3938    0.0097 C.ar      1 <0>        -0.0713
      6 C6         -1.2153    2.0697    0.0321 C.ar      1 <0>        -0.0866
      7 C7          1.4200    1.8281   -0.0017 C.3       1 <0>         0.1929
      8 H1          1.7314    2.2974    0.9315 H         1 <0>         0.1408
      9 N1          2.2057    0.6062   -0.3442 N.am      1 <0>        -0.6230
     10 C8          1.4099   -0.4440   -0.0499 C.2       1 <0>         0.5993
     11 O1          1.7949   -1.5806    0.1435 O.2       1 <0>        -0.4694
     12 C9          3.5169    0.9568   -0.8935 C.3       1 <0>         0.1467
     13 H2          4.2100    1.1178   -0.0678 H         1 <0>         0.1141
     14 C10         3.4945    2.2268   -1.7772 C.3       1 <0>        -0.0783
     15 S1          1.7752    2.8397   -1.5006 S.3       1 <0>        -0.2426
     16 C11         4.0188   -0.1986   -1.7207 C.2       1 <0>         0.5046
     17 O2          3.3462   -1.2015   -1.8327 O.2       1 <0>        -0.4926
     18 N2          5.2152   -0.1173   -2.3360 N.am      1 <0>        -0.7295
     19 C12         5.7031   -1.2404   -3.1402 C.3       1 <0>         0.1256
     20 C13         7.0741   -0.8925   -3.7234 C.3       1 <0>        -0.0910
     21 C14         7.5760   -2.0479   -4.5507 C.ar      1 <0>        -0.0811
     22 C15         8.3405   -3.0381   -3.9625 C.ar      1 <0>        -0.0999
     23 C16         8.7964   -4.1009   -4.7194 C.ar      1 <0>        -0.1078
     24 C17         8.4969   -4.1678   -6.0685 C.ar      1 <0>        -0.0347
     25 C18         7.7364   -3.1735   -6.6578 C.ar      1 <0>        -0.1080
     26 C19         7.2764   -2.1141   -5.8986 C.ar      1 <0>        -0.1001
     27 Cl1         9.0755   -5.4984   -7.0215 Cl        1 <0>        -0.0674
     28 H3         -3.3466    1.8982    0.0759 H         1 <0>         0.1379
     29 H4         -3.3316   -0.5615    0.0895 H         1 <0>         0.1382
     30 H5         -1.2007   -1.7864    0.0387 H         1 <0>         0.1365
     31 H6         -1.2262    3.1497    0.0291 H         1 <0>         0.1340
     32 H7          4.2290    2.9551   -1.4333 H         1 <0>         0.1242
     33 H8          3.6568    1.9763   -2.8255 H         1 <0>         0.1186
     34 H9          5.7531    0.6849   -2.2464 H         1 <0>         0.4019
     35 H10         5.7899   -2.1267   -2.5116 H         1 <0>         0.0731
     36 H11         5.0025   -1.4378   -3.9516 H         1 <0>         0.0727
     37 H12         6.9872   -0.0063   -4.3520 H         1 <0>         0.0840
     38 H13         7.7746   -0.6952   -2.9120 H         1 <0>         0.0840
     39 H14         8.5780   -2.9835   -2.9103 H         1 <0>         0.1331
     40 H15         9.3900   -4.8767   -4.2588 H         1 <0>         0.1352
     41 H16         7.5020   -3.2254   -7.7108 H         1 <0>         0.1352
     42 H17         6.6830   -1.3378   -6.3586 H         1 <0>         0.1329
@<TRIPOS>BOND
     1    1    6 ar
     2    1    2 ar
     3    1   28 1
     4    2    3 ar
     5    2   29 1
     6    3    4 ar
     7    3   30 1
     8    4   10 1
     9    4    5 ar
    10    5    6 ar
    11    5    7 1
    12    6   31 1
    13    7    8 1
    14    7   15 1
    15    7    9 1
    16    9   10 am
    17    9   12 1
    18   10   11 2
    19   12   13 1
    20   12   14 1
    21   12   16 1
    22   14   15 1
    23   14   32 1
    24   14   33 1
    25   16   17 2
    26   16   18 am
    27   18   19 1
    28   18   34 1
    29   19   20 1
    30   19   35 1
    31   19   36 1
    32   20   21 1
    33   20   37 1
    34   20   38 1
    35   21   26 ar
    36   21   22 ar
    37   22   23 ar
    38   22   39 1
    39   23   24 ar
    40   23   40 1
    41   24   25 ar
    42   24   27 1
    43   25   26 ar
    44   25   41 1
    45   26   42 1
@<TRIPOS>MOLECULE
ZINC39464105
   45    48     0     0     0
SMALL
USER_CHARGES

@<TRIPOS>ATOM
      1 C1         -0.0225    1.8097    0.0120 C.3       1 <0>        -0.1527
      2 S1          0.0021   -0.0041    0.0020 S.3       1 <0>        -0.0860
      3 C2          0.8767   -0.4266    1.4721 C.ar      1 <0>        -0.1217
      4 C3          1.3490    0.5703    2.3122 C.ar      1 <0>        -0.1020
      5 C4          2.0387    0.2434    3.4702 C.ar      1 <0>        -0.0630
      6 C5          2.2544   -1.0813    3.7863 C.ar      1 <0>        -0.0415
      7 C6          1.7838   -2.0821    2.9489 C.ar      1 <0>        -0.1303
      8 C7          1.0914   -1.7622    1.7979 C.ar      1 <0>         0.1272
      9 F1          0.6293   -2.7410    0.9894 F         1 <0>        -0.1240
     10 C8          2.9966   -1.4802    5.0364 C.3       1 <0>        -0.0763
     11 C9          3.8082   -0.2927    5.5536 C.3       1 <0>         0.0321
     12 N1          2.9200    0.8741    5.6675 N.3       1 <0>        -0.2614
     13 C10         2.5309    1.3658    4.3458 C.3       1 <0>         0.0283
     14 H1          3.3995    1.8239    3.8726 H         1 <0>         0.0762
     15 C11         1.4352    2.4304    4.4560 C.3       1 <0>         0.1105
     16 O1          1.9547    3.5527    5.1965 O.3       1 <0>        -0.7252
     17 P1          2.6905    3.2639    6.6179 P.3       1 <0>         2.5043
     18 O2          1.6839    3.0946    7.6895 O.2       1 <0>        -1.0027
     19 N2          3.5380    1.8606    6.4036 N.pl3     1 <0>        -1.0334
     20 C12         3.8235    4.6314    7.0298 C.3       1 <0>        -0.7104
     21 C13         3.0435    5.9169    7.1304 C.ar      1 <0>        -0.0870
     22 C14         2.8621    6.7049    6.0093 C.ar      1 <0>        -0.1170
     23 C15         2.1467    7.8841    6.1016 C.ar      1 <0>        -0.1168
     24 C16         1.6123    8.2751    7.3150 C.ar      1 <0>        -0.1152
     25 C17         1.7929    7.4866    8.4360 C.ar      1 <0>        -0.1142
     26 C18         2.5047    6.3053    8.3428 C.ar      1 <0>        -0.1003
     27 H2          1.0001    2.1870    0.0043 H         1 <0>         0.0859
     28 H3         -0.5497    2.1708   -0.8711 H         1 <0>         0.1154
     29 H4         -0.5327    2.1613    0.9088 H         1 <0>         0.0886
     30 H5          1.1792    1.6074    2.0631 H         1 <0>         0.1384
     31 H6          1.9564   -3.1180    3.2011 H         1 <0>         0.1471
     32 H7          2.2823   -1.7911    5.7988 H         1 <0>         0.1024
     33 H8          3.6687   -2.3082    4.8107 H         1 <0>         0.0955
     34 H9          4.2236   -0.5326    6.5324 H         1 <0>         0.1022
     35 H10         4.6158   -0.0705    4.8561 H         1 <0>         0.0535
     36 H11         1.1397    2.7556    3.4586 H         1 <0>         0.1120
     37 H12         0.5732    2.0152    4.9782 H         1 <0>         0.0944
     38 H13         4.4247    1.7382    6.7774 H         1 <0>         0.4061
     39 H14         4.3096    4.4257    7.9834 H         1 <0>         0.1232
     40 H15         4.5789    4.7249    6.2496 H         1 <0>         0.1043
     41 H16         3.2796    6.3994    5.0612 H         1 <0>         0.1209
     42 H17         2.0056    8.5001    5.2258 H         1 <0>         0.1268
     43 H18         1.0539    9.1967    7.3873 H         1 <0>         0.1269
     44 H19         1.3757    7.7923    9.3841 H         1 <0>         0.1294
     45 H20         2.6426    5.6874    9.2178 H         1 <0>         0.1293
@<TRIPOS>BOND
     1    1    2 1
     2    1   27 1
     3    1   28 1
     4    1   29 1
     5    2    3 1
     6    3    8 ar
     7    3    4 ar
     8    4    5 ar
     9    4   30 1
    10    5   13 1
    11    5    6 ar
    12    6    7 ar
    13    6   10 1
    14    7    8 ar
    15    7   31 1
    16    8    9 1
    17   10   11 1
    18   10   32 1
    19   10   33 1
    20   11   12 1
    21   11   34 1
    22   11   35 1
    23   12   19 1
    24   12   13 1
    25   13   14 1
    26   13   15 1
    27   15   16 1
    28   15   36 1
    29   15   37 1
    30   16   17 1
    31   17   18 2
    32   17   19 1
    33   17   20 1
    34   19   38 1
    35   20   21 1
    36   20   39 1
    37   20   40 1
    38   21   26 ar
    39   21   22 ar
    40   22   23 ar
    41   22   41 1
    42   23   24 ar
    43   23   42 1
    44   24   25 ar
    45   24   43 1
    46   25   26 ar
    47   25   44 1
    48   26   45 1
@<TRIPOS>MOLECULE
ZINC44304713
   30    31     0     0     0
SMALL
USER_CHARGES

@<TRIPOS>ATOM
      1 C1         -0.0187    1.5258    0.0104 C.3       1 <0>        -0.1773
      2 C2          0.0021   -0.0041    0.0020 C.3       1 <0>         0.2351
      3 H1         -1.0205   -0.3814    0.0098 H         1 <0>         0.1193
      4 C3          0.7309   -0.5033    1.2229 C.2       1 <0>        -0.0238
      5 C4          0.1564   -0.9632    2.3489 C.2       1 <0>        -0.1918
      6 C5          1.2050   -1.3223    3.2266 C.2       1 <0>        -0.2126
      7 C6          2.3576   -1.0604    2.5845 C.2       1 <0>        -0.0331
      8 O1          2.0643   -0.5699    1.3691 O.3       1 <0>        -0.1718
      9 N1          0.6878   -0.4765   -1.2033 N.pl3     1 <0>        -1.1109
     10 S1         -0.1875   -0.8749   -2.5515 S.o2      1 <0>         2.6932
     11 O2          0.7512   -1.2650   -3.5445 O.2       1 <0>        -0.9475
     12 O3         -1.2362   -1.7295   -2.1169 O.2       1 <0>        -0.9470
     13 C7         -0.9505    0.6032   -3.1327 C.ar      1 <0>        -0.6641
     14 C8         -2.2027    0.9624   -2.6702 C.ar      1 <0>        -0.0174
     15 C9         -2.8015    2.1218   -3.1260 C.ar      1 <0>        -0.1051
     16 C10        -2.1478    2.9225   -4.0448 C.ar      1 <0>        -0.0494
     17 C11        -0.8951    2.5628   -4.5074 C.ar      1 <0>        -0.1051
     18 C12        -0.2944    1.4062   -4.0469 C.ar      1 <0>        -0.0108
     19 I1         -3.0554    4.6795   -4.7365 I         1 <0>        -0.0218
     20 H2          1.0039    1.9031    0.0027 H         1 <0>         0.0720
     21 H3         -0.5459    1.8868   -0.8726 H         1 <0>         0.0705
     22 H4         -0.5289    1.8773    0.9072 H         1 <0>         0.0792
     23 H5         -0.9027   -1.0423    2.5450 H         1 <0>         0.1524
     24 H6          1.1006   -1.7286    4.2218 H         1 <0>         0.1516
     25 H7          3.3504   -1.2210    2.9781 H         1 <0>         0.2056
     26 H8          1.6545   -0.5560   -1.2117 H         1 <0>         0.4262
     27 H9         -2.7133    0.3370   -1.9530 H         1 <0>         0.1502
     28 H10        -3.7800    2.4023   -2.7649 H         1 <0>         0.1421
     29 H11        -0.3844    3.1878   -5.2249 H         1 <0>         0.1417
     30 H12         0.6859    1.1277   -4.4045 H         1 <0>         0.1506
@<TRIPOS>BOND
     1    1    2 1
     2    1   20 1
     3    1   21 1
     4    1   22 1
     5    2    3 1
     6    2    4 1
     7    2    9 1
     8    4    8 1
     9    4    5 2
    10    5    6 1
    11    5   23 1
    12    6    7 2
    13    6   24 1
    14    7    8 1
    15    7   25 1
    16    9   10 1
    17    9   26 1
    18   10   11 2
    19   10   12 2
    20   10   13 1
    21   13   18 ar
    22   13   14 ar
    23   14   15 ar
    24   14   27 1
    25   15   16 ar
    26   15   28 1
    27   16   17 ar
    28   16   19 1
    29   17   18 ar
    30   17   29 1
    31   18   30 1
@<TRIPOS>MOLECULE
ZINC41907523
   34    36     0     0     0
SMALL
USER_CHARGES

@<TRIPOS>ATOM
      1 C1          3.9160   -4.7994   -2.2196 C.3       1 <0>        -0.1881
      2 C2          2.6795   -4.2997   -1.5178 C.2       1 <0>         0.4299
      3 O1          2.4865   -4.5823   -0.3534 O.2       1 <0>        -0.4551
      4 C3          1.7115   -3.4736   -2.2404 C.2       1 <0>        -0.0323
      5 C4          0.5757   -3.0029   -1.6112 C.2       1 <0>        -0.2415
      6 S1         -0.1840   -2.1324   -2.8345 S.3       1 <0>         0.2652
      7 C5          1.0078   -2.4110   -4.1316 C.2       1 <0>         0.2626
      8 N1          1.9093   -3.1525   -3.5242 N.2       1 <0>        -0.4808
      9 N2          0.9914   -1.9575   -5.4439 N.am      1 <0>        -0.6018
     10 C6         -0.0303   -1.1946   -5.8804 C.2       1 <0>         0.5594
     11 O2         -0.9797   -0.9806   -5.1568 O.2       1 <0>        -0.4875
     12 C7          0.0070   -0.6075   -7.2679 C.3       1 <0>        -0.1230
     13 C8         -1.2565   -0.7318   -8.1218 C.3       1 <0>        -0.1227
     14 C9         -0.0261   -1.5807   -8.4480 C.3       1 <0>        -0.1568
     15 C10         0.8309    0.6449   -7.4217 C.ar      1 <0>        -0.0315
     16 C11         1.4338    0.9310   -8.6324 C.ar      1 <0>        -0.1064
     17 C12         2.1892    2.0798   -8.7741 C.ar      1 <0>        -0.0832
     18 C13         2.3419    2.9433   -7.7042 C.ar      1 <0>        -0.0887
     19 C14         1.7384    2.6566   -6.4930 C.ar      1 <0>        -0.0819
     20 C15         0.9789    1.5102   -6.3538 C.ar      1 <0>        -0.1052
     21 Br1         3.3758    4.5148   -7.8973 Br        1 <0>        -0.0432
     22 H1          3.7079   -5.7661   -2.6781 H         1 <0>         0.0968
     23 H2          4.2090   -4.0870   -2.9908 H         1 <0>         0.0924
     24 H3          4.7254   -4.9064   -1.4974 H         1 <0>         0.0855
     25 H4          0.2556   -3.1555   -0.5911 H         1 <0>         0.2086
     26 H5          1.7152   -2.1898   -6.0464 H         1 <0>         0.4301
     27 H6         -2.1147   -1.2382   -7.6800 H         1 <0>         0.1126
     28 H7         -1.4921    0.0925   -8.7950 H         1 <0>         0.1153
     29 H8          0.5478   -1.3150   -9.3357 H         1 <0>         0.1174
     30 H9         -0.0748   -2.6457   -8.2208 H         1 <0>         0.1100
     31 H10         1.3148    0.2567   -9.4675 H         1 <0>         0.1386
     32 H11         2.6605    2.3031   -9.7198 H         1 <0>         0.1385
     33 H12         1.8573    3.3305   -5.6575 H         1 <0>         0.1371
     34 H13         0.5043    1.2884   -5.4093 H         1 <0>         0.1299
@<TRIPOS>BOND
     1    1    2 1
     2    1   22 1
     3    1   23 1
     4    1   24 1
     5    2    3 2
     6    2    4 1
     7    4    8 1
     8    4    5 2
     9    5    6 1
    10    5   25 1
    11    6    7 1
    12    7    8 2
    13    7    9 1
    14    9   10 am
    15    9   26 1
    16   10   11 2
    17   10   12 1
    18   12   14 1
    19   12   13 1
    20   12   15 1
    21   13   14 1
    22   13   27 1
    23   13   28 1
    24   14   29 1
    25   14   30 1
    26   15   20 ar
    27   15   16 ar
    28   16   17 ar
    29   16   31 1
    30   17   18 ar
    31   17   32 1
    32   18   19 ar
    33   18   21 1
    34   19   20 ar
    35   19   33 1
    36   20   34 1
@<TRIPOS>MOLECULE
ZINC04188761
   51    54     0     0     0
SMALL
USER_CHARGES
methyl methyl-(4-nitrophenyl)-oxo-BLAHcarboxylate
@<TRIPOS>ATOM
      1 C1          0.6629    3.1695    2.1116 C.3       1 <0>        -0.1718
      2 C2          1.0360    3.3896    0.6443 C.3       1 <0>        -0.0665
      3 H1          1.9405    3.9944    0.5790 H         1 <0>         0.1014
      4 C3         -0.1100    4.0922   -0.0815 C.3       1 <0>        -0.1105
      5 C4         -1.3689    3.2440   -0.0040 C.2       1 <0>         0.2778
      6 C5         -1.2855    1.9036    0.0060 C.2       1 <0>        -0.3056
      7 C6         -2.4505    0.9434    0.0516 C.3       1 <0>         0.2759
      8 H2         -2.2493    0.1917    0.8149 H         1 <0>         0.1044
      9 N1         -3.7255    1.5626    0.3460 N.pl3     1 <0>        -0.7647
     10 C7         -4.2995    2.4810   -0.5312 C.ar      1 <0>         0.1647
     11 C8         -5.4893    2.2094   -1.1876 C.ar      1 <0>        -0.1257
     12 C9         -5.9979    3.1333   -2.0840 C.ar      1 <0>        -0.1035
     13 C10        -5.3248    4.3168   -2.3273 C.ar      1 <0>        -0.1174
     14 C11        -4.1441    4.5982   -1.6610 C.ar      1 <0>        -0.1113
     15 C12        -3.6463    3.6848   -0.7483 C.ar      1 <0>         0.1095
     16 N2         -2.5264    3.9510    0.0422 N.pl3     1 <0>        -0.6827
     17 C13        -2.5521    0.2514   -1.2832 C.ar      1 <0>        -0.0357
     18 C14        -2.3636   -1.1154   -1.3694 C.ar      1 <0>        -0.0883
     19 C15        -2.4620   -1.7509   -2.5930 C.ar      1 <0>        -0.0557
     20 C16        -2.7378   -1.0181   -3.7322 C.ar      1 <0>        -0.0445
     21 C17        -2.9212    0.3494   -3.6469 C.ar      1 <0>        -0.0570
     22 C18        -2.8284    0.9841   -2.4224 C.ar      1 <0>        -0.1065
     23 N3         -2.8371   -1.6977   -5.0434 N.pl3     1 <0>         0.0286
     24 O1         -3.0805   -1.0521   -6.0471 O.2       1 <0>        -0.1624
     25 O2         -2.6756   -2.9026   -5.1186 O.3       1 <0>        -0.1604
     26 C19        -0.0219    1.2674   -0.0198 C.2       1 <0>         0.4090
     27 O3          0.0225    0.0528   -0.0290 O.2       1 <0>        -0.4466
     28 C20         1.2641    2.0378   -0.0425 C.3       1 <0>        -0.1178
     29 H3          1.5556    2.1888   -0.9871 H         1 <0>         0.1244
     30 C21         2.3293    1.2659    0.6928 C.2       1 <0>         0.4775
     31 O4          2.8672    1.7502    1.6602 O.2       1 <0>        -0.4948
     32 O5          2.6805    0.0403    0.2729 O.3       1 <0>        -0.3379
     33 C22         3.7135   -0.6448    1.0291 C.3       1 <0>         0.0349
     34 H4          1.4712    2.6406    2.6167 H         1 <0>         0.0891
     35 H5          0.5021    4.1335    2.5942 H         1 <0>         0.0631
     36 H6         -0.2504    2.5774    2.1694 H         1 <0>         0.0566
     37 H7         -0.2957    5.0593    0.3858 H         1 <0>         0.0973
     38 H8          0.1614    4.2427   -1.1264 H         1 <0>         0.1023
     39 H9         -4.1882    1.3343    1.1674 H         1 <0>         0.4043
     40 H10        -6.0152    1.2846   -1.0016 H         1 <0>         0.1272
     41 H11        -6.9260    2.9287   -2.5969 H         1 <0>         0.1276
     42 H12        -5.7217    5.0243   -3.0403 H         1 <0>         0.1300
     43 H13        -3.6173    5.5216   -1.8512 H         1 <0>         0.1302
     44 H14        -2.5738    4.6962    0.6614 H         1 <0>         0.4106
     45 H15        -2.1434   -1.6872   -0.4800 H         1 <0>         0.1476
     46 H16        -2.3191   -2.8193   -2.6596 H         1 <0>         0.1530
     47 H17        -3.1366    0.9219   -4.5370 H         1 <0>         0.1497
     48 H18        -2.9713    2.0525   -2.3558 H         1 <0>         0.1394
     49 H19         3.9012   -1.6222    0.5849 H         1 <0>         0.1037
     50 H20         4.6298   -0.0547    1.0097 H         1 <0>         0.0637
     51 H21         3.3849   -0.7716    2.0607 H         1 <0>         0.0639
@<TRIPOS>BOND
     1    1    2 1
     2    1   34 1
     3    1   35 1
     4    1   36 1
     5    2    3 1
     6    2   28 1
     7    2    4 1
     8    4    5 1
     9    4   37 1
    10    4   38 1
    11    5   16 1
    12    5    6 2
    13    6    7 1
    14    6   26 1
    15    7    8 1
    16    7    9 1
    17    7   17 1
    18    9   10 1
    19    9   39 1
    20   10   15 ar
    21   10   11 ar
    22   11   12 ar
    23   11   40 1
    24   12   13 ar
    25   12   41 1
    26   13   14 ar
    27   13   42 1
    28   14   15 ar
    29   14   43 1
    30   15   16 1
    31   16   44 1
    32   17   22 ar
    33   17   18 ar
    34   18   19 ar
    35   18   45 1
    36   19   20 ar
    37   19   46 1
    38   20   21 ar
    39   20   23 1
    40   21   22 ar
    41   21   47 1
    42   22   48 1
    43   23   24 2
    44   23   25 1
    45   26   27 2
    46   26   28 1
    47   28   29 1
    48   28   30 1
    49   30   31 2
    50   30   32 1
    51   32   33 1
    52   33   49 1
    53   33   50 1
    54   33   51 1
@<TRIPOS>MOLECULE
ZINC12010167
   58    62     0     0     0
SMALL
USER_CHARGES
3-cyclopentyl-N-[5-(2-furyl)-2-(4-oxo-5,6,7,8-tetrahydro-3H-quinazolin-2-yl)pyrazol-3-yl]propanamide
@<TRIPOS>ATOM
      1 C1          4.7499    1.4632   -0.0333 C.2       1 <0>        -0.2190
      2 C2          3.6159    2.2999   -0.0241 C.2       1 <0>        -0.1449
      3 C3          2.5278    1.4848   -0.0126 C.2       1 <0>         0.0324
      4 O1          2.9596    0.2090   -0.0224 O.3       1 <0>        -0.1591
      5 C4          4.3025    0.1922   -0.0350 C.2       1 <0>        -0.0073
      6 C5          1.1163    1.9225    0.0017 C.2       1 <0>         0.2150
      7 C6         -0.0126    1.0758    0.0080 C.2       1 <0>        -0.2498
      8 C7         -1.1197    1.8601    0.0168 C.2       1 <0>         0.3592
      9 N1         -0.7059    3.1620    0.0245 N.pl3     1 <0>        -0.3485
     10 N2          0.6946    3.1708    0.0117 N.2       1 <0>        -0.2730
     11 C8         -1.5249    4.2744    0.0370 C.2       1 <0>         0.6509
     12 N3         -0.9684    5.5149    0.0380 N.am      1 <0>        -0.6241
     13 H1         -0.0040    5.6180    0.0267 H         1 <0>         0.4292
     14 C9         -1.7673    6.6007    0.0543 C.2       1 <0>         0.5385
     15 O2         -1.2869    7.7221    0.0537 O.2       1 <0>        -0.5157
     16 C10        -3.1685    6.4219    0.0724 C.2       1 <0>        -0.2501
     17 C11        -3.6677    5.1602    0.0618 C.2       1 <0>         0.2072
     18 N4         -2.8278    4.1170    0.0423 N.2       1 <0>        -0.5789
     19 C12        -5.1459    4.8713    0.0572 C.3       1 <0>        -0.0710
     20 C13        -5.9343    6.0969    0.5148 C.3       1 <0>        -0.1204
     21 C14        -5.4686    7.3057   -0.3059 C.3       1 <0>        -0.1222
     22 C15        -4.0393    7.6480    0.1113 C.3       1 <0>        -0.0520
     23 N5         -2.4407    1.4173    0.0206 N.am      1 <0>        -0.6404
     24 C16        -2.7087    0.0965    0.0159 C.2       1 <0>         0.5172
     25 O3         -1.7999   -0.7067    0.0083 O.2       1 <0>        -0.4996
     26 C17        -4.1376   -0.3824    0.0200 C.3       1 <0>        -0.1336
     27 C18        -4.1627   -1.9122    0.0132 C.3       1 <0>        -0.0988
     28 C19        -5.6134   -2.3984    0.0174 C.3       1 <0>        -0.0931
     29 C20        -6.2823   -2.0539    1.3641 C.3       1 <0>        -0.1238
     30 C21        -7.1982   -3.2686    1.6551 C.3       1 <0>        -0.1269
     31 C22        -6.3495   -4.4641    1.1554 C.3       1 <0>        -0.1266
     32 C23        -5.6561   -3.9308   -0.1153 C.3       1 <0>        -0.1221
     33 H2          5.7821    1.7807   -0.0414 H         1 <0>         0.1575
     34 H3          3.6120    3.3799   -0.0244 H         1 <0>         0.1575
     35 H4          4.9211   -0.6930   -0.0442 H         1 <0>         0.2132
     36 H5          0.0021   -0.0041    0.0020 H         1 <0>         0.1970
     37 H6         -5.4560    4.6007   -0.9521 H         1 <0>         0.0960
     38 H7         -5.3516    4.0395    0.7309 H         1 <0>         0.0926
     39 H8         -6.9990    5.9305    0.3513 H         1 <0>         0.0802
     40 H9         -5.7488    6.2785    1.5734 H         1 <0>         0.0711
     41 H10        -5.4924    7.0600   -1.3676 H         1 <0>         0.0684
     42 H11        -6.1223    8.1558   -0.1109 H         1 <0>         0.0766
     43 H12        -4.0473    8.0512    1.1239 H         1 <0>         0.0782
     44 H13        -3.6358    8.3971   -0.5700 H         1 <0>         0.0818
     45 H14        -3.1675    2.0597    0.0267 H         1 <0>         0.4310
     46 H15        -4.6414   -0.0147    0.9138 H         1 <0>         0.1030
     47 H16        -4.6492   -0.0067   -0.8661 H         1 <0>         0.1026
     48 H17        -3.6589   -2.2799   -0.8806 H         1 <0>         0.0736
     49 H18        -3.6511   -2.2879    0.8993 H         1 <0>         0.0747
     50 H19        -6.1639   -1.9372   -0.8026 H         1 <0>         0.0737
     51 H20        -5.5313   -1.9463    2.1467 H         1 <0>         0.0674
     52 H21        -6.8740   -1.1429    1.2741 H         1 <0>         0.0648
     53 H22        -8.1290   -3.1940    1.0928 H         1 <0>         0.0662
     54 H23        -7.3968   -3.3556    2.7233 H         1 <0>         0.0650
     55 H24        -6.9902   -5.3120    0.9132 H         1 <0>         0.0638
     56 H25        -5.6092   -4.7457    1.9043 H         1 <0>         0.0649
     57 H26        -6.2280   -4.2133   -0.9992 H         1 <0>         0.0637
     58 H27        -4.6433   -4.3281   -0.1826 H         1 <0>         0.0668
@<TRIPOS>BOND
     1    1    5 2
     2    1    2 1
     3    1   33 1
     4    2    3 2
     5    2   34 1
     6    3    4 1
     7    3    6 1
     8    4    5 1
     9    5   35 1
    10    6   10 2
    11    6    7 1
    12    7    8 2
    13    7   36 1
    14    8    9 1
    15    8   23 1
    16    9   10 1
    17    9   11 1
    18   11   18 2
    19   11   12 1
    20   12   13 1
    21   12   14 am
    22   14   15 2
    23   14   16 1
    24   16   22 1
    25   16   17 2
    26   17   18 1
    27   17   19 1
    28   19   20 1
    29   19   37 1
    30   19   38 1
    31   20   21 1
    32   20   39 1
    33   20   40 1
    34   21   22 1
    35   21   41 1
    36   21   42 1
    37   22   43 1
    38   22   44 1
    39   23   24 am
    40   23   45 1
    41   24   25 2
    42   24   26 1
    43   26   27 1
    44   26   46 1
    45   26   47 1
    46   27   28 1
    47   27   48 1
    48   27   49 1
    49   28   32 1
    50   28   29 1
    51   28   50 1
    52   29   30 1
    53   29   51 1
    54   29   52 1
    55   30   31 1
    56   30   53 1
    57   30   54 1
    58   31   32 1
    59   31   55 1
    60   31   56 1
    61   32   57 1
    62   32   58 1
@<TRIPOS>MOLECULE
ZINC15410128
   52    54     0     0     0
SMALL
USER_CHARGES
2-methyl-N-(4-methyl-3-nitro-phenyl)-5-(p-tolylsulfamoyl)benzamide
@<TRIPOS>ATOM
      1 C1         -4.0643    1.1087    1.8413 C.3       1 <0>        -0.1195
      2 C2         -2.7619    0.8176    1.1412 C.ar      1 <0>        -0.0865
      3 C3         -1.8228    1.8208    0.9862 C.ar      1 <0>        -0.1033
      4 C4         -0.6281    1.5574    0.3455 C.ar      1 <0>        -0.1216
      5 C5         -0.3703    0.2831   -0.1436 C.ar      1 <0>         0.1300
      6 C6         -1.3180   -0.7210    0.0091 C.ar      1 <0>        -0.1502
      7 C7         -2.5085   -0.4521    0.6555 C.ar      1 <0>        -0.1000
      8 N1          0.8368    0.0133   -0.7926 N.pl3     1 <0>        -1.0539
      9 S1          1.6962   -1.3495   -0.4098 S.o2      1 <0>         2.6916
     10 O1          0.7953   -2.4427   -0.5224 O.2       1 <0>        -0.9447
     11 O2          2.9102   -1.2840   -1.1453 O.2       1 <0>        -0.9449
     12 C8          2.1320   -1.2294    1.2932 C.ar      1 <0>        -0.6902
     13 C9          3.2685   -0.5343    1.6676 C.ar      1 <0>         0.0179
     14 C10         3.6152   -0.4311    3.0029 C.ar      1 <0>        -0.1470
     15 C11         2.8344   -1.0304    3.9699 C.ar      1 <0>         0.0420
     16 C12         1.6898   -1.7375    3.5986 C.ar      1 <0>        -0.1649
     17 C13         1.3427   -1.8333    2.2497 C.ar      1 <0>         0.0249
     18 C14         0.8484   -2.3817    4.6291 C.2       1 <0>         0.5686
     19 O3          1.2037   -2.3807    5.7917 O.2       1 <0>        -0.5042
     20 N2         -0.3127   -2.9703    4.2798 N.am      1 <0>        -0.6683
     21 C15        -1.1588   -3.4876    5.2659 C.ar      1 <0>         0.1428
     22 C16        -0.6227   -4.0762    6.4043 C.ar      1 <0>        -0.0631
     23 C17        -1.4610   -4.5821    7.3780 C.ar      1 <0>        -0.1034
     24 C18        -2.8328   -4.5120    7.2163 C.ar      1 <0>        -0.0238
     25 C19        -3.3695   -3.9315    6.0820 C.ar      1 <0>        -0.0302
     26 C20        -2.5366   -3.4192    5.1064 C.ar      1 <0>        -0.0787
     27 N3         -4.8382   -3.8586    5.9131 N.pl3     1 <0>         0.0328
     28 O4         -5.3119   -3.3318    4.9223 O.2       1 <0>        -0.1627
     29 O5         -5.5731   -4.3254    6.7649 O.3       1 <0>        -0.1532
     30 C21        -3.7445   -5.0699    8.2786 C.3       1 <0>        -0.1384
     31 C22         3.2170   -0.9222    5.4235 C.3       1 <0>        -0.1345
     32 H1         -4.8036    1.4381    1.1113 H         1 <0>         0.0742
     33 H2         -4.4203    0.2053    2.3366 H         1 <0>         0.0710
     34 H3         -3.9109    1.8930    2.5825 H         1 <0>         0.0669
     35 H4         -2.0240    2.8114    1.3664 H         1 <0>         0.1281
     36 H5          0.1051    2.3412    0.2251 H         1 <0>         0.1288
     37 H6         -1.1226   -1.7117   -0.3739 H         1 <0>         0.1554
     38 H7         -3.2441   -1.2333    0.7781 H         1 <0>         0.1324
     39 H8          1.1737    0.6263   -1.4646 H         1 <0>         0.4288
     40 H9          3.8855   -0.0670    0.9144 H         1 <0>         0.1482
     41 H10         4.5011    0.1164    3.2888 H         1 <0>         0.1462
     42 H11         0.4581   -2.3787    1.9559 H         1 <0>         0.1427
     43 H12        -0.5614   -3.0351    3.3445 H         1 <0>         0.4162
     44 H13         0.4484   -4.1346    6.5294 H         1 <0>         0.1593
     45 H14        -1.0449   -5.0365    8.2650 H         1 <0>         0.1530
     46 H15        -2.9564   -2.9662    4.2204 H         1 <0>         0.1573
     47 H16        -4.0541   -6.0771    7.9994 H         1 <0>         0.0888
     48 H17        -3.2151   -5.1033    9.2308 H         1 <0>         0.0755
     49 H18        -4.6238   -4.4329    8.3739 H         1 <0>         0.1042
     50 H19         3.7577   -1.8195    5.7246 H         1 <0>         0.0886
     51 H20         3.8532   -0.0490    5.5677 H         1 <0>         0.0695
     52 H21         2.3168   -0.8199    6.0295 H         1 <0>         0.1014
@<TRIPOS>BOND
     1    1    2 1
     2    1   32 1
     3    1   33 1
     4    1   34 1
     5    2    7 ar
     6    2    3 ar
     7    3    4 ar
     8    3   35 1
     9    4    5 ar
    10    4   36 1
    11    5    6 ar
    12    5    8 1
    13    6    7 ar
    14    6   37 1
    15    7   38 1
    16    8    9 1
    17    8   39 1
    18    9   10 2
    19    9   11 2
    20    9   12 1
    21   12   17 ar
    22   12   13 ar
    23   13   14 ar
    24   13   40 1
    25   14   15 ar
    26   14   41 1
    27   15   16 ar
    28   15   31 1
    29   16   17 ar
    30   16   18 1
    31   17   42 1
    32   18   19 2
    33   18   20 am
    34   20   21 1
    35   20   43 1
    36   21   26 ar
    37   21   22 ar
    38   22   23 ar
    39   22   44 1
    40   23   24 ar
    41   23   45 1
    42   24   25 ar
    43   24   30 1
    44   25   26 ar
    45   25   27 1
    46   26   46 1
    47   27   28 2
    48   27   29 1
    49   30   47 1
    50   30   48 1
    51   30   49 1
    52   31   50 1
    53   31   51 1
    54   31   52 1
@<TRIPOS>MOLECULE
ZINC24766952
   57    60     0     0     0
SMALL
USER_CHARGES
ethyl 5-[[2-[(9S)-2',5'-dioxospiro[5,6,7,8-tetrahydrobenzo[7]annulene-9,4'-imidazolidine]-1'-yl]acetyl]amino]-3-methyl-thiophene-2-carboxylate
@<TRIPOS>ATOM
      1 C1          4.1034    2.4871   -7.6545 C.3       1 <0>        -0.1549
      2 C2          3.0384    2.0726   -8.6718 C.3       1 <0>         0.0616
      3 O1          1.8600    1.6503   -7.9824 O.3       1 <0>        -0.3533
      4 C3          0.8175    1.2493   -8.7401 C.2       1 <0>         0.5583
      5 O2          0.9080    1.2586   -9.9536 O.2       1 <0>        -0.5038
      6 C4         -0.3820    0.8177   -8.1227 C.2       1 <0>        -0.3153
      7 C5         -1.5567    0.3711   -8.7141 C.2       1 <0>         0.0176
      8 C6         -2.5800    0.0090   -7.8811 C.2       1 <0>        -0.2376
      9 C7         -2.3927    0.1055   -6.5183 C.2       1 <0>         0.0757
     10 S1         -0.7749    0.7144   -6.3857 S.3       1 <0>         0.2917
     11 N1         -3.2850   -0.2040   -5.4999 N.am      1 <0>        -0.6276
     12 C8         -2.9203   -0.0434   -4.2124 C.2       1 <0>         0.4939
     13 O3         -1.8129    0.3714   -3.9431 O.2       1 <0>        -0.4847
     14 C9         -3.8885   -0.3792   -3.1075 C.3       1 <0>         0.1070
     15 N2         -3.2585   -0.1204   -1.8110 N.am      1 <0>        -0.5686
     16 C10        -3.3219    1.0664   -1.1614 C.2       1 <0>         0.5472
     17 O4         -3.9518    2.0306   -1.5398 O.2       1 <0>        -0.4484
     18 C11        -2.4818    0.9024    0.0709 C.3       1 <0>         0.1730
     19 C12        -3.2591    1.1580    1.3567 C.3       1 <0>        -0.1077
     20 C13        -4.0805    2.4291    1.2943 C.3       1 <0>        -0.1353
     21 C14        -3.2614    3.7037    1.3383 C.3       1 <0>        -0.1124
     22 C15        -2.5245    3.9250    0.0186 C.3       1 <0>        -0.1120
     23 C16        -1.2456    3.1144    0.0205 C.ar      1 <0>        -0.0485
     24 C17        -1.2310    1.7495    0.0293 C.ar      1 <0>        -0.0946
     25 C18        -0.0126    1.0760    0.0080 C.ar      1 <0>        -0.1001
     26 C19         1.1751    1.7792    0.0004 C.ar      1 <0>        -0.1233
     27 C20         1.1567    3.1608    0.0017 C.ar      1 <0>        -0.1033
     28 C21        -0.0517    3.8274    0.0079 C.ar      1 <0>        -0.1218
     29 N3         -2.0828   -0.5205    0.0367 N.am      1 <0>        -0.7302
     30 C22        -2.5509   -1.0202   -1.1204 C.2       1 <0>         0.7196
     31 O5         -2.3533   -2.1597   -1.4964 O.2       1 <0>        -0.5383
     32 C23        -1.6985    0.2893  -10.2122 C.3       1 <0>        -0.1038
     33 H1          5.0105    2.8122   -8.1851 H         1 <0>         0.0814
     34 H2          4.3444    1.6314   -7.0067 H         1 <0>         0.0673
     35 H3          3.7210    3.3157   -7.0404 H         1 <0>         0.0672
     36 H4          2.7974    2.9283   -9.3196 H         1 <0>         0.0693
     37 H5          3.4208    1.2440   -9.2860 H         1 <0>         0.0694
     38 H6         -3.5172   -0.3462   -8.2836 H         1 <0>         0.1448
     39 H7         -4.2894   -0.5802   -5.7442 H         1 <0>         0.4531
     40 H8         -4.7898    0.2433   -3.2080 H         1 <0>         0.1383
     41 H9         -4.1671   -1.4412   -3.1743 H         1 <0>         0.1395
     42 H10        -3.9462    0.3193    1.5426 H         1 <0>         0.0833
     43 H11        -2.5563    1.2497    2.1980 H         1 <0>         0.0901
     44 H12        -4.6556    2.4484    0.3568 H         1 <0>         0.0799
     45 H13        -4.7719    2.4612    2.1493 H         1 <0>         0.0738
     46 H14        -3.9265    4.5609    1.5195 H         1 <0>         0.0715
     47 H15        -2.5212    3.6361    2.1492 H         1 <0>         0.0631
     48 H16        -3.1640    3.6037   -0.8168 H         1 <0>         0.1053
     49 H17        -2.2847    4.9927   -0.0929 H         1 <0>         0.0738
     50 H18         0.0021   -0.0041    0.0020 H         1 <0>         0.1268
     51 H19         2.1183    1.2526   -0.0078 H         1 <0>         0.1256
     52 H20         2.0839    3.7141   -0.0015 H         1 <0>         0.1255
     53 H21        -0.0790    4.9077    0.0035 H         1 <0>         0.1263
     54 H22        -1.5124   -0.9520    0.8724 H         1 <0>         0.4735
     55 H23        -2.7007   -0.0868  -10.4656 H         1 <0>         0.0668
     56 H24        -0.9373   -0.3946  -10.6157 H         1 <0>         0.0822
     57 H25        -1.5610    1.2896  -10.6487 H         1 <0>         0.0821
@<TRIPOS>BOND
     1    1    2 1
     2    1   33 1
     3    1   34 1
     4    1   35 1
     5    2    3 1
     6    2   36 1
     7    2   37 1
     8    3    4 1
     9    4    5 2
    10    4    6 1
    11    6   10 1
    12    6    7 2
    13    7    8 1
    14    7   32 1
    15    8    9 2
    16    8   38 1
    17    9   10 1
    18    9   11 1
    19   11   12 am
    20   11   39 1
    21   12   13 2
    22   12   14 1
    23   14   15 1
    24   14   40 1
    25   14   41 1
    26   15   30 am
    27   15   16 am
    28   16   17 2
    29   16   18 1
    30   18   24 1
    31   18   19 1
    32   18   29 1
    33   19   20 1
    34   19   42 1
    35   19   43 1
    36   20   21 1
    37   20   44 1
    38   20   45 1
    39   21   22 1
    40   21   46 1
    41   21   47 1
    42   22   23 1
    43   22   48 1
    44   22   49 1
    45   23   28 ar
    46   23   24 ar
    47   24   25 ar
    48   25   26 ar
    49   25   50 1
    50   26   27 ar
    51   26   51 1
    52   27   28 ar
    53   27   52 1
    54   28   53 1
    55   29   30 am
    56   29   54 1
    57   30   31 2
    58   32   55 1
    59   32   56 1
    60   32   57 1
@<TRIPOS>MOLECULE
ZINC45158332
   46    49     0     0     0
SMALL
USER_CHARGES

@<TRIPOS>ATOM
      1 C1          1.6327   -2.4194    2.2271 C.3       1 <0>        -0.1121
      2 C2          0.8357   -1.8856    1.0649 C.ar      1 <0>        -0.1087
      3 C3          0.8054   -2.5794   -0.1238 C.ar      1 <0>        -0.0796
      4 C4          0.0640   -2.0818   -1.2033 C.ar      1 <0>        -0.1036
      5 C5         -0.6429   -0.8796   -1.0660 C.ar      1 <0>        -0.0695
      6 C6         -0.6051   -0.1948    0.1272 C.ar      1 <0>        -0.1451
      7 C7          0.1279   -0.6965    1.1970 C.ar      1 <0>         0.1308
      8 O1          0.1570   -0.0195    2.3734 O.3       1 <0>        -0.4930
      9 C8          0.0281   -2.8160   -2.4725 C.2       1 <0>         0.0278
     10 C9          0.1496   -4.1748   -2.4781 C.2       1 <0>         0.0132
     11 C10         0.1659   -4.8973   -1.2418 C.1       1 <0>         0.2584
     12 N1          0.1788   -5.4705   -0.2611 N.1       1 <0>        -0.3894
     13 C11         0.2640   -4.8996   -3.7573 C.2       1 <0>         0.1533
     14 N2          0.3834   -6.2027   -3.9794 N.2       1 <0>        -0.4796
     15 C12         0.4740   -6.6796   -5.1986 C.2       1 <0>         0.0630
     16 C13         0.4461   -5.8324   -6.2616 C.2       1 <0>        -0.1684
     17 S1          0.2714   -4.2603   -5.4270 S.3       1 <0>         0.0653
     18 C14         0.6092   -8.1641   -5.4202 C.3       1 <0>        -0.0292
     19 S2         -1.0393   -8.9042   -5.5797 S.3       1 <0>         0.0202
     20 C15        -0.7146  -10.6178   -5.8306 C.2       1 <0>         0.2781
     21 N3         -1.6684  -11.5797   -6.0095 N.pl3     1 <0>        -0.5756
     22 H1         -2.6286  -11.4430   -6.0202 H         1 <0>         0.4352
     23 C16        -1.0084  -12.7868   -6.1727 C.ar      1 <0>         0.0943
     24 C17        -1.4285  -14.0908   -6.3864 C.ar      1 <0>        -0.0969
     25 C18        -0.4969  -15.1009   -6.5104 C.ar      1 <0>        -0.0518
     26 C19         0.8587  -14.8211   -6.4228 C.ar      1 <0>        -0.0514
     27 C20         1.2938  -13.5321   -6.2105 C.ar      1 <0>         0.0113
     28 C21         0.3633  -12.4977   -6.0831 C.ar      1 <0>         0.0570
     29 N4          0.4778  -11.1592   -5.8792 N.2       1 <0>        -0.4804
     30 N5          1.8451  -15.9164   -6.5581 N.pl3     1 <0>         0.0373
     31 O2          1.4680  -17.0499   -6.7442 O.2       1 <0>        -0.1532
     32 O3          3.0278  -15.6775   -6.4825 O.3       1 <0>        -0.1572
     33 H2          1.0026   -3.0734    2.8299 H         1 <0>         0.0762
     34 H3          2.4879   -2.9825    1.8532 H         1 <0>         0.0679
     35 H4          1.9842   -1.5886    2.8389 H         1 <0>         0.0714
     36 H5          1.3524   -3.5052   -0.2240 H         1 <0>         0.1318
     37 H6         -1.2158   -0.4910   -1.8949 H         1 <0>         0.1392
     38 H7         -1.1494    0.7318    0.2342 H         1 <0>         0.1381
     39 H8          0.8723    0.6282    2.4369 H         1 <0>         0.3947
     40 H9         -0.0944   -2.2809   -3.4026 H         1 <0>         0.1564
     41 H10         0.5082   -6.0491   -7.3178 H         1 <0>         0.2097
     42 H11         1.1785   -8.3450   -6.3319 H         1 <0>         0.1190
     43 H12         1.1282   -8.6121   -4.5729 H         1 <0>         0.1182
     44 H13        -2.4827  -14.3153   -6.4552 H         1 <0>         0.1507
     45 H14        -0.8255  -16.1163   -6.6765 H         1 <0>         0.1633
     46 H15         2.3509  -13.3214   -6.1426 H         1 <0>         0.1629
@<TRIPOS>BOND
     1    1    2 1
     2    1   33 1
     3    1   34 1
     4    1   35 1
     5    2    7 ar
     6    2    3 ar
     7    3    4 ar
     8    3   36 1
     9    4    5 ar
    10    4    9 1
    11    5    6 ar
    12    5   37 1
    13    6    7 ar
    14    6   38 1
    15    7    8 1
    16    8   39 1
    17    9   10 2
    18    9   40 1
    19   10   11 1
    20   10   13 1
    21   11   12 3
    22   13   17 1
    23   13   14 2
    24   14   15 1
    25   15   16 2
    26   15   18 1
    27   16   17 1
    28   16   41 1
    29   18   19 1
    30   18   42 1
    31   18   43 1
    32   19   20 1
    33   20   29 2
    34   20   21 1
    35   21   22 1
    36   21   23 1
    37   23   28 ar
    38   23   24 ar
    39   24   25 ar
    40   24   44 1
    41   25   26 ar
    42   25   45 1
    43   26   27 ar
    44   26   30 1
    45   27   28 ar
    46   27   46 1
    47   28   29 1
    48   30   31 2
    49   30   32 1
@<TRIPOS>MOLECULE
ZINC03071235
   29    31     0     0     0
SMALL
USER_CHARGES
3-amino-5-(1-naphthylmethylene)-2-thioxo-thiazolidin-4-one
@<TRIPOS>ATOM
      1 C1         -5.7708   -2.8746    0.4308 C.ar      1 <0>        -0.1227
      2 C2         -4.4966   -3.4263    0.3246 C.ar      1 <0>        -0.0979
      3 C3         -3.3945   -2.6294    0.2239 C.ar      1 <0>        -0.1221
      4 C4         -3.5443   -1.2385    0.2272 C.ar      1 <0>        -0.0146
      5 C5         -4.8380   -0.6736    0.3409 C.ar      1 <0>        -0.0649
      6 C6         -5.9513   -1.5249    0.4488 C.ar      1 <0>        -0.0930
      7 C7         -4.9847    0.7238    0.3377 C.ar      1 <0>        -0.0676
      8 C8         -3.8975    1.5376    0.2320 C.ar      1 <0>        -0.1292
      9 C9         -2.6112    1.0309    0.1240 C.ar      1 <0>        -0.0185
     10 C10        -2.3904   -0.3447    0.1209 C.ar      1 <0>        -0.1128
     11 C11        -1.0333   -0.8847    0.0076 C.2       1 <0>         0.1133
     12 C12        -0.1482   -0.3225   -0.8573 C.2       1 <0>        -0.2530
     13 C13        -0.3637    0.7232   -1.8780 C.2       1 <0>         0.5415
     14 O1         -1.4584    1.2228   -2.0603 O.2       1 <0>        -0.4308
     15 N1          0.6920    1.0849   -2.5875 N.am      1 <0>        -0.3592
     16 C14         1.9021    0.5248   -2.3859 C.2       1 <0>         0.2452
     17 S1          3.3745    0.8555   -3.1943 S.2       1 <0>        -0.3335
     18 S2          1.5970   -0.6450   -1.0719 S.3       1 <0>         0.0959
     19 N2          0.5535    2.0476   -3.5467 N.3       1 <0>        -0.5967
     20 H1         -6.6280   -3.5269    0.5093 H         1 <0>         0.1269
     21 H2         -4.3795   -4.4999    0.3223 H         1 <0>         0.1276
     22 H3         -2.4117   -3.0695    0.1417 H         1 <0>         0.1270
     23 H4         -6.9453   -1.1110    0.5324 H         1 <0>         0.1313
     24 H5         -5.9703    1.1575    0.4203 H         1 <0>         0.1320
     25 H6         -4.0414    2.6080    0.2327 H         1 <0>         0.1298
     26 H7         -1.7739    1.7081    0.0420 H         1 <0>         0.1257
     27 H8         -0.7361   -1.7295    0.6112 H         1 <0>         0.1626
     28 H9          1.4323    2.2260   -4.0094 H         1 <0>         0.3887
     29 H10        -0.1609    1.7944   -4.2126 H         1 <0>         0.3691
@<TRIPOS>BOND
     1    1    6 ar
     2    1    2 ar
     3    1   20 1
     4    2    3 ar
     5    2   21 1
     6    3    4 ar
     7    3   22 1
     8    4   10 ar
     9    4    5 ar
    10    5    6 ar
    11    5    7 ar
    12    6   23 1
    13    7    8 ar
    14    7   24 1
    15    8    9 ar
    16    8   25 1
    17    9   10 ar
    18    9   26 1
    19   10   11 1
    20   11   12 2
    21   11   27 1
    22   12   18 1
    23   12   13 1
    24   13   14 2
    25   13   15 am
    26   15   16 1
    27   15   19 1
    28   16   17 2
    29   16   18 1
    30   19   28 1
    31   19   29 1
@<TRIPOS>MOLECULE
ZINC21952073
   35    37     0     0     0
SMALL
USER_CHARGES
(S)-(2-amino-4,5,6,7-tetrahydrobenzothiophen-3-yl)-(3-fluorophenyl)methanol
@<TRIPOS>ATOM
      1 C1          5.7037    2.5071    1.7413 C.ar      1 <0>        -0.0999
      2 C2          4.8797    2.2223    0.6681 C.ar      1 <0>        -0.0785
      3 C3          4.5056    0.9169    0.4101 C.ar      1 <0>        -0.0366
      4 C4          4.9639   -0.1065    1.2181 C.ar      1 <0>        -0.1521
      5 C5          5.7934    0.1768    2.2895 C.ar      1 <0>         0.0868
      6 C6          6.1631    1.4856    2.5505 C.ar      1 <0>        -0.1584
      7 F1          6.2423   -0.8228    3.0798 F         1 <0>        -0.1449
      8 C7          3.6025    0.6088   -0.7564 C.3       1 <0>         0.2425
      9 H1          3.9436   -0.2910   -1.2892 H         1 <0>         0.0495
     10 C8          2.1880    0.4382   -0.2653 C.2       1 <0>        -0.3132
     11 C9          1.6091   -0.8320   -0.2260 C.2       1 <0>         0.0249
     12 C10         0.3298   -0.9043    0.2275 C.3       1 <0>        -0.5428
     13 S1         -0.0849    0.7778    0.6039 S.3       1 <0>        -0.0577
     14 C11         1.4724    1.5204    0.1406 C.2       1 <0>         0.2688
     15 N1          1.8544    2.8626    0.1828 N.2       1 <0>        -0.6942
     16 C12        -0.5185   -2.1263    0.3701 C.3       1 <0>        -0.0860
     17 C13         0.1412   -3.2674   -0.4190 C.3       1 <0>        -0.1608
     18 C14         1.6307   -3.3111   -0.0664 C.3       1 <0>        -0.1729
     19 C15         2.3443   -2.0963   -0.6617 C.3       1 <0>        -0.1088
     20 O1          3.6541    1.6844   -1.6958 O.3       1 <0>        -0.5728
     21 H2          5.9919    3.5279    1.9447 H         1 <0>         0.1295
     22 H3          4.5247    3.0209    0.0335 H         1 <0>         0.1449
     23 H4          4.6752   -1.1270    1.0134 H         1 <0>         0.1243
     24 H5          6.8105    1.7077    3.3858 H         1 <0>         0.1306
     25 H6          1.1473    3.6246    0.5424 H         1 <0>         0.3144
     26 H7          0.2965   -1.9955    0.0929 H         1 <0>         0.4652
     27 H8         -1.5243   -1.9359   -0.0323 H         1 <0>         0.1709
     28 H9         -0.5953   -2.4101    1.4301 H         1 <0>         0.1397
     29 H10        -0.3346   -4.2220   -0.1501 H         1 <0>         0.1441
     30 H11         0.0176   -3.0870   -1.4970 H         1 <0>         0.1270
     31 H12         1.7491   -3.3007    1.0272 H         1 <0>         0.0956
     32 H13         2.0774   -4.2297   -0.4748 H         1 <0>         0.1160
     33 H14         3.3826   -2.0672   -0.2998 H         1 <0>         0.1039
     34 H15         2.3405   -2.1702   -1.7593 H         1 <0>         0.1001
     35 H16         3.0563    1.6383   -2.6180 H         1 <0>         0.4009
@<TRIPOS>BOND
     1    1    6 ar
     2    1    2 ar
     3    1   21 1
     4    2    3 ar
     5    2   22 1
     6    3    4 ar
     7    3    8 1
     8    4    5 ar
     9    4   23 1
    10    5    6 ar
    11    5    7 1
    12    6   24 1
    13    8    9 1
    14    8   20 1
    15    8   10 1
    16   10   14 1
    17   10   11 2
    18   11   19 1
    19   11   12 1
    20   12   16 1
    21   12   26 1
    22   12   13 1
    23   13   14 1
    24   14   15 2
    25   15   25 1
    26   16   17 1
    27   16   27 1
    28   16   28 1
    29   17   18 1
    30   17   29 1
    31   17   30 1
    32   18   19 1
    33   18   31 1
    34   18   32 1
    35   19   33 1
    36   19   34 1
    37   20   35 1
@<TRIPOS>MOLECULE
ZINC06499038
   31    32     0     0     0
SMALL
USER_CHARGES

@<TRIPOS>ATOM
      1 C1         -0.0187    1.5258    0.0104 C.3       1 <0>        -0.1522
      2 C2          0.0021   -0.0041    0.0020 C.3       1 <0>        -0.1092
      3 C3          0.7182   -0.4975   -1.2568 C.3       1 <0>         0.1123
      4 C4          0.7099   -2.0213   -1.2908 C.3       1 <0>        -0.1226
      5 C5          1.2159   -2.5299   -2.6352 C.2       1 <0>         0.1093
      6 C6          1.2208   -1.7016   -3.7042 C.2       1 <0>        -0.1951
      7 C7          1.6558   -2.1064   -4.9941 C.2       1 <0>         0.0843
      8 S1          2.2160   -3.7884   -5.1290 S.3       1 <0>         0.2197
      9 C8          2.1361   -4.6175   -3.6687 C.2       1 <0>         0.2050
     10 N1          2.5275   -5.9236   -3.5376 N.pl3     1 <0>        -0.7792
     11 C9          1.6412   -3.8703   -2.6023 C.2       1 <0>        -0.1809
     12 C10         1.5565   -4.5377   -1.3381 C.1       1 <0>         0.2499
     13 N2          1.4894   -5.0670   -0.3352 N.1       1 <0>        -0.4082
     14 S2          1.6411   -1.0419   -6.3348 S.2       1 <0>        -0.3948
     15 C11         0.7714   -0.2605   -3.6144 C.3       1 <0>         0.1147
     16 O1          0.0300   -0.0261   -2.4222 O.3       1 <0>        -0.3534
     17 C12         2.1603    0.0135   -1.2654 C.3       1 <0>        -0.1858
     18 H1          1.0039    1.9031    0.0027 H         1 <0>         0.0566
     19 H2         -0.5459    1.8868   -0.8726 H         1 <0>         0.0659
     20 H3         -0.5289    1.8773    0.9072 H         1 <0>         0.0557
     21 H4          0.5293   -0.3651    0.8851 H         1 <0>         0.0766
     22 H5         -1.0205   -0.3814    0.0098 H         1 <0>         0.0732
     23 H6          1.3530   -2.4020   -0.4973 H         1 <0>         0.0952
     24 H7         -0.3073   -2.3788   -1.1309 H         1 <0>         0.1060
     25 H8          2.8674   -6.4076   -4.3065 H         1 <0>         0.4250
     26 H9          1.6473    0.3882   -3.6241 H         1 <0>         0.0783
     27 H10         0.1456   -0.0270   -4.4758 H         1 <0>         0.1241
     28 H11         2.6828   -0.3583   -0.3840 H         1 <0>         0.0696
     29 H12         2.6659   -0.3406   -2.1638 H         1 <0>         0.0640
     30 H13         2.1597    1.1034   -1.2546 H         1 <0>         0.0771
     31 H14         2.4648   -6.3647   -2.6760 H         1 <0>         0.4187
@<TRIPOS>BOND
     1    1    2 1
     2    1   18 1
     3    1   19 1
     4    1   20 1
     5    2    3 1
     6    2   21 1
     7    2   22 1
     8    3   16 1
     9    3    4 1
    10    3   17 1
    11    4    5 1
    12    4   23 1
    13    4   24 1
    14    5   11 1
    15    5    6 2
    16    6    7 1
    17    6   15 1
    18    7    8 1
    19    7   14 2
    20    8    9 1
    21    9   10 1
    22    9   11 2
    23   10   25 1
    24   10   31 1
    25   11   12 1
    26   12   13 3
    27   15   16 1
    28   15   26 1
    29   15   27 1
    30   17   28 1
    31   17   29 1
    32   17   30 1
@<TRIPOS>MOLECULE
ZINC41674315
   29    30     0     0     0
SMALL
USER_CHARGES

@<TRIPOS>ATOM
      1 C1         -0.0184    1.5028    0.0103 C.3       1 <0>        -0.1047
      2 C2          0.0021   -0.0041    0.0020 C.2       1 <0>        -0.1033
      3 C3          0.0059   -0.6990   -1.1929 C.2       1 <0>        -0.1583
      4 C4          0.0244   -2.0540   -1.1652 C.2       1 <0>        -0.1677
      5 S1          0.0371   -2.3874    0.5887 S.3       1 <0>         0.0624
      6 C5          0.0226   -0.6981    1.1661 C.2       1 <0>        -0.1983
      7 C6          0.0297   -0.1787    2.5808 C.3       1 <0>         0.2759
      8 H1         -0.2501    0.8748    2.5824 H         1 <0>         0.1219
      9 C7          1.4100   -0.3328    3.1656 C.2       1 <0>         0.0570
     10 N1          2.0005   -1.4256    3.5805 N.2       1 <0>        -0.4944
     11 C8          3.2231   -1.4002    4.0725 C.2       1 <0>         0.0580
     12 C9          3.8388   -0.1915    4.1284 C.2       1 <0>        -0.1984
     13 S2          2.5693    0.8568    3.4371 S.3       1 <0>         0.1114
     14 C10         5.2143    0.1656    4.6301 C.3       1 <0>        -0.0631
     15 C11         3.9060   -2.6554    4.5514 C.3       1 <0>        -0.0784
     16 N2         -0.9319   -0.9419    3.3875 N.3       1 <0>        -0.8234
     17 H2          1.0042    1.8801    0.0026 H         1 <0>         0.0724
     18 H3         -0.5455    1.8639   -0.8728 H         1 <0>         0.0701
     19 H4         -0.5286    1.8543    0.9071 H         1 <0>         0.0667
     20 H5         -0.0059   -0.1702   -2.1345 H         1 <0>         0.1357
     21 H6          0.0298   -2.7512   -1.9900 H         1 <0>         0.1874
     22 H7          5.9286    0.1003    3.8094 H         1 <0>         0.0795
     23 H8          5.2049    1.1820    5.0237 H         1 <0>         0.0751
     24 H9          5.5041   -0.5273    5.4200 H         1 <0>         0.0848
     25 H10         4.4531   -3.1092    3.7251 H         1 <0>         0.0735
     26 H11         4.6002   -2.4075    5.3543 H         1 <0>         0.0741
     27 H12         3.1584   -3.3572    4.9212 H         1 <0>         0.0745
     28 H13        -1.8741   -0.8030    3.0542 H         1 <0>         0.3543
     29 H14        -0.6942   -1.9224    3.4017 H         1 <0>         0.3554
@<TRIPOS>BOND
     1    1    2 1
     2    1   17 1
     3    1   18 1
     4    1   19 1
     5    2    6 2
     6    2    3 1
     7    3    4 2
     8    3   20 1
     9    4    5 1
    10    4   21 1
    11    5    6 1
    12    6    7 1
    13    7    8 1
    14    7    9 1
    15    7   16 1
    16    9   13 1
    17    9   10 2
    18   10   11 1
    19   11   12 2
    20   11   15 1
    21   12   13 1
    22   12   14 1
    23   14   22 1
    24   14   23 1
    25   14   24 1
    26   15   25 1
    27   15   26 1
    28   15   27 1
    29   16   28 1
    30   16   29 1
@<TRIPOS>MOLECULE
ZINC57953966
   36    37     0     0     0
SMALL
USER_CHARGES

@<TRIPOS>ATOM
      1 C1         -0.2307    1.4868   -0.1791 C.3       1 <0>        -0.1158
      2 C2         -0.0995   -0.0118   -0.0886 C.ar      1 <0>        -0.0912
      3 C3          0.0335   -0.7647   -1.2403 C.ar      1 <0>        -0.1033
      4 C4          0.1539   -2.1393   -1.1573 C.ar      1 <0>        -0.0921
      5 C5          0.1417   -2.7609    0.0774 C.ar      1 <0>        -0.0527
      6 C6          0.0097   -2.0079    1.2290 C.ar      1 <0>        -0.0933
      7 C7         -0.1064   -0.6329    1.1463 C.ar      1 <0>        -0.0703
      8 C8         -0.2451    0.1885    2.4021 C.3       1 <0>        -0.1255
      9 C9         -0.0041   -2.6856    2.5750 C.3       1 <0>         0.1262
     10 H1          0.1194   -1.9529    3.3725 H         1 <0>         0.1018
     11 C10        -1.3167   -3.4833    2.7684 C.3       1 <0>        -0.1490
     12 C11        -0.8276   -4.7584    3.4961 C.3       1 <0>         0.0286
     13 H2         -1.3007   -4.8465    4.4742 H         1 <0>         0.0821
     14 C12         0.6697   -4.5370    3.6446 C.2       1 <0>         0.4925
     15 O1          1.3947   -5.0164    4.4839 O.2       1 <0>        -0.4328
     16 O2          1.0294   -3.6918    2.6465 O.3       1 <0>        -0.3322
     17 N1         -1.0982   -5.9523    2.6840 N.3       1 <0>        -0.8240
     18 C13         0.2720   -4.2596    0.1677 C.3       1 <0>        -0.1322
     19 C14         0.2978   -2.9602   -2.4129 C.3       1 <0>        -0.1171
     20 H3          0.7598    1.9407   -0.1486 H         1 <0>         0.0706
     21 H4         -0.7236    1.7525   -1.1143 H         1 <0>         0.0667
     22 H5         -0.8233    1.8509    0.6602 H         1 <0>         0.0691
     23 H6          0.0429   -0.2791   -2.2049 H         1 <0>         0.1232
     24 H7         -1.2908    0.2092    2.7090 H         1 <0>         0.0736
     25 H8          0.3574   -0.2550    3.1948 H         1 <0>         0.0683
     26 H9          0.0976    1.2053    2.2109 H         1 <0>         0.0745
     27 H10        -2.0193   -2.9281    3.3897 H         1 <0>         0.0974
     28 H11        -1.7631   -3.7337    1.8060 H         1 <0>         0.1069
     29 H12        -0.7817   -6.7878    3.1528 H         1 <0>         0.3546
     30 H13        -2.0779   -6.0171    2.4516 H         1 <0>         0.3580
     31 H14         1.3268   -4.5340    0.1558 H         1 <0>         0.0693
     32 H15        -0.1838   -4.6087    1.0943 H         1 <0>         0.0986
     33 H16        -0.2329   -4.7200   -0.6815 H         1 <0>         0.0626
     34 H17         1.3544   -3.0653   -2.6591 H         1 <0>         0.0706
     35 H18        -0.1380   -3.9466   -2.2540 H         1 <0>         0.0715
     36 H19        -0.2188   -2.4626   -3.2336 H         1 <0>         0.0650
@<TRIPOS>BOND
     1    1    2 1
     2    1   20 1
     3    1   21 1
     4    1   22 1
     5    2    7 ar
     6    2    3 ar
     7    3    4 ar
     8    3   23 1
     9    4    5 ar
    10    4   19 1
    11    5    6 ar
    12    5   18 1
    13    6    7 ar
    14    6    9 1
    15    7    8 1
    16    8   24 1
    17    8   25 1
    18    8   26 1
    19    9   10 1
    20    9   16 1
    21    9   11 1
    22   11   12 1
    23   11   27 1
    24   11   28 1
    25   12   13 1
    26   12   14 1
    27   12   17 1
    28   14   15 2
    29   14   16 1
    30   17   29 1
    31   17   30 1
    32   18   31 1
    33   18   32 1
    34   18   33 1
    35   19   34 1
    36   19   35 1
    37   19   36 1
@<TRIPOS>MOLECULE
ZINC04116312
   52    55     0     0     0
SMALL
USER_CHARGES
methyl methyl-oxo-(p-tolyl)BLAHcarboxylate
@<TRIPOS>ATOM
      1 C1         -2.4181    0.8897   -5.8411 C.3       1 <0>        -0.1149
      2 C2         -1.6527    0.4663   -4.6139 C.ar      1 <0>        -0.0855
      3 C3         -1.0237    1.4154   -3.8300 C.ar      1 <0>        -0.1257
      4 C4         -0.3213    1.0270   -2.7045 C.ar      1 <0>        -0.0998
      5 C5         -0.2480   -0.3105   -2.3629 C.ar      1 <0>        -0.0956
      6 C6         -0.8727   -1.2600   -3.1497 C.ar      1 <0>        -0.0859
      7 C7         -1.5794   -0.8712   -4.2722 C.ar      1 <0>        -0.1258
      8 C8          0.5181   -0.7339   -1.1362 C.3       1 <0>         0.2782
      9 H1          0.4064   -1.8114   -1.0151 H         1 <0>         0.0962
     10 C9          1.9812   -0.4287   -1.3559 C.2       1 <0>        -0.2917
     11 C10         2.6890    0.5275   -0.7321 C.2       1 <0>         0.2651
     12 C11         4.1621    0.7271   -1.0492 C.3       1 <0>        -0.1109
     13 C12         4.4373    0.3659   -2.5075 C.3       1 <0>        -0.0632
     14 H2          5.4974    0.4943   -2.7262 H         1 <0>         0.1001
     15 C13         4.0394   -1.1017   -2.7071 C.3       1 <0>        -0.1186
     16 H3          4.6143   -1.6840   -2.1323 H         1 <0>         0.1251
     17 C14         2.5993   -1.2596   -2.3202 C.2       1 <0>         0.4091
     18 O1          1.9404   -2.1311   -2.8529 O.2       1 <0>        -0.4428
     19 C15         4.2248   -1.4847   -4.1528 C.2       1 <0>         0.4781
     20 O2          4.6334   -0.6700   -4.9460 O.2       1 <0>        -0.4961
     21 O3          3.9361   -2.7310   -4.5593 O.3       1 <0>        -0.3382
     22 C16         4.1388   -3.0291   -5.9658 C.3       1 <0>         0.0353
     23 C17         3.6056    1.2601   -3.4292 C.3       1 <0>        -0.1707
     24 N1          2.1979    1.3666    0.2161 N.pl3     1 <0>        -0.6849
     25 C18         0.9969    2.0621    0.1183 C.ar      1 <0>         0.1132
     26 C19         0.9406    3.4442    0.1011 C.ar      1 <0>        -0.1138
     27 C20        -0.2935    4.0722    0.0854 C.ar      1 <0>        -0.1213
     28 C21        -1.4560    3.3229    0.0856 C.ar      1 <0>        -0.1065
     29 C22        -1.3996    1.9403    0.0786 C.ar      1 <0>        -0.1241
     30 C23        -0.1656    1.3077    0.0748 C.ar      1 <0>         0.1728
     31 N2         -0.0629   -0.0796    0.0165 N.pl3     1 <0>        -0.7661
     32 H4         -1.7501    0.8937   -6.7024 H         1 <0>         0.0684
     33 H5         -3.2356    0.1909   -6.0185 H         1 <0>         0.0651
     34 H6         -2.8221    1.8907   -5.6900 H         1 <0>         0.0645
     35 H7         -1.0806    2.4603   -4.0971 H         1 <0>         0.1156
     36 H8          0.1705    1.7684   -2.0924 H         1 <0>         0.1174
     37 H9         -0.8117   -2.3054   -2.8852 H         1 <0>         0.1212
     38 H10        -2.0706   -1.6127   -4.8848 H         1 <0>         0.1185
     39 H11         4.4308    1.7694   -0.8779 H         1 <0>         0.0979
     40 H12         4.7614    0.0894   -0.3994 H         1 <0>         0.0956
     41 H13         3.5139   -2.3717   -6.5704 H         1 <0>         0.0630
     42 H14         5.1864   -2.8724   -6.2232 H         1 <0>         0.0629
     43 H15         3.8684   -4.0671   -6.1599 H         1 <0>         0.1030
     44 H16         3.8717    2.3035   -3.2601 H         1 <0>         0.0610
     45 H17         3.8063    0.9977   -4.4679 H         1 <0>         0.0877
     46 H18         2.5464    1.1162   -3.2162 H         1 <0>         0.0562
     47 H19         2.7237    1.4903    1.0217 H         1 <0>         0.4068
     48 H20         1.8496    4.0274    0.0996 H         1 <0>         0.1272
     49 H21        -0.3485    5.1508    0.0732 H         1 <0>         0.1267
     50 H22        -2.4145    3.8203    0.0909 H         1 <0>         0.1244
     51 H23        -2.3095    1.3585    0.0758 H         1 <0>         0.1253
     52 H24        -0.3855   -0.6149    0.7584 H         1 <0>         0.4003
@<TRIPOS>BOND
     1    1    2 1
     2    1   32 1
     3    1   33 1
     4    1   34 1
     5    2    7 ar
     6    2    3 ar
     7    3    4 ar
     8    3   35 1
     9    4    5 ar
    10    4   36 1
    11    5    6 ar
    12    5    8 1
    13    6    7 ar
    14    6   37 1
    15    7   38 1
    16    8    9 1
    17    8   31 1
    18    8   10 1
    19   10   17 1
    20   10   11 2
    21   11   12 1
    22   11   24 1
    23   12   13 1
    24   12   39 1
    25   12   40 1
    26   13   14 1
    27   13   15 1
    28   13   23 1
    29   15   16 1
    30   15   17 1
    31   15   19 1
    32   17   18 2
    33   19   20 2
    34   19   21 1
    35   21   22 1
    36   22   41 1
    37   22   42 1
    38   22   43 1
    39   23   44 1
    40   23   45 1
    41   23   46 1
    42   24   25 1
    43   24   47 1
    44   25   30 ar
    45   25   26 ar
    46   26   27 ar
    47   26   48 1
    48   27   28 ar
    49   27   49 1
    50   28   29 ar
    51   28   50 1
    52   29   30 ar
    53   29   51 1
    54   30   31 1
    55   31   52 1
@<TRIPOS>MOLECULE
ZINC15272401
   58    61     0     0     0
SMALL
USER_CHARGES
3-(1-adamantyl)-1-[3-(azepan-1-yl)-3-oxo-propyl]urea
@<TRIPOS>ATOM
      1 C1        -13.1357    1.0818    1.3031 C.3       1 <0>        -0.1204
      2 C2        -13.0573    2.0031    2.5167 C.3       1 <0>        -0.1178
      3 C3        -13.1158    1.1758    3.7771 C.3       1 <0>        -0.1317
      4 C4        -11.6926    0.8125    4.2379 C.3       1 <0>         0.1101
      5 N1        -10.8153    0.4557    3.1057 N.am      1 <0>        -0.6045
      6 C5        -11.2582   -0.3686    2.0036 C.3       1 <0>         0.1066
      7 C6        -11.8425    0.5192    0.8849 C.3       1 <0>        -0.1390
      8 C7         -9.5509    0.9222    3.0961 C.2       1 <0>         0.5150
      9 O1         -9.1551    1.6200    4.0057 O.2       1 <0>        -0.5321
     10 C8         -8.6290    0.5769    1.9551 C.3       1 <0>        -0.1535
     11 C9         -7.2638    1.2274    2.1877 C.3       1 <0>         0.1543
     12 N2         -6.3676    0.8917    1.0785 N.am      1 <0>        -0.7508
     13 C10        -5.1031    1.3582    1.0690 C.2       1 <0>         0.7058
     14 O2         -4.7063    2.0577    1.9809 O.2       1 <0>        -0.5781
     15 N3         -4.2786    1.0494    0.0485 N.am      1 <0>        -0.7418
     16 C11        -2.9042    1.5565    0.0381 C.3       1 <0>         0.2028
     17 C12        -2.1881    1.0631   -1.2207 C.3       1 <0>        -0.1140
     18 C13        -0.7527    1.5927   -1.2315 C.3       1 <0>        -0.0801
     19 C14        -0.0127    1.0858    0.0080 C.3       1 <0>        -0.1113
     20 C15        -0.7288    1.5792    1.2668 C.3       1 <0>        -0.0829
     21 C16        -2.1642    1.0497    1.2777 C.3       1 <0>        -0.1225
     22 C17        -0.7496    3.1091    1.2752 C.3       1 <0>        -0.1095
     23 C18        -1.4896    3.6159    0.0357 C.3       1 <0>        -0.0829
     24 C19        -0.7734    3.1225   -1.2231 C.3       1 <0>        -0.1113
     25 C20        -2.9250    3.0863    0.0466 C.3       1 <0>        -0.1225
     26 H1        -13.8118    0.2593    1.5361 H         1 <0>         0.0611
     27 H2        -13.5521    1.6446    0.4677 H         1 <0>         0.0594
     28 H3        -13.8957    2.6994    2.4995 H         1 <0>         0.0645
     29 H4        -12.1210    2.5606    2.4907 H         1 <0>         0.0645
     30 H5        -13.6776    0.2619    3.5839 H         1 <0>         0.0670
     31 H6        -13.6149    1.7458    4.5608 H         1 <0>         0.0772
     32 H7        -11.7475   -0.0334    4.9232 H         1 <0>         0.0641
     33 H8        -11.2633    1.6657    4.7630 H         1 <0>         0.0911
     34 H9        -10.4126   -0.9320    1.6090 H         1 <0>         0.0802
     35 H10       -12.0238   -1.0612    2.3532 H         1 <0>         0.0811
     36 H11       -11.9835   -0.0787   -0.0155 H         1 <0>         0.0769
     37 H12       -11.1481    1.3316    0.6704 H         1 <0>         0.0644
     38 H13        -9.0528    0.9458    1.0211 H         1 <0>         0.1006
     39 H14        -8.5108   -0.5052    1.8982 H         1 <0>         0.1005
     40 H15        -6.8400    0.8586    3.1217 H         1 <0>         0.0751
     41 H16        -7.3819    2.3095    2.2447 H         1 <0>         0.0748
     42 H17        -6.6842    0.3337    0.3510 H         1 <0>         0.3935
     43 H18        -4.5952    0.4914   -0.6790 H         1 <0>         0.3932
     44 H19        -2.7153    1.4241   -2.1037 H         1 <0>         0.0675
     45 H20        -2.1733   -0.0268   -1.2266 H         1 <0>         0.0675
     46 H21        -0.2425    1.2411   -2.1283 H         1 <0>         0.0745
     47 H22         0.0021   -0.0041    0.0020 H         1 <0>         0.0619
     48 H23         1.0099    1.4631    0.0003 H         1 <0>         0.0646
     49 H24        -0.2017    1.2182    2.1499 H         1 <0>         0.0717
     50 H25        -2.6744    1.4012    2.1745 H         1 <0>         0.0877
     51 H26        -2.1494   -0.0402    1.2717 H         1 <0>         0.0573
     52 H27        -1.2598    3.4606    2.1720 H         1 <0>         0.0654
     53 H28         0.2730    3.4864    1.2675 H         1 <0>         0.0620
     54 H29        -1.5044    4.7058    0.0417 H         1 <0>         0.0716
     55 H30         0.2491    3.4998   -1.2308 H         1 <0>         0.0646
     56 H31        -1.3006    3.4836   -2.1062 H         1 <0>         0.0619
     57 H32        -3.4522    3.4474   -0.8365 H         1 <0>         0.0573
     58 H33        -3.4352    3.4378    0.9434 H         1 <0>         0.0877
@<TRIPOS>BOND
     1    1    7 1
     2    1    2 1
     3    1   26 1
     4    1   27 1
     5    2    3 1
     6    2   28 1
     7    2   29 1
     8    3    4 1
     9    3   30 1
    10    3   31 1
    11    4    5 1
    12    4   32 1
    13    4   33 1
    14    5    6 1
    15    5    8 am
    16    6    7 1
    17    6   34 1
    18    6   35 1
    19    7   36 1
    20    7   37 1
    21    8    9 2
    22    8   10 1
    23   10   11 1
    24   10   38 1
    25   10   39 1
    26   11   12 1
    27   11   40 1
    28   11   41 1
    29   12   13 am
    30   12   42 1
    31   13   14 2
    32   13   15 am
    33   15   16 1
    34   15   43 1
    35   16   21 1
    36   16   25 1
    37   16   17 1
    38   17   18 1
    39   17   44 1
    40   17   45 1
    41   18   24 1
    42   18   19 1
    43   18   46 1
    44   19   20 1
    45   19   47 1
    46   19   48 1
    47   20   21 1
    48   20   22 1
    49   20   49 1
    50   21   50 1
    51   21   51 1
    52   22   23 1
    53   22   52 1
    54   22   53 1
    55   23   24 1
    56   23   25 1
    57   23   54 1
    58   24   55 1
    59   24   56 1
    60   25   57 1
    61   25   58 1
@<TRIPOS>MOLECULE
ZINC42015370
   32    34     0     0     0
SMALL
USER_CHARGES

@<TRIPOS>ATOM
      1 C1          0.0038   -0.5868    0.1092 C.3       1 <0>        -0.1270
      2 C2         -1.2802   -1.0518    0.7466 C.ar      1 <0>        -0.0480
      3 C3         -2.2307   -1.7070   -0.0117 C.ar      1 <0>        -0.0800
      4 C4         -3.4096   -2.1342    0.5729 C.ar      1 <0>        -0.0639
      5 C5         -3.6396   -1.9067    1.9184 C.ar      1 <0>        -0.0834
      6 C6         -2.6925   -1.2525    2.6811 C.ar      1 <0>        -0.0766
      7 C7         -1.5062   -0.8270    2.0978 C.ar      1 <0>         0.1252
      8 N1         -0.5409   -0.1674    2.8708 N.pl3     1 <0>        -0.3336
      9 C8          0.3893   -0.7310    3.6951 C.2       1 <0>         0.3164
     10 N2          1.0855    0.2577    4.2186 N.2       1 <0>        -0.3229
     11 N3          0.6594    1.3879    3.7834 N.2       1 <0>        -0.0322
     12 N4         -0.3174    1.2178    2.9602 N.2       1 <0>        -0.0647
     13 C9          0.5795   -2.1740    3.9514 C.ar      1 <0>        -0.1242
     14 C10         0.6639   -3.0704    2.8857 C.ar      1 <0>        -0.0235
     15 C11         0.8415   -4.4169    3.1311 C.ar      1 <0>        -0.0949
     16 C12         0.9361   -4.8834    4.4325 C.ar      1 <0>        -0.0286
     17 C13         0.8541   -4.0064    5.4961 C.ar      1 <0>        -0.1858
     18 C14         0.6818   -2.6485    5.2662 C.ar      1 <0>         0.2789
     19 N5          0.6051   -1.7615    6.3383 N.pl3     1 <0>        -0.8547
     20 Cl1         0.9464   -5.5309    1.8039 Cl        1 <0>        -0.0627
     21 Br1        -4.7091   -3.0299   -0.4686 Br        1 <0>        -0.0264
     22 H1          0.7781   -1.3387    0.2613 H         1 <0>         0.0804
     23 H2         -0.1539   -0.4386   -0.9592 H         1 <0>         0.0866
     24 H3          0.3157    0.3532    0.5643 H         1 <0>         0.0725
     25 H4         -2.0536   -1.8858   -1.0620 H         1 <0>         0.1498
     26 H5         -4.5609   -2.2409    2.3723 H         1 <0>         0.1492
     27 H6         -2.8726   -1.0749    3.7310 H         1 <0>         0.1406
     28 H7          0.5900   -2.7112    1.8698 H         1 <0>         0.1328
     29 H8          1.0743   -5.9387    4.6160 H         1 <0>         0.1431
     30 H9          0.9282   -4.3771    6.5078 H         1 <0>         0.1437
     31 H10         0.4806   -0.8134    6.1753 H         1 <0>         0.4064
     32 H11         0.6761   -2.0921    7.2474 H         1 <0>         0.4075
@<TRIPOS>BOND
     1    1    2 1
     2    1   22 1
     3    1   23 1
     4    1   24 1
     5    2    7 ar
     6    2    3 ar
     7    3    4 ar
     8    3   25 1
     9    4    5 ar
    10    4   21 1
    11    5    6 ar
    12    5   26 1
    13    6    7 ar
    14    6   27 1
    15    7    8 1
    16    8   12 1
    17    8    9 1
    18    9   10 2
    19    9   13 1
    20   10   11 1
    21   11   12 2
    22   13   18 ar
    23   13   14 ar
    24   14   15 ar
    25   14   28 1
    26   15   16 ar
    27   15   20 1
    28   16   17 ar
    29   16   29 1
    30   17   18 ar
    31   17   30 1
    32   18   19 1
    33   19   31 1
    34   19   32 1
@<TRIPOS>MOLECULE
ZINC03148451
   37    39     0     0     0
SMALL
USER_CHARGES

@<TRIPOS>ATOM
      1 C1         -0.0184    1.5028    0.0103 C.3       1 <0>        -0.1142
      2 C2          0.0021   -0.0041    0.0020 C.ar      1 <0>        -0.0986
      3 C3          0.0057   -0.6891   -1.2014 C.ar      1 <0>        -0.0694
      4 C4          0.0239   -2.0690   -1.2249 C.ar      1 <0>        -0.0942
      5 C5          0.0388   -2.7873   -0.0341 C.ar      1 <0>         0.1493
      6 C6          0.0355   -2.0903    1.1809 C.ar      1 <0>        -0.0881
      7 C7          0.0228   -0.7000    1.1942 C.ar      1 <0>        -0.0408
      8 C8          0.0538   -3.1148    2.2508 C.2       1 <0>         0.0683
      9 N1          0.0570   -2.9159    3.5469 N.2       1 <0>        -0.1131
     10 N2          0.0753   -4.0089    4.4232 N.am      1 <0>        -0.5690
     11 C9          0.0786   -3.8045    5.7554 C.2       1 <0>         0.5804
     12 O1          0.0656   -2.6721    6.1965 O.2       1 <0>        -0.4822
     13 C10         0.0979   -4.9570    6.6795 C.ar      1 <0>        -0.1309
     14 C11         0.1186   -6.2594    6.1759 C.ar      1 <0>        -0.0693
     15 C12         0.1365   -7.3312    7.0439 C.ar      1 <0>        -0.1158
     16 C13         0.1336   -7.1187    8.4112 C.ar      1 <0>        -0.0571
     17 C14         0.1127   -5.8305    8.9177 C.ar      1 <0>        -0.1006
     18 C15         0.1013   -4.7487    8.0599 C.ar      1 <0>        -0.0242
     19 Br1         0.1076   -5.5518   10.7880 Br        1 <0>        -0.0319
     20 C16         0.0672   -4.4087    1.5395 C.2       1 <0>         0.5460
     21 O2          0.0835   -5.5102    2.0564 O.2       1 <0>        -0.5036
     22 N3          0.0577   -4.1542    0.2199 N.am      1 <0>        -0.6401
     23 C17         0.0271   -2.7987   -2.5434 C.3       1 <0>        -0.1161
     24 H1          1.0042    1.8801    0.0026 H         1 <0>         0.0744
     25 H2         -0.5455    1.8639   -0.8728 H         1 <0>         0.0704
     26 H3         -0.5286    1.8543    0.9071 H         1 <0>         0.0708
     27 H4         -0.0061   -0.1385   -2.1304 H         1 <0>         0.1376
     28 H5          0.0245   -0.1667    2.1333 H         1 <0>         0.1393
     29 H6          0.0857   -4.9127    4.0712 H         1 <0>         0.4089
     30 H7          0.1202   -6.4271    5.1090 H         1 <0>         0.1354
     31 H8          0.1526   -8.3388    6.6553 H         1 <0>         0.1447
     32 H9          0.1473   -7.9616    9.0863 H         1 <0>         0.1431
     33 H10         0.0902   -3.7440    8.4559 H         1 <0>         0.1513
     34 H11         0.0630   -4.8378   -0.4683 H         1 <0>         0.4239
     35 H12         1.0554   -2.9611   -2.8663 H         1 <0>         0.0757
     36 H13        -0.4735   -3.7601   -2.4278 H         1 <0>         0.0629
     37 H14        -0.4983   -2.2029   -3.2897 H         1 <0>         0.0770
@<TRIPOS>BOND
     1    1    2 1
     2    1   24 1
     3    1   25 1
     4    1   26 1
     5    2    7 ar
     6    2    3 ar
     7    3    4 ar
     8    3   27 1
     9    4    5 ar
    10    4   23 1
    11    5   22 1
    12    5    6 ar
    13    6    7 ar
    14    6    8 1
    15    7   28 1
    16    8    9 2
    17    8   20 1
    18    9   10 1
    19   10   11 am
    20   10   29 1
    21   11   12 2
    22   11   13 1
    23   13   18 ar
    24   13   14 ar
    25   14   15 ar
    26   14   30 1
    27   15   16 ar
    28   15   31 1
    29   16   17 ar
    30   16   32 1
    31   17   18 ar
    32   17   19 1
    33   18   33 1
    34   20   21 2
    35   20   22 am
    36   22   34 1
    37   23   35 1
    38   23   36 1
    39   23   37 1
@<TRIPOS>MOLECULE
ZINC01045586
   38    39     0     0     0
SMALL
USER_CHARGES

@<TRIPOS>ATOM
      1 C1         -0.0178    1.4608    0.0101 C.3       1 <0>         0.0893
      2 N1          0.0021   -0.0041    0.0020 N.pl3     1 <0>        -0.6280
      3 C2          1.2806   -0.7192   -0.0140 C.3       1 <0>         0.0854
      4 C3         -1.1927   -0.7157    0.0096 C.ar      1 <0>         0.2456
      5 C4         -1.1720   -2.1077    0.0077 C.ar      1 <0>        -0.2075
      6 C5         -2.3524   -2.8149    0.0157 C.ar      1 <0>        -0.0010
      7 C6         -3.5735   -2.1339    0.0256 C.ar      1 <0>        -0.2013
      8 C7         -3.5908   -0.7358    0.0275 C.ar      1 <0>        -0.0341
      9 C8         -2.4068   -0.0346    0.0249 C.ar      1 <0>        -0.2049
     10 C9         -4.8405   -2.8886    0.0337 C.2       1 <0>         0.5842
     11 O1         -4.8240   -4.1048    0.0317 O.2       1 <0>        -0.4998
     12 N2         -6.0167   -2.2306    0.0433 N.am      1 <0>        -0.5836
     13 N3         -7.2203   -2.9476    0.0509 N.2       1 <0>        -0.1882
     14 C10        -8.3533   -2.3138    0.0602 C.2       1 <0>         0.0907
     15 C11        -9.6194   -3.0680    0.0682 C.ar      1 <0>        -0.0549
     16 C12       -10.8407   -2.3897    0.0723 C.ar      1 <0>        -0.0643
     17 C13       -12.0229   -3.1015    0.0793 C.ar      1 <0>        -0.0394
     18 C14       -12.0038   -4.4869    0.0824 C.ar      1 <0>        -0.0746
     19 C15       -10.8009   -5.1693    0.0788 C.ar      1 <0>        -0.0605
     20 C16        -9.6046   -4.4690    0.0659 C.ar      1 <0>         0.1614
     21 O2         -8.4225   -5.1385    0.0563 O.3       1 <0>        -0.4564
     22 Cl1       -10.7892   -6.9052    0.0838 Cl        1 <0>        -0.0368
     23 Cl2       -13.5401   -2.2578    0.0850 Cl        1 <0>        -0.0482
     24 H1          1.0048    1.8381    0.0023 H         1 <0>         0.0773
     25 H2         -0.5450    1.8219   -0.8730 H         1 <0>         0.0586
     26 H3         -0.5280    1.8123    0.9069 H         1 <0>         0.0587
     27 H4          1.6074   -0.9021    1.0096 H         1 <0>         0.0543
     28 H5          1.1583   -1.6705   -0.5318 H         1 <0>         0.0732
     29 H6          2.0272   -0.1171   -0.5318 H         1 <0>         0.0713
     30 H7         -0.2285   -2.6332   -0.0003 H         1 <0>         0.1324
     31 H8         -2.3357   -3.8948    0.0139 H         1 <0>         0.1382
     32 H9         -4.5323   -0.2068    0.0352 H         1 <0>         0.1218
     33 H10        -2.4194    1.0453    0.0308 H         1 <0>         0.1291
     34 H11        -6.0299   -1.2607    0.0449 H         1 <0>         0.3847
     35 H12        -8.3680   -1.2339    0.0619 H         1 <0>         0.1275
     36 H13       -10.8597   -1.3099    0.0703 H         1 <0>         0.1501
     37 H14       -12.9332   -5.0368    0.0879 H         1 <0>         0.1509
     38 H15        -8.0739   -5.3337    0.9369 H         1 <0>         0.3988
@<TRIPOS>BOND
     1    1    2 1
     2    1   24 1
     3    1   25 1
     4    1   26 1
     5    2    3 1
     6    2    4 1
     7    3   27 1
     8    3   28 1
     9    3   29 1
    10    4    9 ar
    11    4    5 ar
    12    5    6 ar
    13    5   30 1
    14    6    7 ar
    15    6   31 1
    16    7    8 ar
    17    7   10 1
    18    8    9 ar
    19    8   32 1
    20    9   33 1
    21   10   11 2
    22   10   12 am
    23   12   13 1
    24   12   34 1
    25   13   14 2
    26   14   15 1
    27   14   35 1
    28   15   20 ar
    29   15   16 ar
    30   16   17 ar
    31   16   36 1
    32   17   18 ar
    33   17   23 1
    34   18   19 ar
    35   18   37 1
    36   19   20 ar
    37   19   22 1
    38   20   21 1
    39   21   38 1
@<TRIPOS>MOLECULE
ZINC64664336
   42    45     0     0     0
SMALL
USER_CHARGES

@<TRIPOS>ATOM
      1 C1          1.7440    0.9292   -0.1625 C.3       1 <0>        -0.1137
      2 C2          0.8475   -0.2793   -0.0810 C.ar      1 <0>        -0.0943
      3 C3         -0.0864   -0.5145   -1.0744 C.ar      1 <0>        -0.1070
      4 C4         -0.9122   -1.6219   -1.0063 C.ar      1 <0>        -0.1191
      5 C5         -0.8087   -2.4991    0.0544 C.ar      1 <0>        -0.0532
      6 C6          0.1301   -2.2672    1.0578 C.ar      1 <0>        -0.0282
      7 C7          0.9634   -1.1523    0.9813 C.ar      1 <0>        -0.0964
      8 C8          0.2458   -3.2060    2.2004 C.2       1 <0>         0.1120
      9 C9          0.2884   -2.7303    3.4829 C.2       1 <0>        -0.1832
     10 S1          0.4255   -4.2590    4.4003 S.3       1 <0>        -0.0124
     11 C10         0.4120   -5.3642    2.9955 C.2       1 <0>         0.2159
     12 N1          0.3030   -4.5099    1.9890 N.2       1 <0>        -0.4677
     13 C11         0.4943   -6.8374    2.9654 C.2       1 <0>        -0.0424
     14 C12         0.5956   -7.6672    4.0687 C.2       1 <0>         0.3851
     15 N2          0.6436   -8.9421    3.5858 N.pl3     1 <0>        -0.3534
     16 N3          0.5692   -8.8455    2.1892 N.2       1 <0>        -0.0568
     17 N4          0.4780   -7.6044    1.8631 N.2       1 <0>        -0.1457
     18 C13         0.7472  -10.1199    4.3395 C.ar      1 <0>         0.1728
     19 C14         1.4923  -10.1324    5.5112 C.ar      1 <0>        -0.1507
     20 C15         1.5935  -11.2933    6.2525 C.ar      1 <0>        -0.0605
     21 C16         0.9536  -12.4437    5.8297 C.ar      1 <0>        -0.1471
     22 C17         0.2099  -12.4356    4.6616 C.ar      1 <0>         0.1299
     23 C18         0.1005  -11.2734    3.9188 C.ar      1 <0>        -0.1392
     24 F1         -0.4137  -13.5612    4.2502 F         1 <0>        -0.1252
     25 N5          0.6398   -7.2798    5.3992 N.pl3     1 <0>        -0.8208
     26 C19        -1.7095   -3.7050    0.1274 C.3       1 <0>        -0.1062
     27 H1          2.6517    0.6721   -0.7084 H         1 <0>         0.0704
     28 H2          1.2232    1.7336   -0.6820 H         1 <0>         0.0672
     29 H3          2.0056    1.2562    0.8439 H         1 <0>         0.0658
     30 H4         -0.1711    0.1694   -1.9059 H         1 <0>         0.1237
     31 H5         -1.6396   -1.8004   -1.7843 H         1 <0>         0.1257
     32 H6          1.6958   -0.9702    1.7538 H         1 <0>         0.1235
     33 H7          0.2503   -1.7124    3.8419 H         1 <0>         0.2035
     34 H8          1.9930   -9.2346    5.8425 H         1 <0>         0.1381
     35 H9          2.1735  -11.3026    7.1635 H         1 <0>         0.1506
     36 H10         1.0343  -13.3502    6.4112 H         1 <0>         0.1488
     37 H11        -0.4836  -11.2651    3.0105 H         1 <0>         0.1537
     38 H12         0.5983   -6.3391    5.6321 H         1 <0>         0.4210
     39 H13         0.7123   -7.9495    6.0972 H         1 <0>         0.4139
     40 H14        -1.1943   -4.5694   -0.2916 H         1 <0>         0.0816
     41 H15        -1.9664   -3.9042    1.1678 H         1 <0>         0.0595
     42 H16        -2.6196   -3.5137   -0.4413 H         1 <0>         0.0604
@<TRIPOS>BOND
     1    1    2 1
     2    1   27 1
     3    1   28 1
     4    1   29 1
     5    2    7 ar
     6    2    3 ar
     7    3    4 ar
     8    3   30 1
     9    4    5 ar
    10    4   31 1
    11    5    6 ar
    12    5   26 1
    13    6    7 ar
    14    6    8 1
    15    7   32 1
    16    8   12 1
    17    8    9 2
    18    9   10 1
    19    9   33 1
    20   10   11 1
    21   11   12 2
    22   11   13 1
    23   13   17 1
    24   13   14 2
    25   14   15 1
    26   14   25 1
    27   15   16 1
    28   15   18 1
    29   16   17 2
    30   18   23 ar
    31   18   19 ar
    32   19   20 ar
    33   19   34 1
    34   20   21 ar
    35   20   35 1
    36   21   22 ar
    37   21   36 1
    38   22   23 ar
    39   22   24 1
    40   23   37 1
    41   25   38 1
    42   25   39 1
    43   26   40 1
    44   26   41 1
    45   26   42 1
@<TRIPOS>MOLECULE
ZINC05884777
   31    32     0     0     0
SMALL
USER_CHARGES
(4aS,5R)-5-ethynyl-5-hydroxy-4a-methyl-4,6,7,8-tetrahydro-3H-naphthalen-2-one
@<TRIPOS>ATOM
      1 C1          0.2595    3.4929   -1.1665 C.3       1 <0>        -0.1429
      2 C2          1.1435    3.0878    0.0147 C.3       1 <0>        -0.0118
      3 C3          0.4284    3.5091    1.2861 C.3       1 <0>        -0.1047
      4 C4          0.6253    4.9955    1.5805 C.3       1 <0>        -0.1589
      5 C5          2.1176    5.2432    1.6844 C.2       1 <0>         0.3876
      6 O1          2.6015    5.8469    2.6190 O.2       1 <0>        -0.4543
      7 C6          2.9450    4.7147    0.5945 C.2       1 <0>        -0.2307
      8 C7          2.4876    3.7238   -0.1702 C.2       1 <0>        -0.0240
      9 C8          3.3806    3.2284   -1.2931 C.3       1 <0>        -0.0983
     10 C9          3.4567    1.7010   -1.2273 C.3       1 <0>        -0.1185
     11 C10         2.0382    1.1271   -1.2600 C.3       1 <0>        -0.1457
     12 C11         1.2864    1.5618   -0.0018 C.3       1 <0>         0.2610
     13 C12         2.0342    1.1282    1.1896 C.1       1 <0>        -0.2195
     14 C13         2.6306    0.7825    2.1399 C.1       1 <0>        -0.1700
     15 O2         -0.0110    0.9628    0.0073 O.3       1 <0>        -0.5420
     16 H1         -0.7186    3.0223   -1.0666 H         1 <0>         0.0780
     17 H2          0.1419    4.5765   -1.1775 H         1 <0>         0.0624
     18 H3          0.7254    3.1686   -2.0971 H         1 <0>         0.0633
     19 H4          0.8166    2.9268    2.1217 H         1 <0>         0.0704
     20 H5         -0.6371    3.3066    1.1769 H         1 <0>         0.0899
     21 H6          0.1674    5.2289    2.4383 H         1 <0>         0.0848
     22 H7          0.2061    5.5924    0.7706 H         1 <0>         0.1009
     23 H8          3.9257    5.1287    0.4120 H         1 <0>         0.1379
     24 H9          4.3795    3.6490   -1.1779 H         1 <0>         0.0819
     25 H10         2.9650    3.5323   -2.2538 H         1 <0>         0.0886
     26 H11         3.9503    1.4001   -0.3032 H         1 <0>         0.0705
     27 H12         4.0213    1.3260   -2.0809 H         1 <0>         0.0773
     28 H13         2.0870    0.0388   -1.2968 H         1 <0>         0.0751
     29 H14         1.5159    1.4977   -2.1421 H         1 <0>         0.0885
     30 H15         3.1640    0.4732    2.9898 H         1 <0>         0.2189
     31 H16         0.0021   -0.0041    0.0020 H         1 <0>         0.3842
@<TRIPOS>BOND
     1    1    2 1
     2    1   16 1
     3    1   17 1
     4    1   18 1
     5    2    8 1
     6    2   12 1
     7    2    3 1
     8    3    4 1
     9    3   19 1
    10    3   20 1
    11    4    5 1
    12    4   21 1
    13    4   22 1
    14    5    6 2
    15    5    7 1
    16    7    8 2
    17    7   23 1
    18    8    9 1
    19    9   10 1
    20    9   24 1
    21    9   25 1
    22   10   11 1
    23   10   26 1
    24   10   27 1
    25   11   12 1
    26   11   28 1
    27   11   29 1
    28   12   13 1
    29   12   15 1
    30   13   14 3
    31   14   30 1
    32   15   31 1
@<TRIPOS>MOLECULE
ZINC37256301
   29    30     0     0     0
SMALL
USER_CHARGES

@<TRIPOS>ATOM
      1 C1         -0.0470    1.6088    0.3109 C.3       1 <0>        -0.1475
      2 C2         -0.0291    0.0842    0.1843 C.3       1 <0>        -0.1138
      3 H1         -1.0517   -0.2931    0.1920 H         1 <0>         0.0821
      4 C3          0.6503   -0.3107   -1.1285 C.3       1 <0>        -0.1198
      5 C4          0.6682   -1.8353   -1.2551 C.3       1 <0>        -0.1431
      6 C5          1.4422   -2.4356   -0.0797 C.3       1 <0>        -0.1276
      7 C6          0.7628   -2.0407    1.2331 C.3       1 <0>         0.1385
      8 H2          1.3142   -2.4684    2.0705 H         1 <0>         0.1286
      9 C7          0.7449   -0.5161    1.3597 C.3       1 <0>        -0.1227
     10 N1         -0.6116   -2.5478    1.2435 N.pl3     1 <0>        -0.4455
     11 C8         -1.6056   -2.2258    0.3322 C.2       1 <0>        -0.0185
     12 C9         -2.7065   -2.8850    0.6782 C.2       1 <0>        -0.0121
     13 N2         -2.4190   -3.6301    1.8114 N.pl3     1 <0>        -0.5653
     14 C10        -1.1294   -3.4135    2.1371 C.2       1 <0>         0.4646
     15 S1         -0.2955   -4.1127    3.4587 S.2       1 <0>        -0.6375
     16 H3          0.9756    1.9861    0.3031 H         1 <0>         0.0572
     17 H4         -0.5984    2.0364   -0.5265 H         1 <0>         0.0576
     18 H5         -0.5310    1.8901    1.2461 H         1 <0>         0.0557
     19 H6          0.0989    0.1170   -1.9659 H         1 <0>         0.0682
     20 H7          1.6728    0.0666   -1.1363 H         1 <0>         0.0694
     21 H8         -0.3544   -2.2126   -1.2474 H         1 <0>         0.0745
     22 H9          1.1522   -2.1166   -2.1904 H         1 <0>         0.0723
     23 H10         1.4549   -3.5217   -0.1699 H         1 <0>         0.0735
     24 H11         2.4648   -2.0583   -0.0874 H         1 <0>         0.0906
     25 H12         1.7675   -0.1388    1.3520 H         1 <0>         0.0906
     26 H13         0.2609   -0.2348    2.2950 H         1 <0>         0.0737
     27 H14        -1.5035   -1.5571   -0.5097 H         1 <0>         0.2109
     28 H15        -3.6571   -2.8467    0.1670 H         1 <0>         0.1984
     29 H16        -3.0369   -4.2089    2.2848 H         1 <0>         0.4467
@<TRIPOS>BOND
     1    1    2 1
     2    1   16 1
     3    1   17 1
     4    1   18 1
     5    2    3 1
     6    2    9 1
     7    2    4 1
     8    4    5 1
     9    4   19 1
    10    4   20 1
    11    5    6 1
    12    5   21 1
    13    5   22 1
    14    6    7 1
    15    6   23 1
    16    6   24 1
    17    7    8 1
    18    7    9 1
    19    7   10 1
    20    9   25 1
    21    9   26 1
    22   10   14 1
    23   10   11 1
    24   11   27 1
    25   11   12 2
    26   12   28 1
    27   12   13 1
    28   13   14 1
    29   13   29 1
    30   14   15 2
@<TRIPOS>MOLECULE
ZINC39506088
   29    30     0     0     0
SMALL
USER_CHARGES

@<TRIPOS>ATOM
      1 C1         -0.0225    1.8097    0.0120 C.3       1 <0>        -0.1223
      2 S1          0.0021   -0.0041    0.0020 S.3       1 <0>        -0.2512
      3 C2         -1.7518   -0.4668    0.0163 C.3       1 <0>        -0.0613
      4 H1         -2.2834    0.0150   -0.8043 H         1 <0>         0.0931
      5 C3         -2.4026   -0.1098    1.3763 C.3       1 <0>        -0.1106
      6 C4         -3.6108   -1.0656    1.4809 C.3       1 <0>        -0.1647
      7 C5         -3.2936   -2.2642    0.5788 C.3       1 <0>         0.0764
      8 C6         -1.9139   -2.0069   -0.0536 C.3       1 <0>        -0.0740
      9 C7         -4.3577   -2.3993   -0.5234 C.3       1 <0>        -0.1257
     10 C8         -4.5110   -3.9375   -0.6688 C.3       1 <0>         0.0924
     11 H2         -3.7361   -4.3475   -1.3165 H         1 <0>         0.0831
     12 C9         -4.3200   -4.4124    0.7938 C.3       1 <0>        -0.0165
     13 N1         -3.2854   -3.5128    1.3517 N.3       1 <0>        -0.3226
     14 Cl1        -3.5677   -3.2086    3.0106 Cl        1 <0>        -0.0642
     15 O1         -5.8117   -4.2786   -1.1526 O.3       1 <0>        -0.5545
     16 H3          1.0001    2.1870    0.0043 H         1 <0>         0.1021
     17 H4         -0.5497    2.1708   -0.8711 H         1 <0>         0.0757
     18 H5         -0.5327    2.1613    0.9088 H         1 <0>         0.0766
     19 H6         -1.7028   -0.2888    2.1927 H         1 <0>         0.0832
     20 H7         -2.7358    0.9280    1.3790 H         1 <0>         0.0692
     21 H8         -3.7379   -1.3965    2.5117 H         1 <0>         0.1106
     22 H9         -4.5148   -0.5652    1.1340 H         1 <0>         0.0739
     23 H10        -1.8958   -2.3462   -1.0893 H         1 <0>         0.0830
     24 H11        -1.1324   -2.4998    0.5246 H         1 <0>         0.0949
     25 H12        -5.2979   -1.9457   -0.2098 H         1 <0>         0.0869
     26 H13        -4.0063   -1.9567   -1.4554 H         1 <0>         0.0925
     27 H14        -5.2516   -4.3105    1.3505 H         1 <0>         0.0823
     28 H15        -3.9754   -5.4463    0.8152 H         1 <0>         0.1065
     29 H16        -5.9548   -5.2289   -1.2596 H         1 <0>         0.3852
@<TRIPOS>BOND
     1    1    2 1
     2    1   16 1
     3    1   17 1
     4    1   18 1
     5    2    3 1
     6    3    4 1
     7    3    8 1
     8    3    5 1
     9    5    6 1
    10    5   19 1
    11    5   20 1
    12    6    7 1
    13    6   21 1
    14    6   22 1
    15    7   13 1
    16    7    8 1
    17    7    9 1
    18    8   23 1
    19    8   24 1
    20    9   10 1
    21    9   25 1
    22    9   26 1
    23   10   11 1
    24   10   12 1
    25   10   15 1
    26   12   13 1
    27   12   27 1
    28   12   28 1
    29   13   14 1
    30   15   29 1
@<TRIPOS>MOLECULE
ZINC43764083
   41    43     0     0     0
SMALL
USER_CHARGES

@<TRIPOS>ATOM
      1 C1         -0.0189    1.5391    0.0105 C.3       1 <0>        -0.1296
      2 C2          0.0021   -0.0041    0.0020 C.3       1 <0>        -0.1046
      3 C3          0.7866   -0.5572   -1.2030 C.3       1 <0>        -0.1054
      4 C4          1.4448   -1.8588   -0.7240 C.3       1 <0>        -0.1586
      5 C5          1.4256   -1.8378    0.8255 C.3       1 <0>         0.1463
      6 C6          0.7474   -0.5521    1.2495 C.3       1 <0>        -0.0156
      7 H1          1.5640    0.1861    1.4293 H         1 <0>         0.0838
      8 C7         -0.1303   -0.4760    2.4306 C.3       1 <0>        -0.1257
      9 H2         -0.2937    0.6096    2.6600 H         1 <0>         0.0801
     10 C8         -1.4392   -1.2021    2.6210 C.3       1 <0>        -0.1550
     11 H3         -2.2500   -0.5461    2.9567 H         1 <0>         0.0852
     12 C9         -0.3203   -1.3414    3.6427 C.3       1 <0>        -0.0784
     13 C10         0.3597   -2.6859    3.8450 C.3       1 <0>        -0.1150
     14 C11        -0.5647   -0.6051    4.9873 C.3       1 <0>        -0.1261
     15 C12        -1.9003   -2.3189    1.7209 C.3       1 <0>        -0.0571
     16 C13        -1.6453   -2.0312    0.2486 C.3       1 <0>        -0.1592
     17 C14        -1.3938   -0.5699    0.0172 C.2       1 <0>         0.3793
     18 O1         -2.3385    0.1767   -0.1693 O.2       1 <0>        -0.4670
     19 C15         2.8822   -1.8527    1.3250 C.3       1 <0>        -0.1776
     20 O2          0.7693   -3.0292    1.2492 O.3       1 <0>        -0.5426
     21 H4          1.0037    1.9164    0.0028 H         1 <0>         0.0636
     22 H5         -0.5460    1.9002   -0.8726 H         1 <0>         0.0654
     23 H6         -0.5290    1.8906    0.9073 H         1 <0>         0.0606
     24 H7          0.1116   -0.7615   -2.0437 H         1 <0>         0.0702
     25 H8          1.5523    0.1574   -1.5276 H         1 <0>         0.0791
     26 H9          0.8944   -2.7252   -1.0869 H         1 <0>         0.0783
     27 H10         2.4777   -1.9159   -1.0744 H         1 <0>         0.0741
     28 H11         1.4413   -2.5510    3.8362 H         1 <0>         0.0534
     29 H12         0.0540   -3.1072    4.8027 H         1 <0>         0.0497
     30 H13         0.0715   -3.3635    3.0414 H         1 <0>         0.0890
     31 H14        -1.4666    0.0021    4.9104 H         1 <0>         0.0536
     32 H15        -0.6866   -1.3372    5.7856 H         1 <0>         0.0620
     33 H16         0.2876    0.0369    5.2101 H         1 <0>         0.0576
     34 H17        -1.4292   -3.2613    1.9953 H         1 <0>         0.0865
     35 H18        -2.9838   -2.4542    1.8593 H         1 <0>         0.0571
     36 H19        -0.8233   -2.6305   -0.1272 H         1 <0>         0.1036
     37 H20        -2.5481   -2.3229   -0.3168 H         1 <0>         0.0746
     38 H21         3.4127   -0.9892    0.9239 H         1 <0>         0.0644
     39 H22         2.8932   -1.8122    2.4142 H         1 <0>         0.0655
     40 H23         3.3716   -2.7674    0.9905 H         1 <0>         0.0607
     41 H24         1.2159   -3.8424    0.9767 H         1 <0>         0.3738
@<TRIPOS>BOND
     1    1    2 1
     2    1   21 1
     3    1   22 1
     4    1   23 1
     5    2    6 1
     6    2   17 1
     7    2    3 1
     8    3    4 1
     9    3   24 1
    10    3   25 1
    11    4    5 1
    12    4   26 1
    13    4   27 1
    14    5    6 1
    15    5   19 1
    16    5   20 1
    17    6    7 1
    18    6    8 1
    19    8    9 1
    20    8   12 1
    21    8   10 1
    22   10   11 1
    23   10   12 1
    24   10   15 1
    25   12   13 1
    26   12   14 1
    27   13   28 1
    28   13   29 1
    29   13   30 1
    30   14   31 1
    31   14   32 1
    32   14   33 1
    33   15   16 1
    34   15   34 1
    35   15   35 1
    36   16   17 1
    37   16   36 1
    38   16   37 1
    39   17   18 2
    40   19   38 1
    41   19   39 1
    42   19   40 1
    43   20   41 1
@<TRIPOS>MOLECULE
ZINC12341647
   28    29     0     0     0
SMALL
USER_CHARGES

@<TRIPOS>ATOM
      1 C1         -0.0167    1.3794    0.0096 C.ar      1 <0>        -0.1194
      2 C2          1.1682    2.0938    0.0021 C.ar      1 <0>        -0.1135
      3 C3          2.3774    1.4300   -0.0129 C.ar      1 <0>        -0.0992
      4 C4          2.4037    0.0340   -0.0206 C.ar      1 <0>         0.0784
      5 C5          1.2041   -0.6806   -0.0130 C.ar      1 <0>        -0.1322
      6 C6          0.0021   -0.0041    0.0020 C.ar      1 <0>        -0.1163
      7 N1          3.6005   -0.6313   -0.0360 N.2       1 <0>        -0.4417
      8 C7          3.7918   -1.6581    0.7613 C.2       1 <0>         0.3593
      9 N2          2.7677   -2.0655    1.6150 N.pl3     1 <0>        -0.7880
     10 C8          2.0374   -3.1959    1.1718 C.3       1 <0>         0.1279
     11 C9          2.5337   -4.5521    1.6814 C.3       1 <0>        -0.1438
     12 C10         4.0849   -4.7106    1.6580 C.3       1 <0>        -0.1265
     13 C11         4.7946   -4.2241    0.4336 C.3       1 <0>        -0.0856
     14 S1          5.2829   -2.4761    0.7326 S.3       1 <0>        -0.0694
     15 H1         -0.9605    1.9041    0.0260 H         1 <0>         0.1237
     16 H2          1.1464    3.1736    0.0078 H         1 <0>         0.1274
     17 H3          3.3016    1.9889   -0.0191 H         1 <0>         0.1274
     18 H4          1.2174   -1.7605   -0.0192 H         1 <0>         0.1318
     19 H5         -0.9265   -0.5555    0.0079 H         1 <0>         0.1230
     20 H6          2.5706   -1.6104    2.4486 H         1 <0>         0.4099
     21 H7          0.9997   -3.0742    1.4824 H         1 <0>         0.0715
     22 H8          2.0620   -3.2115    0.0822 H         1 <0>         0.0559
     23 H9          2.1865   -4.6862    2.7059 H         1 <0>         0.0692
     24 H10         2.0953   -5.3363    1.0643 H         1 <0>         0.0702
     25 H11         4.4908   -4.1761    2.5169 H         1 <0>         0.0764
     26 H12         4.3171   -5.7681    1.7837 H         1 <0>         0.0721
     27 H13         5.6819   -4.8313    0.2541 H         1 <0>         0.1209
     28 H14         4.1278   -4.2780   -0.4269 H         1 <0>         0.0905
@<TRIPOS>BOND
     1    1    6 ar
     2    1    2 ar
     3    1   15 1
     4    2    3 ar
     5    2   16 1
     6    3    4 ar
     7    3   17 1
     8    4    5 ar
     9    4    7 1
    10    5    6 ar
    11    5   18 1
    12    6   19 1
    13    7    8 2
    14    8   14 1
    15    8    9 1
    16    9   10 1
    17    9   20 1
    18   10   11 1
    19   10   21 1
    20   10   22 1
    21   11   12 1
    22   11   23 1
    23   11   24 1
    24   12   13 1
    25   12   25 1
    26   12   26 1
    27   13   14 1
    28   13   27 1
    29   13   28 1
@<TRIPOS>MOLECULE
ZINC07482444
   54    56     0     0     0
SMALL
USER_CHARGES
3,4,4a,5,6,7,8,8a-octahydro-1H-isoquinolin-2-ylcarbonylmethyl 4-acetyl-3,5-dimethyl-1H-pyrrole-2-carboxylate
@<TRIPOS>ATOM
      1 C1         -6.6985    2.3367   -0.0528 C.3       1 <0>        -0.1003
      2 C2         -6.1500    0.9337   -0.0093 C.2       1 <0>        -0.0153
      3 C3         -6.8856   -0.2509    0.2324 C.2       1 <0>        -0.2623
      4 C4         -5.9843   -1.3035    0.1874 C.2       1 <0>         0.1173
      5 N1         -4.7664   -0.8061   -0.0717 N.pl3     1 <0>        -0.5128
      6 H1         -3.9533   -1.3283   -0.1565 H         1 <0>         0.4300
      7 C5         -4.8514    0.5642   -0.1988 C.2       1 <0>        -0.0495
      8 C6         -3.7339    1.4707   -0.4830 C.2       1 <0>         0.5400
      9 O1         -3.9296    2.6675   -0.5727 O.2       1 <0>        -0.4925
     10 O2         -2.4894    0.9768   -0.6448 O.3       1 <0>        -0.3388
     11 C7         -1.4322    1.9322   -0.9238 C.3       1 <0>         0.0535
     12 C8         -0.1221    1.2025   -1.0726 C.2       1 <0>         0.5193
     13 O3         -0.0832   -0.0040   -0.9551 O.2       1 <0>        -0.5183
     14 N2          1.0054    1.8900   -1.3417 N.am      1 <0>        -0.6075
     15 C9          0.9752    3.3519   -1.4871 C.3       1 <0>         0.1006
     16 C10         2.0111    3.9615   -0.5378 C.3       1 <0>        -0.1325
     17 C11         3.3807    3.3334   -0.8093 C.3       1 <0>        -0.0825
     18 H2          3.6639    3.5124   -1.8465 H         1 <0>         0.0746
     19 C12         4.4182    3.9674    0.1201 C.3       1 <0>        -0.1141
     20 C13         5.7895    3.3417   -0.1401 C.3       1 <0>        -0.1208
     21 C14         5.7206    1.8367    0.1274 C.3       1 <0>        -0.1193
     22 C15         4.6870    1.2020   -0.8047 C.3       1 <0>        -0.1132
     23 C16         3.3138    1.8269   -0.5485 C.3       1 <0>        -0.0955
     24 H3          3.0192    1.6486    0.4857 H         1 <0>         0.0755
     25 C17         2.2903    1.1936   -1.4897 C.3       1 <0>         0.1169
     26 C18        -6.3170   -2.7588    0.3939 C.3       1 <0>        -0.1014
     27 C19        -8.3262   -0.3462    0.4881 C.2       1 <0>         0.4359
     28 O4         -9.1029   -0.4277   -0.4403 O.2       1 <0>        -0.4476
     29 C20        -8.8421   -0.3431    1.9040 C.3       1 <0>        -0.1887
     30 H4         -7.0065    2.5750   -1.0709 H         1 <0>         0.0775
     31 H5         -7.5576    2.4117    0.6137 H         1 <0>         0.0674
     32 H6         -5.9280    3.0381    0.2672 H         1 <0>         0.0872
     33 H7         -1.3600    2.6445   -0.1019 H         1 <0>         0.1047
     34 H8         -1.6583    2.4649   -1.8475 H         1 <0>         0.1048
     35 H9          1.2174    3.6222   -2.5149 H         1 <0>         0.0777
     36 H10        -0.0181    3.7238   -1.2357 H         1 <0>         0.0855
     37 H11         2.0657    5.0377   -0.7019 H         1 <0>         0.0812
     38 H12         1.7188    3.7653    0.4938 H         1 <0>         0.0693
     39 H13         4.4669    5.0399   -0.0680 H         1 <0>         0.0639
     40 H14         4.1310    3.7934    1.1571 H         1 <0>         0.0620
     41 H15         6.0767    3.5138   -1.1774 H         1 <0>         0.0623
     42 H16         6.5275    3.7951    0.5216 H         1 <0>         0.0625
     43 H17         6.6978    1.3898   -0.0552 H         1 <0>         0.0639
     44 H18         5.4300    1.6646    1.1638 H         1 <0>         0.0618
     45 H19         4.9774    1.3758   -1.8408 H         1 <0>         0.0653
     46 H20         4.6386    0.1294   -0.6166 H         1 <0>         0.0657
     47 H21         2.1662    0.1407   -1.2366 H         1 <0>         0.0947
     48 H22         2.6390    1.2852   -2.5183 H         1 <0>         0.0713
     49 H23        -6.3138   -2.9844    1.4603 H         1 <0>         0.0896
     50 H24        -7.3039   -2.9680   -0.0187 H         1 <0>         0.0891
     51 H25        -5.5739   -3.3765   -0.1104 H         1 <0>         0.0786
     52 H26        -8.0826   -0.1853    2.5351 H         1 <0>         0.0739
     53 H27        -9.5813    0.4496    2.0196 H         1 <0>         0.0937
     54 H28        -9.3038   -1.3055    2.1246 H         1 <0>         0.0956
@<TRIPOS>BOND
     1    1    2 1
     2    1   30 1
     3    1   31 1
     4    1   32 1
     5    2    7 2
     6    2    3 1
     7    3    4 2
     8    3   27 1
     9    4    5 1
    10    4   26 1
    11    5    6 1
    12    5    7 1
    13    7    8 1
    14    8    9 2
    15    8   10 1
    16   10   11 1
    17   11   12 1
    18   11   33 1
    19   11   34 1
    20   12   13 2
    21   12   14 am
    22   14   25 1
    23   14   15 1
    24   15   16 1
    25   15   35 1
    26   15   36 1
    27   16   17 1
    28   16   37 1
    29   16   38 1
    30   17   18 1
    31   17   23 1
    32   17   19 1
    33   19   20 1
    34   19   39 1
    35   19   40 1
    36   20   21 1
    37   20   41 1
    38   20   42 1
    39   21   22 1
    40   21   43 1
    41   21   44 1
    42   22   23 1
    43   22   45 1
    44   22   46 1
    45   23   24 1
    46   23   25 1
    47   25   47 1
    48   25   48 1
    49   26   49 1
    50   26   50 1
    51   26   51 1
    52   27   28 2
    53   27   29 1
    54   29   52 1
    55   29   53 1
    56   29   54 1
@<TRIPOS>MOLECULE
ZINC19717299
   45    47     0     0     0
SMALL
USER_CHARGES
N-[(1R)-1-(1,5-dimethylpyrazol-4-yl)ethyl]-2-(4-methoxyphenyl)thiazole-4-carboxamide
@<TRIPOS>ATOM
      1 C1         10.1075    4.5544   -1.4416 C.3       1 <0>        -0.1002
      2 C2          8.7304    5.1350   -1.2476 C.2       1 <0>         0.0990
      3 C3          7.6832    4.5220   -0.6487 C.2       1 <0>        -0.2484
      4 C4          6.5979    5.4040   -0.6712 C.2       1 <0>         0.0573
      5 N1          6.9783    6.5050   -1.2670 N.2       1 <0>        -0.2910
      6 N2          8.3197    6.3582   -1.6430 N.pl3     1 <0>        -0.3704
      7 C5          9.1344    7.3581   -2.3377 C.3       1 <0>         0.0955
      8 C6          7.6875    3.1363   -0.0563 C.3       1 <0>         0.2276
      9 H1          8.2986    2.4666   -0.6792 H         1 <0>         0.0912
     10 C7          8.2230    3.1955    1.3757 C.3       1 <0>        -0.1568
     11 N3          6.3221    2.6056   -0.0456 N.am      1 <0>        -0.7163
     12 C8          6.1167    1.2736   -0.0513 C.2       1 <0>         0.5933
     13 O1          7.0651    0.5121   -0.0653 O.2       1 <0>        -0.5409
     14 C9          4.7438    0.7400   -0.0404 C.2       1 <0>         0.0017
     15 C10         4.5245   -0.6149   -0.0461 C.2       1 <0>        -0.1628
     16 S1          2.7894   -0.6862   -0.0216 S.3       1 <0>         0.0950
     17 C11         2.4779    1.0721   -0.0164 C.2       1 <0>         0.1479
     18 N4          3.7044    1.5618   -0.0256 N.2       1 <0>        -0.4763
     19 C12         1.1861    1.7910    0.0004 C.ar      1 <0>        -0.0593
     20 C13        -0.0126    1.0758    0.0080 C.ar      1 <0>        -0.0482
     21 C14        -1.2150    1.7496    0.0173 C.ar      1 <0>        -0.2072
     22 C15        -1.2348    3.1382    0.0308 C.ar      1 <0>         0.1511
     23 C16        -0.0443    3.8533    0.0233 C.ar      1 <0>        -0.1521
     24 C17         1.1621    3.1866    0.0081 C.ar      1 <0>        -0.0277
     25 O2         -2.4217    3.7987    0.0453 O.3       1 <0>        -0.3118
     26 C18        -3.6077    3.0016    0.0523 C.3       1 <0>         0.0200
     27 H2         10.1416    3.5410   -1.0152 H         1 <0>         0.0896
     28 H3         10.8483    5.1905   -0.9350 H         1 <0>         0.0794
     29 H4         10.3378    4.5080   -2.5162 H         1 <0>         0.0783
     30 H5          5.6157    5.2099   -0.2663 H         1 <0>         0.1801
     31 H6          8.5283    8.2558   -2.5295 H         1 <0>         0.0969
     32 H7          9.4880    6.9433   -3.2932 H         1 <0>         0.0807
     33 H8          9.9986    7.6259   -1.7120 H         1 <0>         0.0808
     34 H9          8.2261    2.1840    1.8081 H         1 <0>         0.0624
     35 H10         7.5796    3.8510    1.9809 H         1 <0>         0.0594
     36 H11         9.2483    3.5940    1.3676 H         1 <0>         0.0654
     37 H12         5.4644    3.2943   -0.0329 H         1 <0>         0.4278
     38 H13         5.2411   -1.4228   -0.0577 H         1 <0>         0.2095
     39 H14         0.0021   -0.0041    0.0020 H         1 <0>         0.1308
     40 H15        -2.1429    1.1969    0.0187 H         1 <0>         0.1380
     41 H16        -0.0636    4.9331    0.0296 H         1 <0>         0.1412
     42 H17         2.0875    3.7433    0.0019 H         1 <0>         0.1437
     43 H18        -4.4904    3.6578    0.0639 H         1 <0>         0.1055
     44 H19        -3.6144    2.3621    0.9473 H         1 <0>         0.0602
     45 H20        -3.6312    2.3713   -0.8489 H         1 <0>         0.0601
@<TRIPOS>BOND
     1    1    2 1
     2    1   27 1
     3    1   28 1
     4    1   29 1
     5    2    6 1
     6    2    3 2
     7    3    4 1
     8    3    8 1
     9    4    5 2
    10    4   30 1
    11    5    6 1
    12    6    7 1
    13    7   31 1
    14    7   32 1
    15    7   33 1
    16    8    9 1
    17    8   10 1
    18    8   11 1
    19   10   34 1
    20   10   35 1
    21   10   36 1
    22   11   12 am
    23   11   37 1
    24   12   13 2
    25   12   14 1
    26   14   18 1
    27   14   15 2
    28   15   16 1
    29   15   38 1
    30   16   17 1
    31   17   18 2
    32   17   19 1
    33   19   24 ar
    34   19   20 ar
    35   20   21 ar
    36   20   39 1
    37   21   22 ar
    38   21   40 1
    39   22   23 ar
    40   22   25 1
    41   23   24 ar
    42   23   41 1
    43   24   42 1
    44   25   26 1
    45   26   43 1
    46   26   44 1
    47   26   45 1
@<TRIPOS>MOLECULE
ZINC36875874
   47    50     0     0     0
SMALL
USER_CHARGES

@<TRIPOS>ATOM
      1 C1         -0.0187    1.5258    0.0104 C.3       1 <0>        -0.1539
      2 C2          0.0021   -0.0041    0.0020 C.3       1 <0>         0.0506
      3 O1         -1.3386   -0.4987    0.0122 O.3       1 <0>        -0.3092
      4 C3         -1.4980   -1.8459    0.0064 C.ar      1 <0>         0.1698
      5 C4         -0.3820   -2.6758   -0.0029 C.ar      1 <0>        -0.2230
      6 C5         -0.5377   -4.0381   -0.0082 C.ar      1 <0>        -0.0111
      7 C6         -1.8233   -4.5934   -0.0043 C.ar      1 <0>        -0.2112
      8 C7         -2.9437   -3.7533    0.0051 C.ar      1 <0>        -0.0311
      9 C8         -2.7769   -2.3924    0.0157 C.ar      1 <0>        -0.1635
     10 C9         -1.9959   -6.0518   -0.0105 C.2       1 <0>         0.3899
     11 O2         -1.0241   -6.7775   -0.0190 O.2       1 <0>        -0.4444
     12 C10        -3.3805   -6.6467   -0.0062 C.3       1 <0>         0.0716
     13 N1         -3.2840   -8.1085   -0.0138 N.am      1 <0>        -0.5696
     14 C11        -3.2344   -8.8606   -1.1349 C.2       1 <0>         0.5409
     15 O3         -3.2594   -8.4725   -2.2832 O.2       1 <0>        -0.4503
     16 C12        -3.1405  -10.2846   -0.6528 C.3       1 <0>         0.1666
     17 C13        -4.3213  -11.1228   -1.1590 C.3       1 <0>        -0.1156
     18 C14        -3.6798  -12.5184   -1.3309 C.3       1 <0>        -0.0824
     19 C15        -2.2051  -12.2537   -1.5533 C.ar      1 <0>        -0.0735
     20 C16        -1.8960  -10.9623   -1.1589 C.ar      1 <0>        -0.1125
     21 C17        -0.5943  -10.5035   -1.2729 C.ar      1 <0>        -0.0761
     22 C18         0.3933  -11.3261   -1.7782 C.ar      1 <0>        -0.1201
     23 C19         0.0837  -12.6141   -2.1724 C.ar      1 <0>        -0.0979
     24 C20        -1.2132  -13.0757   -2.0590 C.ar      1 <0>        -0.1103
     25 N2         -3.1472  -10.1813    0.8069 N.am      1 <0>        -0.7088
     26 C21        -3.2282   -8.8653    1.0900 C.2       1 <0>         0.7084
     27 O4         -3.2519   -8.4168    2.2193 O.2       1 <0>        -0.5346
     28 H1          1.0039    1.9031    0.0027 H         1 <0>         0.0814
     29 H2         -0.5459    1.8868   -0.8726 H         1 <0>         0.0681
     30 H3         -0.5289    1.8773    0.9072 H         1 <0>         0.0681
     31 H4          0.5123   -0.3556   -0.8948 H         1 <0>         0.0665
     32 H5          0.5293   -0.3651    0.8851 H         1 <0>         0.0665
     33 H6          0.6090   -2.2465   -0.0062 H         1 <0>         0.1362
     34 H7          0.3295   -4.6817   -0.0158 H         1 <0>         0.1370
     35 H8         -3.9372   -4.1767    0.0081 H         1 <0>         0.1399
     36 H9         -3.6403   -1.7436    0.0271 H         1 <0>         0.1411
     37 H10        -3.9126   -6.3223    0.8881 H         1 <0>         0.1350
     38 H11        -3.9218   -6.3137   -0.8918 H         1 <0>         0.1322
     39 H12        -5.1219  -11.1520   -0.4199 H         1 <0>         0.0983
     40 H13        -4.6861  -10.7431   -2.1134 H         1 <0>         0.0992
     41 H14        -3.8251  -13.1148   -0.4302 H         1 <0>         0.0898
     42 H15        -4.1070  -13.0270   -2.1951 H         1 <0>         0.0903
     43 H16        -0.3504   -9.4973   -0.9655 H         1 <0>         0.1223
     44 H17         1.4067  -10.9631   -1.8654 H         1 <0>         0.1295
     45 H18         0.8546  -13.2586   -2.5683 H         1 <0>         0.1301
     46 H19        -1.4546  -14.0822   -2.3675 H         1 <0>         0.1271
     47 H20        -3.0994  -10.9121    1.4428 H         1 <0>         0.4425
@<TRIPOS>BOND
     1    1    2 1
     2    1   28 1
     3    1   29 1
     4    1   30 1
     5    2    3 1
     6    2   31 1
     7    2   32 1
     8    3    4 1
     9    4    9 ar
    10    4    5 ar
    11    5    6 ar
    12    5   33 1
    13    6    7 ar
    14    6   34 1
    15    7    8 ar
    16    7   10 1
    17    8    9 ar
    18    8   35 1
    19    9   36 1
    20   10   11 2
    21   10   12 1
    22   12   13 1
    23   12   37 1
    24   12   38 1
    25   13   26 am
    26   13   14 am
    27   14   15 2
    28   14   16 1
    29   16   20 1
    30   16   17 1
    31   16   25 1
    32   17   18 1
    33   17   39 1
    34   17   40 1
    35   18   19 1
    36   18   41 1
    37   18   42 1
    38   19   24 ar
    39   19   20 ar
    40   20   21 ar
    41   21   22 ar
    42   21   43 1
    43   22   23 ar
    44   22   44 1
    45   23   24 ar
    46   23   45 1
    47   24   46 1
    48   25   26 am
    49   25   47 1
    50   26   27 2
@<TRIPOS>MOLECULE
ZINC52489034
   42    44     0     0     0
SMALL
USER_CHARGES

@<TRIPOS>ATOM
      1 C1         -0.0187    1.5258    0.0104 C.3       1 <0>        -0.1592
      2 C2          0.0021   -0.0041    0.0020 C.3       1 <0>         0.1841
      3 H1          0.5293   -0.3651    0.8851 H         1 <0>         0.1098
      4 C3         -1.4117   -0.5257    0.0127 C.ar      1 <0>        -0.0385
      5 C4         -2.1414   -0.5688   -1.1606 C.ar      1 <0>        -0.1373
      6 C5         -3.4383   -1.0473   -1.1508 C.ar      1 <0>        -0.0133
      7 C6         -4.0053   -1.4831    0.0322 C.ar      1 <0>        -0.6762
      8 C7         -3.2753   -1.4408    1.2054 C.ar      1 <0>        -0.0142
      9 C8         -1.9770   -0.9663    1.1948 C.ar      1 <0>        -0.1252
     10 S1         -5.6587   -2.0919    0.0450 S.o2      1 <0>         2.6919
     11 O1         -6.1416   -1.9282    1.3713 O.2       1 <0>        -0.9503
     12 O2         -6.3113   -1.5184   -1.0796 O.2       1 <0>        -0.9521
     13 N1         -5.5822   -3.7226   -0.2330 N.pl3     1 <0>        -1.0049
     14 C9         -5.4619   -4.6526    0.8926 C.3       1 <0>         0.0907
     15 C10        -5.6348   -4.2352   -1.6044 C.3       1 <0>         0.0805
     16 N2          0.6878   -0.4765   -1.2033 N.pl3     1 <0>        -0.6977
     17 C11         2.0663   -0.5899   -1.2152 C.ar      1 <0>         0.4930
     18 C12         2.7415   -1.0420   -2.3826 C.ar      1 <0>        -0.2554
     19 C13         2.2033   -1.4395   -3.6718 C.2       1 <0>        -0.1159
     20 C14         3.0443   -1.8358   -4.6385 C.2       1 <0>        -0.1675
     21 S2          4.6497   -1.7017   -3.8745 S.3       1 <0>         0.1072
     22 C15         4.1475   -1.1171   -2.2776 C.ar      1 <0>         0.1497
     23 N3          4.7725   -0.7862   -1.1647 N.ar      1 <0>        -0.5230
     24 C16         4.0907   -0.3734   -0.1141 C.ar      1 <0>         0.3671
     25 N4          2.7736   -0.2739   -0.1427 N.ar      1 <0>        -0.5878
     26 H2          1.0039    1.9031    0.0027 H         1 <0>         0.0716
     27 H3         -0.5459    1.8868   -0.8726 H         1 <0>         0.0597
     28 H4         -0.5289    1.8773    0.9072 H         1 <0>         0.0728
     29 H5         -1.6984   -0.2284   -2.0848 H         1 <0>         0.1299
     30 H6         -4.0086   -1.0803   -2.0673 H         1 <0>         0.1430
     31 H7         -3.7184   -1.7809    2.1297 H         1 <0>         0.1440
     32 H8         -1.4054   -0.9367    2.1106 H         1 <0>         0.1386
     33 H9         -6.4562   -4.9418    1.2328 H         1 <0>         0.0640
     34 H10        -4.9147   -5.5398    0.5739 H         1 <0>         0.0757
     35 H11        -4.9253   -4.1683    1.7084 H         1 <0>         0.0720
     36 H12        -4.6237   -4.3038   -2.0056 H         1 <0>         0.0560
     37 H13        -6.0940   -5.2237   -1.6054 H         1 <0>         0.0806
     38 H14        -6.2259   -3.5594   -2.2224 H         1 <0>         0.0851
     39 H15         0.1751   -0.7099   -1.9930 H         1 <0>         0.4109
     40 H16         1.1383   -1.4166   -3.8497 H         1 <0>         0.1348
     41 H17         2.8058   -2.1594   -5.6409 H         1 <0>         0.1967
     42 H18         4.6210   -0.1070    0.7883 H         1 <0>         0.2089
@<TRIPOS>BOND
     1    1    2 1
     2    1   26 1
     3    1   27 1
     4    1   28 1
     5    2    3 1
     6    2    4 1
     7    2   16 1
     8    4    9 ar
     9    4    5 ar
    10    5    6 ar
    11    5   29 1
    12    6    7 ar
    13    6   30 1
    14    7    8 ar
    15    7   10 1
    16    8    9 ar
    17    8   31 1
    18    9   32 1
    19   10   11 2
    20   10   12 2
    21   10   13 1
    22   13   14 1
    23   13   15 1
    24   14   33 1
    25   14   34 1
    26   14   35 1
    27   15   36 1
    28   15   37 1
    29   15   38 1
    30   16   17 1
    31   16   39 1
    32   17   25 ar
    33   17   18 ar
    34   18   22 ar
    35   18   19 1
    36   19   20 2
    37   19   40 1
    38   20   21 1
    39   20   41 1
    40   21   22 1
    41   22   23 ar
    42   23   24 ar
    43   24   25 ar
    44   24   42 1
@<TRIPOS>MOLECULE
ZINC63629799
   45    47     0     0     0
SMALL
USER_CHARGES

@<TRIPOS>ATOM
      1 C1         -0.0297    1.5008   -0.1041 C.3       1 <0>        -0.0691
      2 C2         -0.0030   -0.0049   -0.0493 C.2       1 <0>        -0.1730
      3 C3         -1.0352   -0.8929    0.0934 C.2       1 <0>         0.0932
      4 N1         -0.7117   -2.1781    0.1084 N.2       1 <0>        -0.4859
      5 C4          0.5308   -2.5685   -0.0076 C.2       1 <0>         0.0491
      6 S1          1.3826   -1.1255   -0.1605 S.3       1 <0>         0.1419
      7 C5          1.0705   -3.9756   -0.0107 C.3       1 <0>        -0.0248
      8 C6          1.1016   -4.4986   -1.4237 C.2       1 <0>         0.4684
      9 O1          0.7242   -3.8004   -2.3347 O.2       1 <0>        -0.4868
     10 O2          1.5485   -5.7401   -1.6701 O.3       1 <0>        -0.3419
     11 C7          1.5500   -6.1704   -3.0328 C.3       1 <0>         0.1171
     12 C8          2.4405   -5.2412   -3.8601 C.3       1 <0>        -0.1861
     13 C9          2.0888   -7.6000   -3.1155 C.3       1 <0>        -0.1412
     14 C10         0.1225   -6.1309   -3.5817 C.3       1 <0>        -0.1862
     15 C11        -2.4420   -0.4403    0.2249 C.ar      1 <0>        -0.0040
     16 C12        -2.9237    0.5851   -0.5871 C.ar      1 <0>        -0.0919
     17 C13        -4.2329    1.0075   -0.4669 C.ar      1 <0>        -0.1032
     18 C14        -5.0707    0.4130    0.4619 C.ar      1 <0>         0.0831
     19 C15        -4.5937   -0.6130    1.2778 C.ar      1 <0>         0.0933
     20 C16        -3.2850   -1.0439    1.1566 C.ar      1 <0>        -0.0901
     21 N2         -5.4563   -1.2021    2.2136 N.am      1 <0>        -0.6597
     22 C17        -6.7866   -0.9987    2.0966 C.2       1 <0>         0.4910
     23 O3         -7.5492   -1.4734    2.9117 O.2       1 <0>        -0.5078
     24 C18        -7.3194   -0.1788    0.9493 C.3       1 <0>         0.0501
     25 O4         -6.3626    0.8204    0.5877 O.3       1 <0>        -0.3000
     26 H1          0.9912    1.8813   -0.1385 H         1 <0>         0.0783
     27 H2         -0.5676    1.8225   -0.9958 H         1 <0>         0.0867
     28 H3         -0.5319    1.8878    0.7826 H         1 <0>         0.0882
     29 H4          2.0802   -3.9783    0.4000 H         1 <0>         0.1330
     30 H5          0.4287   -4.6122    0.5983 H         1 <0>         0.1384
     31 H6          3.4575   -5.2693   -3.4690 H         1 <0>         0.0625
     32 H7          2.4417   -5.5694   -4.8995 H         1 <0>         0.0726
     33 H8          2.0567   -4.2227   -3.8012 H         1 <0>         0.0827
     34 H9          1.4544   -8.2621   -2.5261 H         1 <0>         0.0677
     35 H10         2.0900   -7.9283   -4.1549 H         1 <0>         0.0799
     36 H11         3.1059   -7.6282   -2.7244 H         1 <0>         0.0679
     37 H12        -0.2614   -5.1124   -3.5228 H         1 <0>         0.0829
     38 H13         0.1236   -6.4592   -4.6211 H         1 <0>         0.0723
     39 H14        -0.5119   -6.7929   -2.9923 H         1 <0>         0.0620
     40 H15        -2.2718    1.0499   -1.3120 H         1 <0>         0.1386
     41 H16        -4.6035    1.8021   -1.0974 H         1 <0>         0.1460
     42 H17        -2.9164   -1.8418    1.7843 H         1 <0>         0.1367
     43 H18        -5.1031   -1.7476    2.9337 H         1 <0>         0.4173
     44 H19        -7.5058   -0.8289    0.0945 H         1 <0>         0.1023
     45 H20        -8.2507    0.3021    1.2486 H         1 <0>         0.1485
@<TRIPOS>BOND
     1    1    2 1
     2    1   26 1
     3    1   27 1
     4    1   28 1
     5    2    6 1
     6    2    3 2
     7    3    4 1
     8    3   15 1
     9    4    5 2
    10    5    6 1
    11    5    7 1
    12    7    8 1
    13    7   29 1
    14    7   30 1
    15    8    9 2
    16    8   10 1
    17   10   11 1
    18   11   12 1
    19   11   13 1
    20   11   14 1
    21   12   31 1
    22   12   32 1
    23   12   33 1
    24   13   34 1
    25   13   35 1
    26   13   36 1
    27   14   37 1
    28   14   38 1
    29   14   39 1
    30   15   20 ar
    31   15   16 ar
    32   16   17 ar
    33   16   40 1
    34   17   18 ar
    35   17   41 1
    36   18   25 1
    37   18   19 ar
    38   19   20 ar
    39   19   21 1
    40   20   42 1
    41   21   22 am
    42   21   43 1
    43   22   23 2
    44   22   24 1
    45   24   25 1
    46   24   44 1
    47   24   45 1
@<TRIPOS>MOLECULE
ZINC01473270
   54    55     0     0     0
SMALL
USER_CHARGES
1-[2-hydroxy-3-(4-nitrophenoxy)-propyl]-2,2,6,6-tetramethyl-piperidin-4-ol
@<TRIPOS>ATOM
      1 C1         -3.1077    3.2446    2.2983 C.3       1 <0>        -0.1675
      2 C2         -2.3826    3.7880    3.5353 C.3       1 <0>         0.0649
      3 C3         -3.1336    5.0029    4.0744 C.3       1 <0>        -0.1653
      4 C4         -2.8844    6.2201    3.1843 C.3       1 <0>         0.1008
      5 C5         -1.3848    6.5150    3.1725 C.3       1 <0>        -0.1261
      6 C6         -0.6115    5.3181    2.6247 C.3       1 <0>         0.0647
      7 C7         -0.3101    2.9161    2.6378 C.3       1 <0>        -0.0556
      8 C8          1.0572    2.7260    3.2974 C.3       1 <0>         0.0612
      9 H1          1.6717    3.6088    3.1209 H         1 <0>         0.1514
     10 C9          1.7457    1.4976    2.6991 C.3       1 <0>         0.0229
     11 O1          3.0679    1.3869    3.2297 O.3       1 <0>        -0.2892
     12 C10         3.8206    0.3411    2.7976 C.ar      1 <0>         0.1733
     13 C11         3.2953   -0.5633    1.8861 C.ar      1 <0>        -0.2106
     14 C12         4.0641   -1.6228    1.4448 C.ar      1 <0>        -0.0107
     15 C13         5.3524   -1.7883    1.9187 C.ar      1 <0>        -0.0750
     16 C14         5.8764   -0.8913    2.8312 C.ar      1 <0>        -0.0109
     17 C15         5.1135    0.1729    3.2716 C.ar      1 <0>        -0.1428
     18 N1          6.1721   -2.9272    1.4481 N.pl3     1 <0>         0.0272
     19 O2          7.3073   -3.0737    1.8646 O.2       1 <0>        -0.1512
     20 O3          5.7115   -3.7180    0.6444 O.3       1 <0>        -0.1561
     21 O4          0.8858    2.5383    4.7036 O.3       1 <0>        -0.5398
     22 C16         0.8872    5.5627    2.9098 C.3       1 <0>        -0.1952
     23 C17        -0.7787    5.2536    1.1018 C.3       1 <0>        -0.1687
     24 O5         -3.5827    7.3490    3.7229 O.3       1 <0>        -0.5531
     25 C18        -2.4392    2.6878    4.6184 C.3       1 <0>        -0.1896
     26 H2         -2.5659    2.3826    1.9091 H         1 <0>         0.0799
     27 H3         -4.1190    2.9446    2.5726 H         1 <0>         0.1075
     28 H4         -3.1535    4.0204    1.5340 H         1 <0>         0.0827
     29 H5         -2.7928    5.2201    5.0893 H         1 <0>         0.0979
     30 H6         -4.2039    4.7863    4.1010 H         1 <0>         0.1140
     31 H7         -3.2425    6.0326    2.1754 H         1 <0>         0.0744
     32 H8         -1.0495    6.7298    4.1897 H         1 <0>         0.0971
     33 H9         -1.1924    7.3894    2.5466 H         1 <0>         0.1195
     34 H10        -0.1771    3.0950    1.5709 H         1 <0>         0.1565
     35 H11        -0.9117    2.0189    2.7836 H         1 <0>         0.1417
     36 H12         1.7966    1.6015    1.6153 H         1 <0>         0.0887
     37 H13         1.1767    0.6029    2.9520 H         1 <0>         0.0828
     38 H14         2.2876   -0.4368    1.5188 H         1 <0>         0.1480
     39 H15         3.6572   -2.3246    0.7318 H         1 <0>         0.1602
     40 H16         6.8829   -1.0229    3.2001 H         1 <0>         0.1662
     41 H17         5.5234    0.8734    3.9841 H         1 <0>         0.1588
     42 H18         0.3260    1.7844    4.9344 H         1 <0>         0.3891
     43 H19         1.4887    4.9098    2.2774 H         1 <0>         0.0875
     44 H20         1.1327    6.6029    2.6957 H         1 <0>         0.1094
     45 H21         1.0974    5.3480    3.9576 H         1 <0>         0.0853
     46 H22        -1.8210    5.0470    0.8591 H         1 <0>         0.0831
     47 H23        -0.4857    6.2075    0.6634 H         1 <0>         0.1110
     48 H24        -0.1481    4.4603    0.7003 H         1 <0>         0.0813
     49 H25        -4.5422    7.2357    3.7622 H         1 <0>         0.3932
     50 H26        -1.8423    2.9930    5.4779 H         1 <0>         0.0838
     51 H27        -3.4730    2.5367    4.9292 H         1 <0>         0.1081
     52 H28        -2.0421    1.7574    4.2124 H         1 <0>         0.0791
     53 N2         -0.9182    4.0456    3.3389 N.4       1 <0>        -0.3775
     54 H29        -0.4913    4.1099    4.2705 H         1 <0>         0.4319
@<TRIPOS>BOND
     1    1    2 1
     2    1   26 1
     3    1   27 1
     4    1   28 1
     5    2    3 1
     6    2   25 1
     7    2   53 1
     8    3    4 1
     9    3   29 1
    10    3   30 1
    11    4    5 1
    12    4   24 1
    13    4   31 1
    14    5    6 1
    15    5   32 1
    16    5   33 1
    17    6   22 1
    18    6   23 1
    19    6   53 1
    20    7    8 1
    21    7   34 1
    22    7   35 1
    23    7   53 1
    24    8    9 1
    25    8   10 1
    26    8   21 1
    27   10   11 1
    28   10   36 1
    29   10   37 1
    30   11   12 1
    31   12   17 ar
    32   12   13 ar
    33   13   14 ar
    34   13   38 1
    35   14   15 ar
    36   14   39 1
    37   15   16 ar
    38   15   18 1
    39   16   17 ar
    40   16   40 1
    41   17   41 1
    42   18   19 2
    43   18   20 1
    44   21   42 1
    45   22   43 1
    46   22   44 1
    47   22   45 1
    48   23   46 1
    49   23   47 1
    50   23   48 1
    51   24   49 1
    52   25   50 1
    53   25   51 1
    54   25   52 1
    55   53   54 1
@<TRIPOS>MOLECULE
ZINC41663059
   54    56     0     0     0
SMALL
USER_CHARGES

@<TRIPOS>ATOM
      1 C1         -0.0151    1.5362    0.0075 C.3       1 <0>        -0.1871
      2 C2         -0.0024    0.0062    0.0079 C.3       1 <0>         0.0279
      3 H1          0.5056   -0.3527   -0.8872 H         1 <0>         0.1378
      4 C3         -1.4409   -0.5151    0.0210 C.3       1 <0>        -0.1406
      5 C4         -1.4231   -2.0464    0.0211 C.3       1 <0>        -0.1397
      6 C5         -0.6167   -2.5377    1.2268 C.3       1 <0>        -0.1455
      7 C6          0.7913   -1.9414    1.1690 C.3       1 <0>        -0.0149
      8 N1          0.7070   -0.4762    1.1989 N.4       1 <0>        -0.3761
      9 C7          2.0624    0.0898    1.2226 C.3       1 <0>        -0.0306
     10 C8          2.7597   -0.3109    2.5242 C.3       1 <0>         0.0955
     11 N2          4.1114    0.2536    2.5478 N.am      1 <0>        -0.7046
     12 C9          4.9166    0.0301    3.6052 C.2       1 <0>         0.5224
     13 O1          4.5220   -0.6388    4.5378 O.2       1 <0>        -0.4976
     14 C10         6.2944    0.6054    3.6293 C.2       1 <0>         0.5074
     15 O2          6.6892    1.2745    2.6965 O.2       1 <0>        -0.4922
     16 N3          7.0997    0.3819    4.6867 N.am      1 <0>        -0.6310
     17 C11         8.4215    0.8383    4.6678 C.ar      1 <0>         0.1346
     18 C12         9.4237    0.0895    5.2718 C.ar      1 <0>        -0.1211
     19 C13        10.7297    0.5394    5.2542 C.ar      1 <0>        -0.0826
     20 C14        11.0440    1.7385    4.6345 C.ar      1 <0>         0.0324
     21 C15        10.0414    2.4915    4.0276 C.ar      1 <0>         0.0532
     22 C16         8.7334    2.0373    4.0404 C.ar      1 <0>        -0.1023
     23 O3         10.6024    3.6162    3.4947 O.3       1 <0>        -0.2954
     24 C17        11.8860    3.7457    4.1341 C.3       1 <0>         0.2560
     25 O4         12.2334    2.3922    4.4813 O.3       1 <0>        -0.2948
     26 C18        11.7757    4.6116    5.3907 C.3       1 <0>        -0.1853
     27 C19        12.9132    4.3323    3.1638 C.3       1 <0>        -0.1482
     28 H2          1.0095    1.9080   -0.0029 H         1 <0>         0.0828
     29 H3         -0.5408    1.8949   -0.8774 H         1 <0>         0.1081
     30 H4         -0.5229    1.8956    0.9025 H         1 <0>         0.0826
     31 H5         -1.9497   -0.1570    0.9160 H         1 <0>         0.0891
     32 H6         -1.9659   -0.1573   -0.8647 H         1 <0>         0.1133
     33 H7         -2.4439   -2.4228    0.0875 H         1 <0>         0.0961
     34 H8         -0.9600   -2.4056   -0.8979 H         1 <0>         0.0824
     35 H9         -1.1084   -2.2215    2.1468 H         1 <0>         0.0890
     36 H10        -0.5526   -3.6255    1.2029 H         1 <0>         0.1142
     37 H11         1.3682   -2.2893    2.0259 H         1 <0>         0.1330
     38 H12         1.2821   -2.2583    0.2488 H         1 <0>         0.1315
     39 H13         2.6302   -0.2915    0.3739 H         1 <0>         0.1404
     40 H14         2.0034    1.1765    1.1616 H         1 <0>         0.1448
     41 H15         2.1918    0.0704    3.3729 H         1 <0>         0.0965
     42 H16         2.8186   -1.3976    2.5852 H         1 <0>         0.0963
     43 H17         4.4268    0.7882    1.8024 H         1 <0>         0.4220
     44 H18         6.7624   -0.0955    5.4608 H         1 <0>         0.4276
     45 H19         9.1816   -0.8451    5.7558 H         1 <0>         0.1457
     46 H20        11.5072   -0.0442    5.7247 H         1 <0>         0.1458
     47 H21         7.9553    2.6176    3.5669 H         1 <0>         0.1501
     48 H22        11.0682    4.1570    6.0842 H         1 <0>         0.0687
     49 H23        12.7533    4.6874    5.8666 H         1 <0>         0.0898
     50 H24        11.4269    5.6072    5.1164 H         1 <0>         0.0884
     51 H25        12.5874    5.3223    2.8445 H         1 <0>         0.0911
     52 H26        13.8797    4.4109    3.6615 H         1 <0>         0.0920
     53 H27        13.0043    3.6817    2.2940 H         1 <0>         0.0781
     54 H28         0.2088   -0.1854    2.0267 H         1 <0>         0.4232
@<TRIPOS>BOND
     1    1    2 1
     2    1   28 1
     3    1   29 1
     4    1   30 1
     5    2    3 1
     6    2    8 1
     7    2    4 1
     8    4    5 1
     9    4   31 1
    10    4   32 1
    11    5    6 1
    12    5   33 1
    13    5   34 1
    14    6    7 1
    15    6   35 1
    16    6   36 1
    17    7    8 1
    18    7   37 1
    19    7   38 1
    20    8    9 1
    21    8   54 1
    22    9   10 1
    23    9   39 1
    24    9   40 1
    25   10   11 1
    26   10   41 1
    27   10   42 1
    28   11   12 am
    29   11   43 1
    30   12   13 2
    31   12   14 1
    32   14   15 2
    33   14   16 am
    34   16   17 1
    35   16   44 1
    36   17   22 ar
    37   17   18 ar
    38   18   19 ar
    39   18   45 1
    40   19   20 ar
    41   19   46 1
    42   20   25 1
    43   20   21 ar
    44   21   22 ar
    45   21   23 1
    46   22   47 1
    47   23   24 1
    48   24   25 1
    49   24   26 1
    50   24   27 1
    51   26   48 1
    52   26   49 1
    53   26   50 1
    54   27   51 1
    55   27   52 1
    56   27   53 1
@<TRIPOS>MOLECULE
ZINC16628344
   51    53     0     0     0
SMALL
USER_CHARGES

@<TRIPOS>ATOM
      1 C1         -0.0178    1.4648    0.0101 C.3       1 <0>        -0.0673
      2 N1          0.0021   -0.0041    0.0020 N.4       1 <0>        -0.3732
      3 C2         -1.3761   -0.5125    0.0124 C.3       1 <0>         0.0056
      4 C3         -2.0530   -0.1242    1.3284 C.3       1 <0>         0.0196
      5 H1         -2.0677    0.9612    1.4278 H         1 <0>         0.1110
      6 C4         -3.4889   -0.6653    1.3511 C.3       1 <0>         0.0344
      7 O1         -4.0870   -0.2971    2.5988 O.3       1 <0>        -0.2930
      8 C5         -3.3422   -0.5049    3.7189 C.ar      1 <0>         0.0504
      9 C6         -3.9656   -0.5193    4.9578 C.ar      1 <0>        -0.1080
     10 C7         -3.2223   -0.7258    6.1044 C.ar      1 <0>        -0.0988
     11 C8         -1.8559   -0.9188    6.0199 C.ar      1 <0>        -0.1084
     12 C9         -1.2288   -0.9070    4.7884 C.ar      1 <0>        -0.1048
     13 C10        -1.9691   -0.7014    3.6336 C.ar      1 <0>         0.0381
     14 O2         -1.3384   -0.7000    2.4273 O.3       1 <0>        -0.3176
     15 C11         0.6897   -0.4778   -1.2066 C.3       1 <0>        -0.0304
     16 C12         2.1367   -0.0597   -1.1578 C.2       1 <0>         0.5126
     17 O3          2.5539    0.5705   -0.2100 O.2       1 <0>        -0.4511
     18 N2          2.9670   -0.3865   -2.1679 N.am      1 <0>        -0.6761
     19 C13         4.2611   -0.0126   -2.1243 C.2       1 <0>         0.6918
     20 O4          4.6794    0.6192   -1.1741 O.2       1 <0>        -0.5164
     21 N3          5.0914   -0.3394   -3.1344 N.am      1 <0>        -0.7221
     22 C14         6.4981    0.0670   -3.0870 C.3       1 <0>         0.1772
     23 C15         7.2034   -0.4190   -4.3268 C.ar      1 <0>        -0.1224
     24 C16         7.7986   -1.6666   -4.3393 C.ar      1 <0>        -0.0982
     25 C17         8.4457   -2.1124   -5.4766 C.ar      1 <0>        -0.1202
     26 C18         8.4971   -1.3108   -6.6016 C.ar      1 <0>        -0.1033
     27 C19         7.9011   -0.0636   -6.5895 C.ar      1 <0>        -0.1203
     28 C20         7.2504    0.3805   -5.4536 C.ar      1 <0>        -0.0982
     29 H2          1.0047    1.8421    0.0024 H         1 <0>         0.1437
     30 H3         -0.5450    1.8259   -0.8730 H         1 <0>         0.1262
     31 H4         -0.5280    1.8163    0.9069 H         1 <0>         0.1276
     32 H5         -1.9290   -0.0808   -0.8218 H         1 <0>         0.1578
     33 H6         -1.3635   -1.5983   -0.0831 H         1 <0>         0.1476
     34 H7         -4.0581   -0.2321    0.5286 H         1 <0>         0.1322
     35 H8         -3.4741   -1.7511    1.2569 H         1 <0>         0.0892
     36 H9         -5.0328   -0.3687    5.0266 H         1 <0>         0.1422
     37 H10        -3.7096   -0.7369    7.0681 H         1 <0>         0.1414
     38 H11        -1.2774   -1.0786    6.9178 H         1 <0>         0.1407
     39 H12        -0.1613   -1.0579    4.7252 H         1 <0>         0.1378
     40 H13         0.6270   -1.5648   -1.2578 H         1 <0>         0.1689
     41 H14         0.2158   -0.0447   -2.0875 H         1 <0>         0.1693
     42 H15         2.6331   -0.8908   -2.9263 H         1 <0>         0.4191
     43 H16         4.7575   -0.8437   -3.8928 H         1 <0>         0.4038
     44 H17         6.5607    1.1540   -3.0358 H         1 <0>         0.0839
     45 H18         6.9719   -0.3661   -2.2060 H         1 <0>         0.0840
     46 H19         7.7585   -2.2928   -3.4603 H         1 <0>         0.1246
     47 H20         8.9113   -3.0868   -5.4861 H         1 <0>         0.1278
     48 H21         9.0032   -1.6588   -7.4900 H         1 <0>         0.1276
     49 H22         7.9416    0.5628   -7.4684 H         1 <0>         0.1277
     50 H23         6.7815    1.3534   -5.4453 H         1 <0>         0.1245
     51 H24         0.4901   -0.3383    0.8195 H         1 <0>         0.4414
@<TRIPOS>BOND
     1    1    2 1
     2    1   29 1
     3    1   30 1
     4    1   31 1
     5    2    3 1
     6    2   15 1
     7    2   51 1
     8    3    4 1
     9    3   32 1
    10    3   33 1
    11    4    5 1
    12    4   14 1
    13    4    6 1
    14    6    7 1
    15    6   34 1
    16    6   35 1
    17    7    8 1
    18    8   13 ar
    19    8    9 ar
    20    9   10 ar
    21    9   36 1
    22   10   11 ar
    23   10   37 1
    24   11   12 ar
    25   11   38 1
    26   12   13 ar
    27   12   39 1
    28   13   14 1
    29   15   16 1
    30   15   40 1
    31   15   41 1
    32   16   17 2
    33   16   18 am
    34   18   19 am
    35   18   42 1
    36   19   20 2
    37   19   21 am
    38   21   22 1
    39   21   43 1
    40   22   23 1
    41   22   44 1
    42   22   45 1
    43   23   28 ar
    44   23   24 ar
    45   24   25 ar
    46   24   46 1
    47   25   26 ar
    48   25   47 1
    49   26   27 ar
    50   26   48 1
    51   27   28 ar
    52   27   49 1
    53   28   50 1
@<TRIPOS>MOLECULE
ZINC63907279
   51    53     0     0     0
SMALL
USER_CHARGES

@<TRIPOS>ATOM
      1 C1         -0.0187    1.5258    0.0104 C.3       1 <0>        -0.1672
      2 C2          0.0021   -0.0041    0.0020 C.3       1 <0>         0.1464
      3 H1          0.5293   -0.3651    0.8851 H         1 <0>         0.0895
      4 C3          0.7182   -0.4975   -1.2568 C.3       1 <0>        -0.1038
      5 C4          2.1536    0.0321   -1.2676 C.3       1 <0>        -0.1496
      6 C5          0.7390   -2.0273   -1.2652 C.3       1 <0>        -0.1488
      7 N1         -1.3723   -0.5112    0.0124 N.am      1 <0>        -0.7159
      8 C6         -2.0286   -0.6552    1.1807 C.2       1 <0>         0.5023
      9 O1         -1.4814   -0.3650    2.2235 O.2       1 <0>        -0.5309
     10 C7         -3.4424   -1.1768    1.1914 C.3       1 <0>         0.0968
     11 N2         -3.9291   -1.2403    2.5718 N.am      1 <0>        -0.5569
     12 C8         -3.7906   -2.3138    3.3747 C.2       1 <0>         0.5346
     13 O2         -3.2600   -3.3690    3.1015 O.2       1 <0>        -0.4430
     14 C9         -4.4355   -1.9270    4.6909 C.3       1 <0>         0.1013
     15 H2         -3.7029   -1.9480    5.4977 H         1 <0>         0.1390
     16 N3         -4.9067   -0.5514    4.4545 N.am      1 <0>        -0.7302
     17 C10        -4.5609   -0.2377    3.1928 C.2       1 <0>         0.7101
     18 O3         -4.7987    0.8353    2.6740 O.2       1 <0>        -0.5169
     19 C11        -5.6100   -2.8548    5.0080 C.3       1 <0>        -0.0923
     20 C12        -6.1539   -2.5275    6.3748 C.2       1 <0>         0.0592
     21 C13        -7.1950   -1.7133    6.6621 C.ar      1 <0>        -0.1637
     22 C14        -8.0973   -0.9183    5.8205 C.ar      1 <0>        -0.0202
     23 C15        -9.0681   -0.1844    6.4105 C.ar      1 <0>        -0.1438
     24 C16        -9.2334   -0.1636    7.8022 C.ar      1 <0>         0.0554
     25 C17        -8.4439   -0.8675    8.6409 C.ar      1 <0>        -0.2083
     26 C18        -7.3908   -1.6746    8.1290 C.ar      1 <0>         0.3289
     27 N4         -6.5052   -2.4354    8.7253 N.pl3     1 <0>        -0.5817
     28 C19        -5.6502   -3.0481    7.7024 C.3       1 <0>         0.0607
     29 H3          1.0039    1.9031    0.0027 H         1 <0>         0.0729
     30 H4         -0.5459    1.8868   -0.8726 H         1 <0>         0.0595
     31 H5         -0.5289    1.8773    0.9072 H         1 <0>         0.0591
     32 H6          0.1910   -0.1364   -2.1398 H         1 <0>         0.0778
     33 H7          2.6808   -0.3290   -0.3846 H         1 <0>         0.0582
     34 H8          2.6638   -0.3194   -2.1644 H         1 <0>         0.0628
     35 H9          2.1388    1.1220   -1.2617 H         1 <0>         0.0626
     36 H10        -0.2836   -2.4046   -1.2575 H         1 <0>         0.0535
     37 H11         1.2492   -2.3788   -2.1620 H         1 <0>         0.0609
     38 H12         1.2661   -2.3884   -0.3821 H         1 <0>         0.0561
     39 H13        -1.8100   -0.7432   -0.8215 H         1 <0>         0.4034
     40 H14        -4.0803   -0.5097    0.6116 H         1 <0>         0.1335
     41 H15        -3.4651   -2.1740    0.7520 H         1 <0>         0.1314
     42 H16        -5.3728    0.0182    5.0863 H         1 <0>         0.4393
     43 H17        -6.3933   -2.7171    4.2627 H         1 <0>         0.1227
     44 H18        -5.2700   -3.8903    4.9907 H         1 <0>         0.1405
     45 H19        -7.9874   -0.9191    4.7461 H         1 <0>         0.1602
     46 H20        -9.7331    0.4013    5.7932 H         1 <0>         0.1593
     47 H21       -10.0246    0.4406    8.2208 H         1 <0>         0.1622
     48 H22        -8.6126   -0.8171    9.7065 H         1 <0>         0.1617
     49 H23        -5.7377   -4.1340    7.7378 H         1 <0>         0.1788
     50 H24        -4.6131   -2.7490    7.8543 H         1 <0>         0.1756
     51 H25        -6.4302   -2.5733    9.6825 H         1 <0>         0.4572
@<TRIPOS>BOND
     1    1    2 1
     2    1   29 1
     3    1   30 1
     4    1   31 1
     5    2    3 1
     6    2    4 1
     7    2    7 1
     8    4    5 1
     9    4    6 1
    10    4   32 1
    11    5   33 1
    12    5   34 1
    13    5   35 1
    14    6   36 1
    15    6   37 1
    16    6   38 1
    17    7    8 am
    18    7   39 1
    19    8    9 2
    20    8   10 1
    21   10   11 1
    22   10   40 1
    23   10   41 1
    24   11   17 am
    25   11   12 am
    26   12   13 2
    27   12   14 1
    28   14   15 1
    29   14   16 1
    30   14   19 1
    31   16   17 am
    32   16   42 1
    33   17   18 2
    34   19   20 1
    35   19   43 1
    36   19   44 1
    37   20   28 1
    38   20   21 2
    39   21   26 ar
    40   21   22 ar
    41   22   23 ar
    42   22   45 1
    43   23   24 ar
    44   23   46 1
    45   24   25 ar
    46   24   47 1
    47   25   26 ar
    48   25   48 1
    49   26   27 2
    50   27   28 1
    51   27   51 1
    52   28   49 1
    53   28   50 1
@<TRIPOS>MOLECULE
ZINC66858972
   60    63     0     0     0
SMALL
USER_CHARGES

@<TRIPOS>ATOM
      1 C1         -0.0188    1.5384    0.0105 C.3       1 <0>        -0.1298
      2 C2          1.4774    1.9387   -0.0016 C.3       1 <0>        -0.1267
      3 C3          2.1065    0.8811   -0.9423 C.3       1 <0>        -0.1225
      4 C4          1.3534   -0.4220   -0.6038 C.3       1 <0>        -0.0778
      5 C5          0.0021   -0.0041    0.0020 C.3       1 <0>        -0.1098
      6 C6          1.1265   -1.2417   -1.8756 C.3       1 <0>        -0.1358
      7 C7          0.5011   -2.5647   -1.5156 C.2       1 <0>         0.5182
      8 O1          0.2606   -2.8263   -0.3560 O.2       1 <0>        -0.5223
      9 N1          0.2092   -3.4573   -2.4823 N.am      1 <0>        -0.7348
     10 C8         -0.3988   -4.7435   -2.1324 C.3       1 <0>         0.1358
     11 C9          0.6987   -5.7436   -1.7575 C.3       1 <0>        -0.1588
     12 C10         0.0634   -7.1058   -1.4704 C.3       1 <0>         0.0003
     13 N2         -0.6460   -7.5803   -2.6646 N.4       1 <0>        -0.4031
     14 C11        -1.7457   -6.6635   -2.9879 C.3       1 <0>        -0.0058
     15 C12        -1.1800   -5.2843   -3.3334 C.3       1 <0>        -0.1520
     16 C13        -1.1877   -8.9218   -2.4097 C.3       1 <0>         0.2329
     17 N3         -1.7921   -9.4457   -3.6371 N.am      1 <0>        -0.6012
     18 C14        -3.0839   -9.2618   -3.9857 C.2       1 <0>         0.5326
     19 O2         -3.9333   -8.6559   -3.3684 O.2       1 <0>        -0.4301
     20 C15        -3.2440   -9.9705   -5.3065 C.3       1 <0>         0.1173
     21 C16        -3.6813   -8.9942   -6.4066 C.3       1 <0>        -0.1226
     22 C17        -4.6202   -9.8394   -7.3062 C.3       1 <0>        -0.1242
     23 C18        -5.3727  -10.7260   -6.2820 C.3       1 <0>        -0.1257
     24 C19        -4.3037  -11.0715   -5.2215 C.3       1 <0>        -0.1208
     25 N4         -1.9184  -10.5251   -5.5880 N.am      1 <0>        -0.6976
     26 C20        -1.1310  -10.1616   -4.5558 C.2       1 <0>         0.6974
     27 O3          0.0455  -10.4537   -4.4673 O.2       1 <0>        -0.5225
     28 H1         -0.5054    1.9084    0.9130 H         1 <0>         0.0661
     29 H2         -0.5225    1.9180   -0.8785 H         1 <0>         0.0639
     30 H3          1.6056    2.9420   -0.4079 H         1 <0>         0.0686
     31 H4          1.9042    1.8684    0.9989 H         1 <0>         0.0687
     32 H5          1.9461    1.1545   -1.9852 H         1 <0>         0.0677
     33 H6          3.1710    0.7713   -0.7351 H         1 <0>         0.0679
     34 H7          1.9228   -1.0050    0.1201 H         1 <0>         0.0800
     35 H8         -0.0844   -0.3843    1.0199 H         1 <0>         0.0670
     36 H9         -0.8154   -0.3852   -0.6101 H         1 <0>         0.0559
     37 H10         0.4622   -0.6962   -2.5458 H         1 <0>         0.0982
     38 H11         2.0816   -1.4143   -2.3718 H         1 <0>         0.0970
     39 H12         0.4016   -3.2482   -3.4097 H         1 <0>         0.4065
     40 H13        -1.0751   -4.6093   -1.2881 H         1 <0>         0.1072
     41 H14         1.4033   -5.8375   -2.5839 H         1 <0>         0.0922
     42 H15         1.2234   -5.3921   -0.8691 H         1 <0>         0.1223
     43 H16         0.8421   -7.8201   -1.2030 H         1 <0>         0.1417
     44 H17        -0.6407   -7.0108   -0.6438 H         1 <0>         0.1385
     45 H18        -2.3027   -7.0513   -3.8408 H         1 <0>         0.1209
     46 H19        -2.4112   -6.5779   -2.1289 H         1 <0>         0.1418
     47 H20        -1.9982   -4.6045   -3.5714 H         1 <0>         0.1216
     48 H21        -0.5145   -5.3686   -4.1925 H         1 <0>         0.0939
     49 H22        -0.3831   -9.5838   -2.0897 H         1 <0>         0.1684
     50 H23        -1.9446   -8.8653   -1.6274 H         1 <0>         0.1645
     51 H24        -4.2214   -8.1507   -5.9765 H         1 <0>         0.0930
     52 H25        -2.8183   -8.6470   -6.9747 H         1 <0>         0.0888
     53 H26        -5.3166   -9.1984   -7.8469 H         1 <0>         0.0861
     54 H27        -4.0428  -10.4533   -7.9974 H         1 <0>         0.0780
     55 H28        -6.1945  -10.1716   -5.8287 H         1 <0>         0.0797
     56 H29        -5.7417  -11.6329   -6.7611 H         1 <0>         0.0844
     57 H30        -3.8559  -12.0402   -5.4430 H         1 <0>         0.0945
     58 H31        -4.7520  -11.0839   -4.2281 H         1 <0>         0.0861
     59 H32        -1.6582  -11.0468   -6.3633 H         1 <0>         0.4529
     60 H33        -0.0040   -7.6212   -3.4419 H         1 <0>         0.4256
@<TRIPOS>BOND
     1    1    5 1
     2    1    2 1
     3    1   28 1
     4    1   29 1
     5    2    3 1
     6    2   30 1
     7    2   31 1
     8    3    4 1
     9    3   32 1
    10    3   33 1
    11    4    5 1
    12    4    6 1
    13    4   34 1
    14    5   35 1
    15    5   36 1
    16    6    7 1
    17    6   37 1
    18    6   38 1
    19    7    8 2
    20    7    9 am
    21    9   10 1
    22    9   39 1
    23   10   15 1
    24   10   11 1
    25   10   40 1
    26   11   12 1
    27   11   41 1
    28   11   42 1
    29   12   13 1
    30   12   43 1
    31   12   44 1
    32   13   14 1
    33   13   16 1
    34   13   60 1
    35   14   15 1
    36   14   45 1
    37   14   46 1
    38   15   47 1
    39   15   48 1
    40   16   17 1
    41   16   49 1
    42   16   50 1
    43   17   26 am
    44   17   18 am
    45   18   19 2
    46   18   20 1
    47   20   24 1
    48   20   21 1
    49   20   25 1
    50   21   22 1
    51   21   51 1
    52   21   52 1
    53   22   23 1
    54   22   53 1
    55   22   54 1
    56   23   24 1
    57   23   55 1
    58   23   56 1
    59   24   57 1
    60   24   58 1
    61   25   26 am
    62   25   59 1
    63   26   27 2
@<TRIPOS>MOLECULE
ZINC00923389
   68    72     0     0     0
SMALL
USER_CHARGES
N-[(4-methoxyphenyl)methyl]-2,4,6-trimethyl-N-[(oxoBLAHyl)methyl]benzenesulfonamide
@<TRIPOS>ATOM
      1 C1         -8.6527    1.8548   -1.7870 C.3       1 <0>        -0.1242
      2 C2         -7.2233    1.8297   -1.3102 C.ar      1 <0>        -0.0192
      3 C3         -6.6393    0.6330   -0.9392 C.ar      1 <0>        -0.1519
      4 C4         -5.3282    0.6100   -0.5018 C.ar      1 <0>         0.0370
      5 C5         -4.6027    1.7845   -0.4304 C.ar      1 <0>        -0.6889
      6 C6         -5.1849    2.9804   -0.8069 C.ar      1 <0>         0.0278
      7 C7         -6.4960    3.0034   -1.2443 C.ar      1 <0>        -0.1547
      8 C8         -4.3919    4.2599   -0.7355 C.3       1 <0>        -0.1726
      9 S1         -2.9338    1.7562    0.1339 S.o2      1 <0>         2.6828
     10 O1         -2.3461    0.5755   -0.3951 O.2       1 <0>        -0.9321
     11 O2         -2.3996    3.0496   -0.1131 O.2       1 <0>        -0.9524
     12 N1         -2.9762    1.5678    1.7786 N.pl3     1 <0>        -0.9833
     13 C9         -3.3374    2.6991    2.6364 C.3       1 <0>         0.1582
     14 C10        -4.7437    2.5145    3.1457 C.ar      1 <0>        -0.1447
     15 C11        -5.8101    3.0234    2.4277 C.ar      1 <0>        -0.0643
     16 C12        -7.1005    2.8505    2.8895 C.ar      1 <0>        -0.2018
     17 C13        -7.3252    2.1756    4.0806 C.ar      1 <0>         0.1327
     18 C14        -6.2531    1.6709    4.8020 C.ar      1 <0>        -0.1514
     19 C15        -4.9649    1.8415    4.3331 C.ar      1 <0>        -0.0651
     20 O3         -8.5934    2.0087    4.5396 O.3       1 <0>        -0.3170
     21 C16        -9.6481    2.5547    3.7449 C.3       1 <0>         0.0272
     22 C17        -2.6526    0.2698    2.3758 C.3       1 <0>         0.1682
     23 C18        -1.4001    0.3963    3.2042 C.2       1 <0>        -0.1978
     24 C19        -1.4916    0.5355    4.5514 C.2       1 <0>         0.0023
     25 C20        -0.2580    0.6504    5.3280 C.ar      1 <0>        -0.1303
     26 C21        -0.2911    0.7920    6.7206 C.ar      1 <0>        -0.0491
     27 C22         0.8885    0.9030    7.4261 C.ar      1 <0>         0.0226
     28 C23         2.1149    0.8745    6.7557 C.ar      1 <0>         0.1161
     29 C24         2.1572    0.7355    5.3789 C.ar      1 <0>        -0.1680
     30 C25         0.9783    0.6234    4.6537 C.ar      1 <0>         0.2017
     31 N2          1.0019    0.4854    3.2805 N.am      1 <0>        -0.6315
     32 H1          1.8799    0.4671    2.8022 H         1 <0>         0.4239
     33 C26        -0.1382    0.3753    2.5767 C.2       1 <0>         0.5368
     34 O4         -0.0791    0.2546    1.3650 O.2       1 <0>        -0.5125
     35 O5          3.2834    0.9793    7.4447 O.3       1 <0>        -0.3014
     36 C27         3.2010    1.4922    8.7785 C.3       1 <0>         0.0189
     37 C28         2.0490    0.7781    9.4983 C.3       1 <0>         0.0199
     38 O6          0.8393    1.0429    8.7801 O.3       1 <0>        -0.3038
     39 C29        -4.6917   -0.6946   -0.0969 C.3       1 <0>        -0.1458
     40 H2         -9.3170    2.0043   -0.9359 H         1 <0>         0.0766
     41 H3         -8.7842    2.6702   -2.4982 H         1 <0>         0.0722
     42 H4         -8.8906    0.9079   -2.2718 H         1 <0>         0.0722
     43 H5         -7.2075   -0.2840   -0.9907 H         1 <0>         0.1286
     44 H6         -6.9520    3.9383   -1.5348 H         1 <0>         0.1290
     45 H7         -4.3727    4.6185    0.2937 H         1 <0>         0.0792
     46 H8         -3.3727    4.0751   -1.0749 H         1 <0>         0.1320
     47 H9         -4.8566    5.0116   -1.3735 H         1 <0>         0.0706
     48 H10        -2.6491    2.7496    3.4801 H         1 <0>         0.0907
     49 H11        -3.2772    3.6239    2.0626 H         1 <0>         0.0976
     50 H12        -5.6343    3.5525    1.5027 H         1 <0>         0.1236
     51 H13        -7.9335    3.2444    2.3261 H         1 <0>         0.1263
     52 H14        -6.4253    1.1455    5.7297 H         1 <0>         0.1317
     53 H15        -4.1300    1.4485    4.8942 H         1 <0>         0.1272
     54 H16        -9.6320    2.0969    2.7558 H         1 <0>         0.0550
     55 H17       -10.6061    2.3518    4.2236 H         1 <0>         0.1011
     56 H18        -9.5106    3.6317    3.6491 H         1 <0>         0.0559
     57 H19        -3.4772   -0.0537    3.0110 H         1 <0>         0.0899
     58 H20        -2.4930   -0.4640    1.5857 H         1 <0>         0.1192
     59 H21        -2.4548    0.5571    5.0395 H         1 <0>         0.1470
     60 H22        -1.2375    0.8145    7.2405 H         1 <0>         0.1498
     61 H23         3.1084    0.7160    4.8680 H         1 <0>         0.1473
     62 H24         3.0072    2.5644    8.7486 H         1 <0>         0.0830
     63 H25         4.1368    1.3019    9.3039 H         1 <0>         0.1274
     64 H26         1.9619    1.1557   10.5171 H         1 <0>         0.1264
     65 H27         2.2369   -0.2954    9.5190 H         1 <0>         0.0803
     66 H28        -4.1870   -1.1349   -0.9569 H         1 <0>         0.0980
     67 H29        -3.9667   -0.5143    0.6968 H         1 <0>         0.0713
     68 H30        -5.4610   -1.3782    0.2621 H         1 <0>         0.0783
@<TRIPOS>BOND
     1    1    2 1
     2    1   40 1
     3    1   41 1
     4    1   42 1
     5    2    7 ar
     6    2    3 ar
     7    3    4 ar
     8    3   43 1
     9    4    5 ar
    10    4   39 1
    11    5    6 ar
    12    5    9 1
    13    6    7 ar
    14    6    8 1
    15    7   44 1
    16    8   45 1
    17    8   46 1
    18    8   47 1
    19    9   10 2
    20    9   11 2
    21    9   12 1
    22   12   13 1
    23   12   22 1
    24   13   14 1
    25   13   48 1
    26   13   49 1
    27   14   19 ar
    28   14   15 ar
    29   15   16 ar
    30   15   50 1
    31   16   17 ar
    32   16   51 1
    33   17   18 ar
    34   17   20 1
    35   18   19 ar
    36   18   52 1
    37   19   53 1
    38   20   21 1
    39   21   54 1
    40   21   55 1
    41   21   56 1
    42   22   23 1
    43   22   57 1
    44   22   58 1
    45   23   33 1
    46   23   24 2
    47   24   25 1
    48   24   59 1
    49   25   30 ar
    50   25   26 ar
    51   26   27 ar
    52   26   60 1
    53   27   38 1
    54   27   28 ar
    55   28   29 ar
    56   28   35 1
    57   29   30 ar
    58   29   61 1
    59   30   31 1
    60   31   32 1
    61   31   33 am
    62   33   34 2
    63   35   36 1
    64   36   37 1
    65   36   62 1
    66   36   63 1
    67   37   38 1
    68   37   64 1
    69   37   65 1
    70   39   66 1
    71   39   67 1
    72   39   68 1
@<TRIPOS>MOLECULE
ZINC09392285
   56    59     0     0     0
SMALL
USER_CHARGES
N-[4-[(5S)-1-(4-chlorophenyl)sulfonyl-5-(4-methoxyphenyl)-4,5-dihydropyrazol-3-yl]phenyl]methanesulfonamide
@<TRIPOS>ATOM
      1 C1          7.6965   10.4911    2.1990 C.3       1 <0>         0.0251
      2 O1          8.4657    9.5047    1.5082 O.3       1 <0>        -0.3129
      3 C2          8.2374    8.2051    1.8335 C.ar      1 <0>         0.1392
      4 C3          8.9490    7.1954    1.2019 C.ar      1 <0>        -0.1480
      5 C4          8.7154    5.8751    1.5347 C.ar      1 <0>        -0.0497
      6 C5          7.7734    5.5596    2.4964 C.ar      1 <0>        -0.1594
      7 C6          7.0589    6.5638    3.1232 C.ar      1 <0>        -0.0692
      8 C7          7.2928    7.8859    2.7981 C.ar      1 <0>        -0.2042
      9 C8          7.5205    4.1185    2.8574 C.3       1 <0>         0.1646
     10 H1          8.3842    3.5037    2.6043 H         1 <0>         0.1132
     11 C9          6.2557    3.5954    2.1483 C.3       1 <0>        -0.1194
     12 C10         5.3295    3.2226    3.2838 C.2       1 <0>         0.1402
     13 N1          5.9054    3.4718    4.4085 N.2       1 <0>        -0.2059
     14 N2          7.1920    3.9926    4.2863 N.pl3     1 <0>        -0.8485
     15 S1          8.1866    4.4078    5.5436 S.o2      1 <0>         2.7152
     16 O2          7.8402    3.5621    6.6318 O.2       1 <0>        -0.9272
     17 O3          9.5046    4.4688    5.0158 O.2       1 <0>        -0.9302
     18 C11         7.7606    6.0482    6.0252 C.ar      1 <0>        -0.6819
     19 C12         8.3976    7.1272    5.4413 C.ar      1 <0>         0.0112
     20 C13         8.0598    8.4144    5.8145 C.ar      1 <0>        -0.1349
     21 C14         7.0919    8.6227    6.7810 C.ar      1 <0>         0.0228
     22 C15         6.4587    7.5422    7.3691 C.ar      1 <0>        -0.1343
     23 C16         6.7934    6.2557    6.9909 C.ar      1 <0>         0.0037
     24 Cl1         6.6717   10.2389    7.2550 Cl        1 <0>        -0.0519
     25 C17         3.9731    2.6654    3.1275 C.ar      1 <0>        -0.0252
     26 C18         3.2078    2.3585    4.2555 C.ar      1 <0>        -0.0750
     27 C19         1.9407    1.8384    4.1056 C.ar      1 <0>        -0.1199
     28 C20         1.4234    1.6189    2.8337 C.ar      1 <0>         0.1351
     29 C21         2.1843    1.9178    1.7088 C.ar      1 <0>        -0.1023
     30 C22         3.4500    2.4434    1.8510 C.ar      1 <0>        -0.0787
     31 N3          0.1394    1.0918    2.6857 N.pl3     1 <0>        -1.0669
     32 S2         -1.1113    2.0751    2.2261 S.o2      1 <0>         2.6082
     33 O4         -2.2468    1.2218    2.1841 O.2       1 <0>        -0.9518
     34 O5         -0.6489    2.7241    1.0496 O.2       1 <0>        -0.9469
     35 C23        -1.2812    3.2751    3.5759 C.3       1 <0>        -0.6708
     36 H2          6.6363   10.3236    2.0092 H         1 <0>         0.0572
     37 H3          7.8899   10.4188    3.2692 H         1 <0>         0.0556
     38 H4          7.9765   11.4834    1.8454 H         1 <0>         0.1036
     39 H5          9.6851    7.4414    0.4509 H         1 <0>         0.1373
     40 H6          9.2693    5.0888    1.0435 H         1 <0>         0.1376
     41 H7          6.3202    6.3145    3.8707 H         1 <0>         0.1235
     42 H8          6.7376    8.6701    3.2912 H         1 <0>         0.1302
     43 H9          6.4909    2.7197    1.5435 H         1 <0>         0.1118
     44 H10         5.8109    4.3778    1.5333 H         1 <0>         0.1105
     45 H11         9.1563    6.9644    4.6900 H         1 <0>         0.1472
     46 H12         8.5545    9.2574    5.3551 H         1 <0>         0.1415
     47 H13         5.7033    7.7042    8.1238 H         1 <0>         0.1460
     48 H14         6.2989    5.4122    7.4497 H         1 <0>         0.1523
     49 H15         3.6088    2.5290    5.2437 H         1 <0>         0.1419
     50 H16         1.3487    1.6006    4.9770 H         1 <0>         0.1369
     51 H17         1.7810    1.7418    0.7225 H         1 <0>         0.1439
     52 H18         4.0388    2.6792    0.9768 H         1 <0>         0.1386
     53 H19        -0.0203    0.1497    2.8521 H         1 <0>         0.4277
     54 H20        -0.3253    3.7715    3.7432 H         1 <0>         0.1292
     55 H21        -1.5861    2.7579    4.4856 H         1 <0>         0.1313
     56 H22        -2.0342    4.0169    3.3099 H         1 <0>         0.1327
@<TRIPOS>BOND
     1    1    2 1
     2    1   36 1
     3    1   37 1
     4    1   38 1
     5    2    3 1
     6    3    8 ar
     7    3    4 ar
     8    4    5 ar
     9    4   39 1
    10    5    6 ar
    11    5   40 1
    12    6    7 ar
    13    6    9 1
    14    7    8 ar
    15    7   41 1
    16    8   42 1
    17    9   10 1
    18    9   14 1
    19    9   11 1
    20   11   12 1
    21   11   43 1
    22   11   44 1
    23   12   13 2
    24   12   25 1
    25   13   14 1
    26   14   15 1
    27   15   16 2
    28   15   17 2
    29   15   18 1
    30   18   23 ar
    31   18   19 ar
    32   19   20 ar
    33   19   45 1
    34   20   21 ar
    35   20   46 1
    36   21   22 ar
    37   21   24 1
    38   22   23 ar
    39   22   47 1
    40   23   48 1
    41   25   30 ar
    42   25   26 ar
    43   26   27 ar
    44   26   49 1
    45   27   28 ar
    46   27   50 1
    47   28   29 ar
    48   28   31 1
    49   29   30 ar
    50   29   51 1
    51   30   52 1
    52   31   32 1
    53   31   53 1
    54   32   33 2
    55   32   34 2
    56   32   35 1
    57   35   54 1
    58   35   55 1
    59   35   56 1
@<TRIPOS>MOLECULE
ZINC19940877
   75    80     0     0     0
SMALL
USER_CHARGES
3-[(S)-(4-benzylpiperazin-1-yl)-(1-cyclohexyltetrazol-5-yl)methyl]-5,8-dimethyl-1H-quinolin-2-one
@<TRIPOS>ATOM
      1 C1          0.6831    6.5533   -3.7714 C.3       1 <0>        -0.1243
      2 C2          1.7881    5.6614   -4.2759 C.ar      1 <0>        -0.0223
      3 C3          2.3076    5.8524   -5.5252 C.ar      1 <0>        -0.1532
      4 C4          3.3260    5.0370   -5.9989 C.ar      1 <0>        -0.0576
      5 C5          3.8326    4.0192   -5.2193 C.ar      1 <0>        -0.1406
      6 C6          3.3192    3.8055   -3.9445 C.ar      1 <0>         0.2071
      7 C7          2.2865    4.6349   -3.4674 C.ar      1 <0>        -0.1386
      8 C8          1.7533    4.4026   -2.1238 C.2       1 <0>        -0.0093
      9 C9          2.2761    3.3927   -1.3852 C.2       1 <0>        -0.1795
     10 C10         3.3151    2.5935   -1.9083 C.2       1 <0>         0.5330
     11 O1          3.7741    1.6942   -1.2256 O.2       1 <0>        -0.4701
     12 N1          3.8073    2.7954   -3.1432 N.am      1 <0>        -0.6489
     13 H1          4.6108    2.1407   -3.5116 H         1 <0>         0.4381
     14 C11         1.7500    3.1267    0.0017 C.3       1 <0>         0.2400
     15 H2          1.0505    3.9213    0.3005 H         1 <0>         0.0701
     16 C12         1.0577    1.7883    0.0282 C.2       1 <0>         0.1799
     17 N2          1.6319    0.6101    0.0242 N.2       1 <0>        -0.2393
     18 N3          0.7050   -0.2844    0.0522 N.2       1 <0>        -0.0860
     19 N4         -0.4456    0.2928    0.0740 N.2       1 <0>        -0.0933
     20 N5         -0.2702    1.5709    0.0601 N.pl3     1 <0>        -0.3035
     21 C13        -1.3193    2.5933    0.0707 C.3       1 <0>         0.1464
     22 C14        -2.1646    2.4436    1.3372 C.3       1 <0>        -0.1292
     23 C15        -3.2603    3.5114    1.3482 C.3       1 <0>        -0.1156
     24 C16        -4.1519    3.3400    0.1167 C.3       1 <0>        -0.1272
     25 C17        -3.3066    3.4898   -1.1497 C.3       1 <0>        -0.1150
     26 C18        -2.2109    2.4220   -1.1608 C.3       1 <0>        -0.1289
     27 N6          2.8668    3.1193    0.9560 N.3       1 <0>        -0.5029
     28 C19         2.3994    2.7955    2.3111 C.3       1 <0>         0.0619
     29 C20         3.5999    2.7199    3.2574 C.3       1 <0>         0.0574
     30 N7          4.3138    4.0043    3.2426 N.3       1 <0>        -0.5321
     31 C21         4.7812    4.3281    1.8874 C.3       1 <0>         0.0586
     32 C22         3.5807    4.4038    0.9411 C.3       1 <0>         0.0633
     33 C23         5.4306    3.9969    4.1969 C.3       1 <0>         0.0925
     34 C24         4.8909    3.9067    5.6010 C.ar      1 <0>        -0.0777
     35 C25         4.6052    5.0603    6.3071 C.ar      1 <0>        -0.0991
     36 C26         4.1056    4.9775    7.5934 C.ar      1 <0>        -0.1214
     37 C27         3.9011    3.7412    8.1771 C.ar      1 <0>        -0.1202
     38 C28         4.1921    2.5877    7.4731 C.ar      1 <0>        -0.1204
     39 C29         4.6868    2.6705    6.1850 C.ar      1 <0>        -0.1147
     40 C30         4.9388    3.1418   -5.7461 C.3       1 <0>        -0.1126
     41 H3          0.4285    7.2941   -4.5436 H         1 <0>         0.0747
     42 H4          1.0177    7.0726   -2.8612 H         1 <0>         0.0758
     43 H5         -0.2034    5.9442   -3.5411 H         1 <0>         0.0742
     44 H6          1.9225    6.6451   -6.1494 H         1 <0>         0.1296
     45 H7          3.7259    5.2018   -6.9884 H         1 <0>         0.1316
     46 H8          0.9614    5.0221   -1.7295 H         1 <0>         0.1401
     47 H9         -0.8181    3.5723    0.0529 H         1 <0>         0.1072
     48 H10        -2.6256    1.4450    1.3544 H         1 <0>         0.0866
     49 H11        -1.5236    2.5668    2.2226 H         1 <0>         0.0723
     50 H12        -3.8680    3.4037    2.2587 H         1 <0>         0.0771
     51 H13        -2.7993    4.5100    1.3310 H         1 <0>         0.0679
     52 H14        -4.6129    2.3414    0.1339 H         1 <0>         0.0690
     53 H15        -4.9397    4.1077    0.1247 H         1 <0>         0.0719
     54 H16        -3.9476    3.3666   -2.0351 H         1 <0>         0.0768
     55 H17        -2.8456    4.4884   -1.1669 H         1 <0>         0.0679
     56 H18        -1.6031    2.5297   -2.0713 H         1 <0>         0.0717
     57 H19        -2.6719    1.4234   -1.1437 H         1 <0>         0.0862
     58 H20         1.7074    3.5775    2.6569 H         1 <0>         0.0405
     59 H21         1.8800    1.8259    2.2979 H         1 <0>         0.0746
     60 H22         3.2495    2.5059    4.2779 H         1 <0>         0.0850
     61 H23         4.2775    1.9189    2.9269 H         1 <0>         0.0493
     62 H24         5.3006    5.2976    1.9006 H         1 <0>         0.0828
     63 H25         5.4732    3.5461    1.5416 H         1 <0>         0.0488
     64 H26         3.9302    4.6172   -0.0798 H         1 <0>         0.0796
     65 H27         2.9022    5.2042    1.2712 H         1 <0>         0.0449
     66 H28         6.0783    3.1306    3.9966 H         1 <0>         0.0462
     67 H29         6.0132    4.9235    4.0868 H         1 <0>         0.0851
     68 H30         4.7688    6.0262    5.8525 H         1 <0>         0.1213
     69 H31         3.8786    5.8786    8.1436 H         1 <0>         0.1212
     70 H32         3.5143    3.6766    9.1834 H         1 <0>         0.1205
     71 H33         4.0327    1.6219    7.9293 H         1 <0>         0.1211
     72 H34         4.9142    1.7693    5.6349 H         1 <0>         0.1187
     73 H35         5.2068    2.3934   -4.9858 H         1 <0>         0.0590
     74 H36         5.8184    3.7603   -5.9779 H         1 <0>         0.0783
     75 H37         4.5986    2.6313   -6.6591 H         1 <0>         0.0777
@<TRIPOS>BOND
     1    1    2 1
     2    1   41 1
     3    1   42 1
     4    1   43 1
     5    2    7 ar
     6    2    3 ar
     7    3    4 ar
     8    3   44 1
     9    4    5 ar
    10    4   45 1
    11    5    6 ar
    12    5   40 1
    13    6   12 1
    14    6    7 ar
    15    7    8 1
    16    8    9 2
    17    8   46 1
    18    9   10 1
    19    9   14 1
    20   10   11 2
    21   10   12 am
    22   12   13 1
    23   14   15 1
    24   14   16 1
    25   14   27 1
    26   16   20 1
    27   16   17 2
    28   17   18 1
    29   18   19 2
    30   19   20 1
    31   20   21 1
    32   21   26 1
    33   21   22 1
    34   21   47 1
    35   22   23 1
    36   22   48 1
    37   22   49 1
    38   23   24 1
    39   23   50 1
    40   23   51 1
    41   24   25 1
    42   24   52 1
    43   24   53 1
    44   25   26 1
    45   25   54 1
    46   25   55 1
    47   26   56 1
    48   26   57 1
    49   27   32 1
    50   27   28 1
    51   28   29 1
    52   28   58 1
    53   28   59 1
    54   29   30 1
    55   29   60 1
    56   29   61 1
    57   30   31 1
    58   30   33 1
    59   31   32 1
    60   31   62 1
    61   31   63 1
    62   32   64 1
    63   32   65 1
    64   33   34 1
    65   33   66 1
    66   33   67 1
    67   34   39 ar
    68   34   35 ar
    69   35   36 ar
    70   35   68 1
    71   36   37 ar
    72   36   69 1
    73   37   38 ar
    74   37   70 1
    75   38   39 ar
    76   38   71 1
    77   39   72 1
    78   40   73 1
    79   40   74 1
    80   40   75 1
@<TRIPOS>MOLECULE
ZINC35992053
   70    73     0     0     0
SMALL
USER_CHARGES

@<TRIPOS>ATOM
      1 C1          0.6414   -2.6147    4.8527 C.3       1 <0>        -0.1519
      2 C2         -0.1582   -2.2838    3.5909 C.3       1 <0>         0.0593
      3 O1          0.7065   -2.3269    2.4541 O.3       1 <0>        -0.3436
      4 C3          0.1536   -2.0568    1.2531 C.2       1 <0>         0.5484
      5 O2         -1.0315   -1.7919    1.1747 O.2       1 <0>        -0.4930
      6 C4          0.9515   -2.0816    0.0854 C.2       1 <0>        -0.2628
      7 C5          1.3175   -3.2494   -0.4855 C.2       1 <0>         0.2259
      8 N1          2.0875   -3.2719   -1.6130 N.am      1 <0>        -0.5325
      9 C6          2.5326   -2.1703   -2.2304 C.2       1 <0>         0.7051
     10 O3          3.2132   -2.2910   -3.2303 O.2       1 <0>        -0.5593
     11 N2          2.2501   -0.9320   -1.7797 N.am      1 <0>        -0.7118
     12 C7          1.4194   -0.7985   -0.5711 C.3       1 <0>         0.2501
     13 H1          0.5376   -0.2117   -0.8283 H         1 <0>         0.0911
     14 C8          2.2104   -0.0176    0.4466 C.ar      1 <0>        -0.1207
     15 C9          3.5296   -0.3462    0.6969 C.ar      1 <0>        -0.0836
     16 C10         4.2551    0.3701    1.6303 C.ar      1 <0>        -0.1188
     17 C11         3.6616    1.4153    2.3131 C.ar      1 <0>        -0.0761
     18 C12         2.3427    1.7445    2.0622 C.ar      1 <0>        -0.1186
     19 C13         1.6184    1.0309    1.1256 C.ar      1 <0>        -0.1011
     20 C14         4.4523    2.1956    3.3315 C.3       1 <0>        -0.1180
     21 C15         2.4472   -4.5746   -2.1787 C.3       1 <0>         0.0897
     22 C16         0.8693   -4.5489    0.1322 C.3       1 <0>         0.0772
     23 N3         -0.0200   -5.2535   -0.8008 N.3       1 <0>        -0.5314
     24 C17        -1.2682   -4.5061   -1.0043 C.3       1 <0>         0.0366
     25 C18        -2.0856   -5.1758   -2.1141 C.3       1 <0>         0.0935
     26 N4         -2.2596   -6.5961   -1.7740 N.am      1 <0>        -0.6057
     27 C19        -1.0649   -7.3791   -1.4233 C.3       1 <0>         0.1534
     28 H2         -0.4368   -7.5037   -2.3054 H         1 <0>         0.0848
     29 C20        -0.2877   -6.6226   -0.3407 C.3       1 <0>         0.0430
     30 C21        -1.4867   -8.7515   -0.8947 C.3       1 <0>        -0.1399
     31 C22        -3.4812   -7.1652   -1.7839 C.2       1 <0>         0.5628
     32 O4         -3.6184   -8.3167   -1.4189 O.2       1 <0>        -0.5126
     33 C23        -4.6534   -6.3900   -2.2382 C.ar      1 <0>        -0.1757
     34 C24        -4.5001   -5.3781   -3.1885 C.ar      1 <0>        -0.0734
     35 C25        -5.5983   -4.6585   -3.6087 C.ar      1 <0>        -0.1378
     36 C26        -6.8524   -4.9353   -3.0913 C.ar      1 <0>        -0.0631
     37 C27        -7.0143   -5.9343   -2.1501 C.ar      1 <0>        -0.1622
     38 C28        -5.9230   -6.6692   -1.7232 C.ar      1 <0>         0.1564
     39 F1         -6.0823   -7.6495   -0.8073 F         1 <0>        -0.1187
     40 H3          1.0701   -3.6125    4.7599 H         1 <0>         0.0660
     41 H4          1.4418   -1.8854    4.9773 H         1 <0>         0.0678
     42 H5         -0.0182   -2.5818    5.7198 H         1 <0>         0.0803
     43 H6         -0.9587   -3.0131    3.4663 H         1 <0>         0.0657
     44 H7         -0.5870   -1.2860    3.6837 H         1 <0>         0.0691
     45 H8          2.5833   -0.1472   -2.2424 H         1 <0>         0.4337
     46 H9          3.9933   -1.1628    0.1634 H         1 <0>         0.1154
     47 H10         5.2856    0.1129    1.8264 H         1 <0>         0.1227
     48 H11         1.8789    2.5608    2.5959 H         1 <0>         0.1236
     49 H12         0.5891    1.2904    0.9268 H         1 <0>         0.1220
     50 H13         4.9458    3.0355    2.8425 H         1 <0>         0.0723
     51 H14         3.7807    2.5688    4.1047 H         1 <0>         0.0673
     52 H15         5.2023    1.5468    3.7839 H         1 <0>         0.0674
     53 H16         1.6880   -4.8802   -2.8987 H         1 <0>         0.0772
     54 H17         3.4128   -4.4994   -2.6788 H         1 <0>         0.0861
     55 H18         2.5084   -5.3133   -1.3796 H         1 <0>         0.0820
     56 H19         1.7398   -5.1700    0.3435 H         1 <0>         0.1104
     57 H20         0.3347   -4.3450    1.0599 H         1 <0>         0.0646
     58 H21        -1.8450   -4.5027   -0.0794 H         1 <0>         0.0473
     59 H22        -1.0355   -3.4809   -1.2921 H         1 <0>         0.0916
     60 H23        -3.0611   -4.6956   -2.1910 H         1 <0>         0.1096
     61 H24        -1.5557   -5.0887   -3.0626 H         1 <0>         0.0835
     62 H25         0.6562   -7.1324   -0.1472 H         1 <0>         0.0943
     63 H26        -0.8781   -6.5897    0.5750 H         1 <0>         0.0465
     64 H27        -1.9541   -9.3220   -1.6973 H         1 <0>         0.0780
     65 H28        -0.6091   -9.2866   -0.5319 H         1 <0>         0.0497
     66 H29        -2.1975   -8.6236   -0.0782 H         1 <0>         0.0707
     67 H30        -3.5229   -5.1596   -3.5933 H         1 <0>         0.1487
     68 H31        -5.4800   -3.8760   -4.3436 H         1 <0>         0.1383
     69 H32        -7.7084   -4.3674   -3.4246 H         1 <0>         0.1396
     70 H33        -7.9954   -6.1443   -1.7503 H         1 <0>         0.1438
@<TRIPOS>BOND
     1    1    2 1
     2    1   40 1
     3    1   41 1
     4    1   42 1
     5    2    3 1
     6    2   43 1
     7    2   44 1
     8    3    4 1
     9    4    5 2
    10    4    6 1
    11    6   12 1
    12    6    7 2
    13    7    8 1
    14    7   22 1
    15    8    9 am
    16    8   21 1
    17    9   10 2
    18    9   11 am
    19   11   12 1
    20   11   45 1
    21   12   13 1
    22   12   14 1
    23   14   19 ar
    24   14   15 ar
    25   15   16 ar
    26   15   46 1
    27   16   17 ar
    28   16   47 1
    29   17   18 ar
    30   17   20 1
    31   18   19 ar
    32   18   48 1
    33   19   49 1
    34   20   50 1
    35   20   51 1
    36   20   52 1
    37   21   53 1
    38   21   54 1
    39   21   55 1
    40   22   23 1
    41   22   56 1
    42   22   57 1
    43   23   29 1
    44   23   24 1
    45   24   25 1
    46   24   58 1
    47   24   59 1
    48   25   26 1
    49   25   60 1
    50   25   61 1
    51   26   27 1
    52   26   31 am
    53   27   28 1
    54   27   29 1
    55   27   30 1
    56   29   62 1
    57   29   63 1
    58   30   64 1
    59   30   65 1
    60   30   66 1
    61   31   32 2
    62   31   33 1
    63   33   38 ar
    64   33   34 ar
    65   34   35 ar
    66   34   67 1
    67   35   36 ar
    68   35   68 1
    69   36   37 ar
    70   36   69 1
    71   37   38 ar
    72   37   70 1
    73   38   39 1
@<TRIPOS>MOLECULE
ZINC40815988
   66    70     0     0     0
SMALL
USER_CHARGES

@<TRIPOS>ATOM
      1 C1          0.5427    1.4373    0.0133 C.3       1 <0>        -0.1026
      2 C2          0.1888   -0.0275    0.0033 C.2       1 <0>        -0.0276
      3 C3          0.0276   -0.8455   -1.1218 C.2       1 <0>        -0.1544
      4 C4         -0.2925   -2.1053   -0.6736 C.2       1 <0>         0.0551
      5 O1         -0.3250   -2.0726    0.6565 O.3       1 <0>        -0.1406
      6 C5         -0.0332   -0.8254    1.0907 C.2       1 <0>        -0.0991
      7 C6          0.0309   -0.3995    2.4934 C.2       1 <0>         0.6078
      8 O2          0.1557    0.7799    2.7661 O.2       1 <0>        -0.5134
      9 N1         -0.0485   -1.3145    3.4798 N.am      1 <0>        -0.6015
     10 C7         -0.0260   -2.7511    3.1709 C.3       1 <0>         0.0815
     11 C8          1.1077   -3.4064    3.9695 C.3       1 <0>         0.1332
     12 N2          0.9976   -2.9853    5.3732 N.pl3     1 <0>        -0.6740
     13 C9          0.9751   -1.5487    5.6821 C.3       1 <0>         0.1321
     14 C10        -0.1530   -0.8935    4.8840 C.3       1 <0>         0.0970
     15 C11         0.9153   -3.9347    6.3967 C.ar      1 <0>         0.1347
     16 C12         2.0716   -4.4048    7.0044 C.ar      1 <0>        -0.0961
     17 C13         1.9871   -5.3424    8.0155 C.ar      1 <0>        -0.1241
     18 C14         0.7528   -5.8138    8.4231 C.ar      1 <0>        -0.0929
     19 C15        -0.4020   -5.3491    7.8206 C.ar      1 <0>        -0.1512
     20 C16        -0.3255   -4.4060    6.8121 C.ar      1 <0>         0.0903
     21 F1         -1.4539   -3.9475    6.2276 F         1 <0>        -0.1346
     22 C17        -0.5490   -3.2656   -1.6015 C.3       1 <0>        -0.0444
     23 C18        -0.9037   -2.7350   -2.9931 C.3       1 <0>        -0.1098
     24 C19         0.1626   -1.7502   -3.4841 C.3       1 <0>        -0.1186
     25 C20         0.1513   -0.5381   -2.5640 C.2       1 <0>         0.1696
     26 N3          0.2433    0.6762   -3.0115 N.2       1 <0>        -0.2163
     27 N4          0.3585    0.9086   -4.3883 N.am      1 <0>        -0.5829
     28 C21         0.4542    2.1700   -4.8531 C.2       1 <0>         0.5310
     29 O3          0.4405    3.1043   -4.0793 O.2       1 <0>        -0.4723
     30 C22         0.5780    2.4200   -6.3340 C.3       1 <0>         0.0500
     31 O4          0.6637    3.8261   -6.5743 O.3       1 <0>        -0.2885
     32 C23         0.7806    4.2249   -7.8681 C.ar      1 <0>         0.1261
     33 C24         0.8064    3.2827   -8.8861 C.ar      1 <0>        -0.2116
     34 C25         0.9248    3.6907  -10.2006 C.ar      1 <0>        -0.0800
     35 C26         1.0180    5.0369  -10.5021 C.ar      1 <0>        -0.1557
     36 C27         0.9929    5.9779   -9.4893 C.ar      1 <0>        -0.0784
     37 C28         0.8684    5.5753   -8.1737 C.ar      1 <0>        -0.1456
     38 H1          1.6266    1.5491    0.0429 H         1 <0>         0.0746
     39 H2          0.1531    1.9115   -0.8875 H         1 <0>         0.0862
     40 H3          0.1045    1.9110    0.8918 H         1 <0>         0.0887
     41 H4         -0.9784   -3.2007    3.4517 H         1 <0>         0.0755
     42 H5          0.1482   -2.8933    2.1044 H         1 <0>         0.1088
     43 H6          1.0211   -4.4910    3.9050 H         1 <0>         0.0829
     44 H7          2.0696   -3.0891    3.5668 H         1 <0>         0.0600
     45 H8          0.8009   -1.4065    6.7486 H         1 <0>         0.0838
     46 H9          1.9276   -1.0992    5.4013 H         1 <0>         0.0616
     47 H10        -0.0626    0.1909    4.9484 H         1 <0>         0.1026
     48 H11        -1.1147   -1.2077    5.2895 H         1 <0>         0.0743
     49 H12         3.0365   -4.0381    6.6867 H         1 <0>         0.1318
     50 H13         2.8867   -5.7081    8.4882 H         1 <0>         0.1306
     51 H14         0.6903   -6.5470    9.2136 H         1 <0>         0.1331
     52 H15        -1.3645   -5.7196    8.1411 H         1 <0>         0.1353
     53 H16         0.3460   -3.8845   -1.6656 H         1 <0>         0.1025
     54 H17        -1.3768   -3.8618   -1.2178 H         1 <0>         0.0996
     55 H18        -0.9692   -3.5704   -3.6901 H         1 <0>         0.0934
     56 H19        -1.8678   -2.2282   -2.9493 H         1 <0>         0.0764
     57 H20         1.1432   -2.2251   -3.4542 H         1 <0>         0.0996
     58 H21        -0.0653   -1.4398   -4.5038 H         1 <0>         0.0795
     59 H22         0.3694    0.1616   -5.0070 H         1 <0>         0.3858
     60 H23         1.4766    1.9316   -6.7110 H         1 <0>         0.0982
     61 H24        -0.2963    2.0167   -6.8450 H         1 <0>         0.0981
     62 H25         0.7344    2.2310   -8.6510 H         1 <0>         0.1269
     63 H26         0.9450    2.9576  -10.9933 H         1 <0>         0.1264
     64 H27         1.1109    5.3539  -11.5303 H         1 <0>         0.1256
     65 H28         1.0662    7.0288   -9.7274 H         1 <0>         0.1320
     66 H29         0.8445    6.3110   -7.3834 H         1 <0>         0.1339
@<TRIPOS>BOND
     1    1    2 1
     2    1   38 1
     3    1   39 1
     4    1   40 1
     5    2    6 2
     6    2    3 1
     7    3   25 1
     8    3    4 2
     9    4    5 1
    10    4   22 1
    11    5    6 1
    12    6    7 1
    13    7    8 2
    14    7    9 am
    15    9   14 1
    16    9   10 1
    17   10   11 1
    18   10   41 1
    19   10   42 1
    20   11   12 1
    21   11   43 1
    22   11   44 1
    23   12   13 1
    24   12   15 1
    25   13   14 1
    26   13   45 1
    27   13   46 1
    28   14   47 1
    29   14   48 1
    30   15   20 ar
    31   15   16 ar
    32   16   17 ar
    33   16   49 1
    34   17   18 ar
    35   17   50 1
    36   18   19 ar
    37   18   51 1
    38   19   20 ar
    39   19   52 1
    40   20   21 1
    41   22   23 1
    42   22   53 1
    43   22   54 1
    44   23   24 1
    45   23   55 1
    46   23   56 1
    47   24   25 1
    48   24   57 1
    49   24   58 1
    50   25   26 2
    51   26   27 1
    52   27   28 am
    53   27   59 1
    54   28   29 2
    55   28   30 1
    56   30   31 1
    57   30   60 1
    58   30   61 1
    59   31   32 1
    60   32   37 ar
    61   32   33 ar
    62   33   34 ar
    63   33   62 1
    64   34   35 ar
    65   34   63 1
    66   35   36 ar
    67   35   64 1
    68   36   37 ar
    69   36   65 1
    70   37   66 1
@<TRIPOS>MOLECULE
ZINC09286427
   67    71     0     0     0
SMALL
USER_CHARGES
ethyl 2-[2-[6-(indolin-1-ylmethyl)-4-oxo-pyran-3-yl]oxypropanoylamino]-4,5,6,7-tetrahydrobenzothiophene-3-carboxylate
@<TRIPOS>ATOM
      1 C1         -5.4255   -7.2354    2.1098 C.3       1 <0>        -0.1533
      2 C2         -5.1636   -6.7915    0.6693 C.3       1 <0>         0.0577
      3 O1         -3.7891   -7.0937    0.3119 O.3       1 <0>        -0.3497
      4 C3         -3.3935   -6.7629   -0.9344 C.2       1 <0>         0.5316
      5 O2         -4.1769   -6.2360   -1.7014 O.2       1 <0>        -0.4938
      6 C4         -2.0209   -7.0381   -1.3642 C.2       1 <0>        -0.2022
      7 C5         -1.6675   -8.2971   -1.9986 C.2       1 <0>        -0.0634
      8 C6         -0.3668   -8.4246   -2.3387 C.2       1 <0>        -0.2028
      9 S1          0.3840   -6.9017   -1.8375 S.3       1 <0>         0.2487
     10 C7         -1.0088   -6.1044   -1.1844 C.2       1 <0>         0.0758
     11 N1         -1.0915   -4.8433   -0.6153 N.am      1 <0>        -0.6164
     12 C8          0.0105   -4.0731   -0.5204 C.2       1 <0>         0.5143
     13 O3          1.0745   -4.4836   -0.9331 O.2       1 <0>        -0.4603
     14 C9         -0.0794   -2.7020    0.0984 C.3       1 <0>         0.0651
     15 H1         -0.8437   -2.1203   -0.4169 H         1 <0>         0.1041
     16 C10        -0.4488   -2.8331    1.5773 C.3       1 <0>        -0.1836
     17 O4          1.1825   -2.0420   -0.0206 O.3       1 <0>        -0.2478
     18 C11         1.1714   -0.6812   -0.0105 C.2       1 <0>        -0.0422
     19 C12         0.0240   -0.0053    0.2178 C.2       1 <0>        -0.0168
     20 O5          0.0061    1.3347    0.2287 O.3       1 <0>        -0.1874
     21 C13         1.1091    2.0614    0.0169 C.2       1 <0>         0.1067
     22 C14         2.2972    1.4688   -0.2189 C.2       1 <0>        -0.2929
     23 C15         2.3674    0.0534   -0.2404 C.2       1 <0>         0.4081
     24 O6          3.4255   -0.5196   -0.4511 O.2       1 <0>        -0.4541
     25 C16         1.0226    3.5657    0.0421 C.3       1 <0>         0.0910
     26 N2          0.7285    4.0620   -1.3088 N.pl3     1 <0>        -0.4537
     27 C17         1.6515    3.4722   -2.3028 C.3       1 <0>         0.0202
     28 C18         0.7822    3.4165   -3.5801 C.3       1 <0>        -0.0863
     29 C19        -0.6272    3.3550   -3.0258 C.ar      1 <0>        -0.1314
     30 C20        -0.5791    3.7358   -1.6897 C.ar      1 <0>         0.0783
     31 C21        -1.7572    3.7463   -0.9454 C.ar      1 <0>        -0.1215
     32 C22        -2.9526    3.3882   -1.5333 C.ar      1 <0>        -0.0972
     33 C23        -2.9907    3.0165   -2.8645 C.ar      1 <0>        -0.1346
     34 C24        -1.8250    3.0007   -3.6094 C.ar      1 <0>        -0.0845
     35 C25         0.2839   -9.6033   -2.9947 C.3       1 <0>        -0.0370
     36 C26        -0.6690  -10.8029   -2.8889 C.3       1 <0>        -0.1149
     37 C27        -2.0700  -10.3596   -3.3200 C.3       1 <0>        -0.1190
     38 C28        -2.6633   -9.4178   -2.2707 C.3       1 <0>        -0.0630
     39 H2         -6.4573   -7.0085    2.3781 H         1 <0>         0.0822
     40 H3         -5.2553   -8.3086    2.1959 H         1 <0>         0.0685
     41 H4         -4.7504   -6.7054    2.7818 H         1 <0>         0.0667
     42 H5         -5.3338   -5.7183    0.5831 H         1 <0>         0.0701
     43 H6         -5.8387   -7.3215   -0.0027 H         1 <0>         0.0725
     44 H7         -1.9425   -4.5149   -0.2852 H         1 <0>         0.4191
     45 H8         -0.5139   -1.8414    2.0249 H         1 <0>         0.0838
     46 H9         -1.4114   -3.3366    1.6681 H         1 <0>         0.0845
     47 H10         0.3155   -3.4149    2.0925 H         1 <0>         0.0871
     48 H11        -0.8906   -0.5520    0.3941 H         1 <0>         0.1977
     49 H12         3.1823    2.0640   -0.3884 H         1 <0>         0.1698
     50 H13         0.2284    3.8725    0.7228 H         1 <0>         0.1116
     51 H14         1.9723    3.9786    0.3822 H         1 <0>         0.1295
     52 H15         2.5193    4.1144   -2.4534 H         1 <0>         0.1049
     53 H16         1.9579    2.4711   -1.9996 H         1 <0>         0.0776
     54 H17         1.0076    2.5226   -4.1617 H         1 <0>         0.0835
     55 H18         0.9217    4.3149   -4.1814 H         1 <0>         0.0920
     56 H19        -1.7341    4.0351    0.0951 H         1 <0>         0.1225
     57 H20        -3.8624    3.3982   -0.9515 H         1 <0>         0.1272
     58 H21        -3.9289    2.7394   -3.3221 H         1 <0>         0.1258
     59 H22        -1.8533    2.7102   -4.6492 H         1 <0>         0.1227
     60 H23         0.4771   -9.3793   -4.0438 H         1 <0>         0.0850
     61 H24         1.2220   -9.8332   -2.4895 H         1 <0>         0.0840
     62 H25        -0.3221  -11.6037   -3.5418 H         1 <0>         0.0757
     63 H26        -0.6967  -11.1577   -1.8586 H         1 <0>         0.0696
     64 H27        -2.0074   -9.8419   -4.2772 H         1 <0>         0.0683
     65 H28        -2.7111  -11.2350   -3.4230 H         1 <0>         0.0720
     66 H29        -3.5959   -8.9952   -2.6447 H         1 <0>         0.0735
     67 H30        -2.8554   -9.9701   -1.3509 H         1 <0>         0.0808
@<TRIPOS>BOND
     1    1    2 1
     2    1   39 1
     3    1   40 1
     4    1   41 1
     5    2    3 1
     6    2   42 1
     7    2   43 1
     8    3    4 1
     9    4    5 2
    10    4    6 1
    11    6   10 2
    12    6    7 1
    13    7   38 1
    14    7    8 2
    15    8    9 1
    16    8   35 1
    17    9   10 1
    18   10   11 1
    19   11   12 am
    20   11   44 1
    21   12   13 2
    22   12   14 1
    23   14   15 1
    24   14   16 1
    25   14   17 1
    26   16   45 1
    27   16   46 1
    28   16   47 1
    29   17   18 1
    30   18   23 1
    31   18   19 2
    32   19   20 1
    33   19   48 1
    34   20   21 1
    35   21   22 2
    36   21   25 1
    37   22   23 1
    38   22   49 1
    39   23   24 2
    40   25   26 1
    41   25   50 1
    42   25   51 1
    43   26   30 1
    44   26   27 1
    45   27   28 1
    46   27   52 1
    47   27   53 1
    48   28   29 1
    49   28   54 1
    50   28   55 1
    51   29   34 ar
    52   29   30 ar
    53   30   31 ar
    54   31   32 ar
    55   31   56 1
    56   32   33 ar
    57   32   57 1
    58   33   34 ar
    59   33   58 1
    60   34   59 1
    61   35   36 1
    62   35   60 1
    63   35   61 1
    64   36   37 1
    65   36   62 1
    66   36   63 1
    67   37   38 1
    68   37   64 1
    69   37   65 1
    70   38   66 1
    71   38   67 1
@<TRIPOS>MOLECULE
ZINC15677100
   72    76     0     0     0
SMALL
USER_CHARGES
(3S)-N-benzyl-3-methyl-1-oxo-2-[2-(3,4,5-trimethoxyphenyl)ethyl]-4H-pyrazino[4,5-a]indole-3-carboxamide
@<TRIPOS>ATOM
      1 C1          0.0867    1.8070    4.8134 C.3       1 <0>        -0.1490
      2 C2         -0.9273    1.7184    3.6711 C.3       1 <0>         0.1484
      3 C3         -2.0091    0.7090    4.0513 C.3       1 <0>         0.1127
      4 N1         -3.1271    0.8178    3.1073 N.pl3     1 <0>        -0.4726
      5 C4         -4.0129   -0.1172    2.6888 C.ar      1 <0>         0.1375
      6 C5         -4.1483   -1.4757    2.9782 C.ar      1 <0>        -0.1411
      7 C6         -5.1911   -2.1480    2.3677 C.ar      1 <0>        -0.0768
      8 C7         -6.0729   -1.5184    1.5028 C.ar      1 <0>        -0.1554
      9 C8         -5.9668   -0.1862    1.1961 C.ar      1 <0>        -0.0475
     10 C9         -4.9173    0.5233    1.7978 C.ar      1 <0>        -0.1306
     11 C10        -4.5222    1.8698    1.6991 C.2       1 <0>        -0.0775
     12 C11        -3.4375    2.0300    2.4858 C.2       1 <0>        -0.0253
     13 C12        -2.6216    3.2327    2.7346 C.2       1 <0>         0.5863
     14 O1         -2.9683    4.3326    2.3476 O.2       1 <0>        -0.4929
     15 N2         -1.4667    3.0489    3.4155 N.am      1 <0>        -0.6098
     16 C13        -0.7374    4.2196    3.9093 C.3       1 <0>         0.1104
     17 C14         0.2553    4.6889    2.8439 C.3       1 <0>        -0.0965
     18 C15         1.0054    5.8931    3.3519 C.ar      1 <0>        -0.0065
     19 C16         0.5128    7.1627    3.1145 C.ar      1 <0>        -0.2255
     20 C17         1.1971    8.2731    3.5852 C.ar      1 <0>         0.1536
     21 C18         2.3858    8.1089    4.2862 C.ar      1 <0>         0.0259
     22 C19         2.8807    6.8310    4.5178 C.ar      1 <0>         0.1529
     23 C20         2.1872    5.7254    4.0491 C.ar      1 <0>        -0.2301
     24 O2          4.0432    6.6649    5.2037 O.3       1 <0>        -0.3016
     25 C21         4.4917    5.3232    5.4050 C.3       1 <0>         0.0245
     26 O3          3.0637    9.1964    4.7442 O.3       1 <0>        -0.3125
     27 C22         4.0382    9.7690    3.8698 C.3       1 <0>         0.0354
     28 O4          0.7087    9.5215    3.3559 O.3       1 <0>        -0.3019
     29 C23        -0.5179    9.6149    2.6288 C.3       1 <0>         0.0241
     30 C24        -0.2219    1.2324    2.4312 C.2       1 <0>         0.5067
     31 O5          0.7745    0.5480    2.5293 O.2       1 <0>        -0.5236
     32 N3         -0.6984    1.5583    1.2133 N.am      1 <0>        -0.7120
     33 C25        -0.0127    1.0858    0.0080 C.3       1 <0>         0.1611
     34 C26        -0.7416    1.5850   -1.2129 C.ar      1 <0>        -0.1154
     35 C27        -1.7499    0.8246   -1.7750 C.ar      1 <0>        -0.0953
     36 C28        -2.4214    1.2846   -2.8923 C.ar      1 <0>        -0.1188
     37 C29        -2.0782    2.5005   -3.4532 C.ar      1 <0>        -0.1078
     38 C30        -1.0666    3.2587   -2.8939 C.ar      1 <0>        -0.1203
     39 C31        -0.3980    2.8008   -1.7740 C.ar      1 <0>        -0.0989
     40 H1          0.8793    2.5045    4.5423 H         1 <0>         0.0821
     41 H2         -0.4129    2.1579    5.7163 H         1 <0>         0.0825
     42 H3          0.5162    0.8219    4.9953 H         1 <0>         0.0946
     43 H4         -1.5963   -0.2990    4.0118 H         1 <0>         0.1141
     44 H5         -2.3635    0.9183    5.0606 H         1 <0>         0.1044
     45 H6         -3.4687   -1.9796    3.6494 H         1 <0>         0.1287
     46 H7         -5.3226   -3.2005    2.5710 H         1 <0>         0.1247
     47 H8         -6.8691   -2.0957    1.0566 H         1 <0>         0.1223
     48 H9         -6.6601    0.2950    0.5221 H         1 <0>         0.1347
     49 H10        -4.9990    2.6343    1.1036 H         1 <0>         0.1581
     50 H11        -1.4426    5.0216    4.1273 H         1 <0>         0.0945
     51 H12        -0.1968    3.9542    4.8179 H         1 <0>         0.0964
     52 H13         0.9605    3.8869    2.6259 H         1 <0>         0.0756
     53 H14        -0.2853    4.9542    1.9353 H         1 <0>         0.0840
     54 H15        -0.4086    7.2897    2.5655 H         1 <0>         0.1374
     55 H16         2.5710    4.7321    4.2287 H         1 <0>         0.1342
     56 H17         3.7392    4.7688    5.9658 H         1 <0>         0.0581
     57 H18         4.6508    4.8444    4.4388 H         1 <0>         0.0570
     58 H19         5.4274    5.3329    5.9641 H         1 <0>         0.1038
     59 H20         4.5034   10.6265    4.3561 H         1 <0>         0.0930
     60 H21         4.8004    9.0250    3.6382 H         1 <0>         0.0438
     61 H22         3.5542   10.0923    2.9483 H         1 <0>         0.0440
     62 H23        -0.7945   10.6632    2.5159 H         1 <0>         0.1039
     63 H24        -0.3919    9.1644    1.6443 H         1 <0>         0.0574
     64 H25        -1.3030    9.0884    3.1715 H         1 <0>         0.0596
     65 H26        -1.4954    2.1056    1.1349 H         1 <0>         0.4006
     66 H27         0.0021   -0.0041    0.0020 H         1 <0>         0.0786
     67 H28         1.0099    1.4631    0.0003 H         1 <0>         0.0791
     68 H29        -2.0153   -0.1273   -1.3392 H         1 <0>         0.1219
     69 H30        -3.2119    0.6923   -3.3291 H         1 <0>         0.1254
     70 H31        -2.6006    2.8583   -4.3281 H         1 <0>         0.1248
     71 H32        -0.7985    4.2087   -3.3321 H         1 <0>         0.1248
     72 H33         0.3925    3.3930   -1.3373 H         1 <0>         0.1216
@<TRIPOS>BOND
     1    1    2 1
     2    1   40 1
     3    1   41 1
     4    1   42 1
     5    2   15 1
     6    2    3 1
     7    2   30 1
     8    3    4 1
     9    3   43 1
    10    3   44 1
    11    4   12 1
    12    4    5 1
    13    5   10 ar
    14    5    6 ar
    15    6    7 ar
    16    6   45 1
    17    7    8 ar
    18    7   46 1
    19    8    9 ar
    20    8   47 1
    21    9   10 ar
    22    9   48 1
    23   10   11 1
    24   11   12 2
    25   11   49 1
    26   12   13 1
    27   13   14 2
    28   13   15 am
    29   15   16 1
    30   16   17 1
    31   16   50 1
    32   16   51 1
    33   17   18 1
    34   17   52 1
    35   17   53 1
    36   18   23 ar
    37   18   19 ar
    38   19   20 ar
    39   19   54 1
    40   20   21 ar
    41   20   28 1
    42   21   22 ar
    43   21   26 1
    44   22   23 ar
    45   22   24 1
    46   23   55 1
    47   24   25 1
    48   25   56 1
    49   25   57 1
    50   25   58 1
    51   26   27 1
    52   27   59 1
    53   27   60 1
    54   27   61 1
    55   28   29 1
    56   29   62 1
    57   29   63 1
    58   29   64 1
    59   30   31 2
    60   30   32 am
    61   32   33 1
    62   32   65 1
    63   33   34 1
    64   33   66 1
    65   33   67 1
    66   34   39 ar
    67   34   35 ar
    68   35   36 ar
    69   35   68 1
    70   36   37 ar
    71   36   69 1
    72   37   38 ar
    73   37   70 1
    74   38   39 ar
    75   38   71 1
    76   39   72 1
@<TRIPOS>MOLECULE
ZINC22398482
   71    73     0     0     0
SMALL
USER_CHARGES
N-[(1S)-1-(4-methoxyphenyl)-3-methyl-butyl]-2-[methylsulfonyl-[4-(morpholine-4-carbonyl)phenyl]amino]acetamide
@<TRIPOS>ATOM
      1 C1         -8.0503    3.9148   -5.3084 C.3       1 <0>        -0.1508
      2 C2         -8.2376    5.4317   -5.2390 C.3       1 <0>        -0.0942
      3 C3         -9.7294    5.7649   -5.3066 C.3       1 <0>        -0.1482
      4 C4         -7.6566    5.9578   -3.9250 C.3       1 <0>        -0.1194
      5 C5         -6.1425    5.7377   -3.9126 C.3       1 <0>         0.1918
      6 H1         -5.8958    4.6786   -4.0785 H         1 <0>         0.1016
      7 C6         -5.5030    6.5845   -4.9827 C.ar      1 <0>        -0.1237
      8 C7         -5.2804    7.9303   -4.7566 C.ar      1 <0>        -0.0746
      9 C8         -4.6892    8.7075   -5.7338 C.ar      1 <0>        -0.2037
     10 C9         -4.3295    8.1391   -6.9472 C.ar      1 <0>         0.1290
     11 C10        -4.5592    6.7898   -7.1736 C.ar      1 <0>        -0.1464
     12 C11        -5.1451    6.0156   -6.1910 C.ar      1 <0>        -0.0661
     13 O1         -3.7537    8.9029   -7.9125 O.3       1 <0>        -0.3169
     14 C12        -3.5475   10.2842   -7.6098 C.3       1 <0>         0.0233
     15 N1         -5.6047    6.1166   -2.6036 N.am      1 <0>        -0.7370
     16 C13        -5.5605    5.2118   -1.6057 C.2       1 <0>         0.5023
     17 O2         -5.8812    4.0612   -1.8157 O.2       1 <0>        -0.5219
     18 C14        -5.1124    5.6299   -0.2289 C.3       1 <0>         0.0984
     19 N2         -5.1520    4.4734    0.6696 N.pl3     1 <0>        -0.9314
     20 C15        -4.0707    3.6011    0.7280 C.ar      1 <0>         0.1542
     21 C16        -2.8223    4.0681    1.1297 C.ar      1 <0>        -0.1259
     22 C17        -1.7503    3.2073    1.1884 C.ar      1 <0>        -0.0568
     23 C18        -1.9159    1.8626    0.8443 C.ar      1 <0>        -0.1274
     24 C19        -3.1695    1.3979    0.4358 C.ar      1 <0>        -0.0981
     25 C20        -4.2390    2.2623    0.3850 C.ar      1 <0>        -0.0886
     26 C21        -0.7688    0.9370    0.9063 C.2       1 <0>         0.5633
     27 O3          0.0870    1.0857    1.7572 O.2       1 <0>        -0.5316
     28 N3         -0.6723   -0.0766    0.0233 N.am      1 <0>        -0.6098
     29 C22        -1.7352   -0.3254   -0.9635 C.3       1 <0>         0.0353
     30 C23        -1.0837   -0.4402   -2.3509 C.3       1 <0>         0.0456
     31 O4         -0.0305   -1.4054   -2.2960 O.3       1 <0>        -0.3776
     32 C24         1.0366   -1.0575   -1.4105 C.3       1 <0>         0.0468
     33 C25         0.4963   -0.9709    0.0215 C.3       1 <0>         0.0746
     34 S1         -6.4843    4.2051    1.6157 S.o2      1 <0>         2.6002
     35 O5         -7.5334    4.9182    0.9752 O.2       1 <0>        -0.9411
     36 O6         -6.5498    2.7928    1.7577 O.2       1 <0>        -0.9355
     37 C26        -6.0873    4.9756    3.2093 C.3       1 <0>        -0.6749
     38 H2         -6.9778    3.6752   -5.2598 H         1 <0>         0.0548
     39 H3         -8.4681    3.5366   -6.2531 H         1 <0>         0.0543
     40 H4         -8.5704    3.4421   -4.4622 H         1 <0>         0.0570
     41 H5         -7.7175    5.9045   -6.0852 H         1 <0>         0.0736
     42 H6         -9.8641    6.8555   -5.2567 H         1 <0>         0.0530
     43 H7        -10.2494    5.2921   -4.4604 H         1 <0>         0.0551
     44 H8        -10.1471    5.3867   -6.2513 H         1 <0>         0.0554
     45 H9         -7.8717    7.0327   -3.8333 H         1 <0>         0.0659
     46 H10        -8.1124    5.4194   -3.0810 H         1 <0>         0.0729
     47 H11        -5.5652    8.3734   -3.8138 H         1 <0>         0.1233
     48 H12        -4.5111    9.7576   -5.5549 H         1 <0>         0.1293
     49 H13        -4.2804    6.3451   -8.1175 H         1 <0>         0.1326
     50 H14        -5.3241    4.9652   -6.3668 H         1 <0>         0.1306
     51 H15        -3.0777   10.7821   -8.4708 H         1 <0>         0.1030
     52 H16        -2.8910   10.3731   -6.7317 H         1 <0>         0.0569
     53 H17        -4.5152   10.7606   -7.3939 H         1 <0>         0.0573
     54 H18        -5.2370    7.1396   -2.4352 H         1 <0>         0.4163
     55 H19        -4.0849    6.0194   -0.2802 H         1 <0>         0.1160
     56 H20        -5.7831    6.4139    0.1527 H         1 <0>         0.1218
     57 H21        -2.6950    5.1071    1.3957 H         1 <0>         0.1367
     58 H22        -0.7821    3.5702    1.5005 H         1 <0>         0.1385
     59 H23        -3.2995    0.3606    0.1647 H         1 <0>         0.1503
     60 H24        -5.2089    1.9028    0.0745 H         1 <0>         0.1482
     61 H25        -2.2573   -1.2604   -0.7121 H         1 <0>         0.0856
     62 H26        -2.4512    0.5095   -0.9496 H         1 <0>         0.1260
     63 H27        -1.8385   -0.7581   -3.0852 H         1 <0>         0.1106
     64 H28        -0.6742    0.5373   -2.6457 H         1 <0>         0.0579
     65 H29         1.8217   -1.8262   -1.4627 H         1 <0>         0.1106
     66 H30         1.4559   -0.0844   -1.7061 H         1 <0>         0.0573
     67 H31         1.2690   -0.5659    0.6915 H         1 <0>         0.1048
     68 H32         0.1945   -1.9693    0.3710 H         1 <0>         0.0799
     69 H33        -6.9308    4.8403    3.9022 H         1 <0>         0.1351
     70 H34        -5.9030    6.0499    3.0613 H         1 <0>         0.1315
     71 H35        -5.1874    4.5038    3.6306 H         1 <0>         0.1331
@<TRIPOS>BOND
     1    1    2 1
     2    1   38 1
     3    1   39 1
     4    1   40 1
     5    2    3 1
     6    2    4 1
     7    2   41 1
     8    3   42 1
     9    3   43 1
    10    3   44 1
    11    4    5 1
    12    4   45 1
    13    4   46 1
    14    5    6 1
    15    5    7 1
    16    5   15 1
    17    7   12 ar
    18    7    8 ar
    19    8    9 ar
    20    8   47 1
    21    9   10 ar
    22    9   48 1
    23   10   11 ar
    24   10   13 1
    25   11   12 ar
    26   11   49 1
    27   12   50 1
    28   13   14 1
    29   14   51 1
    30   14   52 1
    31   14   53 1
    32   15   16 am
    33   15   54 1
    34   16   17 2
    35   16   18 1
    36   18   19 1
    37   18   55 1
    38   18   56 1
    39   19   20 1
    40   19   34 1
    41   20   25 ar
    42   20   21 ar
    43   21   22 ar
    44   21   57 1
    45   22   23 ar
    46   22   58 1
    47   23   24 ar
    48   23   26 1
    49   24   25 ar
    50   24   59 1
    51   25   60 1
    52   26   27 2
    53   26   28 am
    54   28   33 1
    55   28   29 1
    56   29   30 1
    57   29   61 1
    58   29   62 1
    59   30   31 1
    60   30   63 1
    61   30   64 1
    62   31   32 1
    63   32   33 1
    64   32   65 1
    65   32   66 1
    66   33   67 1
    67   33   68 1
    68   34   35 2
    69   34   36 2
    70   34   37 1
    71   37   69 1
    72   37   70 1
    73   37   71 1
@<TRIPOS>MOLECULE
ZINC36538529
   64    67     0     0     0
SMALL
USER_CHARGES

@<TRIPOS>ATOM
      1 C1         -2.1545    1.0346    2.6907 C.3       1 <0>        -0.1266
      2 C2         -1.8392   -0.3795    2.2760 C.ar      1 <0>        -0.0281
      3 C3         -2.0541   -0.7812    0.9709 C.ar      1 <0>        -0.1418
      4 C4         -1.7650   -2.0784    0.5905 C.ar      1 <0>        -0.0209
      5 C5         -1.2605   -2.9736    1.5151 C.ar      1 <0>        -0.6650
      6 C6         -1.0447   -2.5716    2.8200 C.ar      1 <0>        -0.0157
      7 C7         -1.3298   -1.2733    3.1993 C.ar      1 <0>        -0.1401
      8 S1         -0.8930   -4.6273    1.0305 S.o2      1 <0>         2.4642
      9 O1         -1.0067   -5.3889    2.2248 O.2       1 <0>        -0.9192
     10 O2         -1.7499   -4.8803   -0.0744 O.2       1 <0>        -0.9353
     11 C8          0.8356   -4.5793    0.4823 C.3       1 <0>        -0.3492
     12 N1          1.6996   -4.2532    1.6195 N.am      1 <0>        -0.6933
     13 C9          2.2993   -5.2397    2.3149 C.2       1 <0>         0.5380
     14 O3          2.2021   -6.3898    1.9424 O.2       1 <0>        -0.5107
     15 C10         3.0906   -4.9138    3.5554 C.3       1 <0>         0.1829
     16 H1          2.5506   -4.1745    4.1470 H         1 <0>         0.1327
     17 C11         4.4349   -4.3577    3.1620 C.ar      1 <0>        -0.1457
     18 C12         5.3282   -3.9062    4.1473 C.ar      1 <0>         0.0082
     19 C13         4.9962   -3.9604    5.5123 C.ar      1 <0>        -0.1228
     20 C14         5.8863   -3.5145    6.4400 C.ar      1 <0>        -0.0946
     21 C15         7.1253   -3.0031    6.0579 C.ar      1 <0>        -0.1243
     22 C16         7.4811   -2.9353    4.7460 C.ar      1 <0>        -0.0916
     23 C17         6.5885   -3.3867    3.7589 C.ar      1 <0>        -0.0832
     24 C18         6.9226   -3.3323    2.3943 C.ar      1 <0>        -0.0477
     25 C19         6.0357   -3.7774    1.4646 C.ar      1 <0>        -0.1917
     26 C20         4.7937   -4.2951    1.8458 C.ar      1 <0>         0.1485
     27 O4          3.9309   -4.7374    0.8938 O.3       1 <0>        -0.3041
     28 C21         4.4026   -4.7477   -0.4551 C.3       1 <0>         0.0266
     29 N2          3.2787   -6.1310    4.3485 N.am      1 <0>        -0.5832
     30 C22         4.1019   -7.2250    3.8271 C.3       1 <0>         0.0788
     31 C23         2.6946   -6.2445    5.5577 C.2       1 <0>         0.5704
     32 O5          1.9439   -5.3745    5.9541 O.2       1 <0>        -0.5242
     33 C24         2.9668   -7.4270    6.4022 C.ar      1 <0>        -0.1849
     34 C25         4.2285   -8.0342    6.3915 C.ar      1 <0>        -0.0465
     35 C26         4.4318   -9.1381    7.2005 C.ar      1 <0>        -0.1800
     36 C27         3.3922   -9.6022    7.9866 C.ar      1 <0>         0.1238
     37 N3          2.2135   -9.0097    7.9762 N.ar      1 <0>        -0.4853
     38 C28         1.9726   -7.9533    7.2276 C.ar      1 <0>         0.1607
     39 H2         -1.2756    1.6617    2.5408 H         1 <0>         0.0798
     40 H3         -2.9791    1.4148    2.0877 H         1 <0>         0.0733
     41 H4         -2.4367    1.0502    3.7434 H         1 <0>         0.0738
     42 H5         -2.4483   -0.0818    0.2485 H         1 <0>         0.1329
     43 H6         -1.9335   -2.3924   -0.4290 H         1 <0>         0.1409
     44 H7         -0.6508   -3.2712    3.5424 H         1 <0>         0.1417
     45 H8         -1.1578   -0.9581    4.2179 H         1 <0>         0.1339
     46 H9          1.1164   -5.5526    0.0801 H         1 <0>         0.1556
     47 H10         0.9505   -3.8197   -0.2909 H         1 <0>         0.1413
     48 H11         1.8401   -3.3272    1.8720 H         1 <0>         0.4101
     49 H12         4.0394   -4.3534    5.8229 H         1 <0>         0.1299
     50 H13         5.6287   -3.5572    7.4880 H         1 <0>         0.1246
     51 H14         7.8133   -2.6552    6.8142 H         1 <0>         0.1252
     52 H15         8.4445   -2.5362    4.4649 H         1 <0>         0.1289
     53 H16         7.8797   -2.9383    2.0858 H         1 <0>         0.1352
     54 H17         6.2956   -3.7338    0.4172 H         1 <0>         0.1353
     55 H18         4.7511   -3.7510   -0.7257 H         1 <0>         0.0592
     56 H19         5.2248   -5.4574   -0.5470 H         1 <0>         0.0586
     57 H20         3.5919   -5.0425   -1.1213 H         1 <0>         0.1007
     58 H21         5.1208   -7.1230    4.2008 H         1 <0>         0.0562
     59 H22         3.6885   -8.1789    4.1549 H         1 <0>         0.0755
     60 H23         4.1089   -7.1872    2.7378 H         1 <0>         0.0891
     61 H24         5.0223   -7.6510    5.7675 H         1 <0>         0.1472
     62 H25         5.3918   -9.6324    7.2179 H         1 <0>         0.1430
     63 H26         3.5480  -10.4638    8.6188 H         1 <0>         0.1622
     64 H27         0.9959   -7.4929    7.2498 H         1 <0>         0.1667
@<TRIPOS>BOND
     1    1    2 1
     2    1   39 1
     3    1   40 1
     4    1   41 1
     5    2    7 ar
     6    2    3 ar
     7    3    4 ar
     8    3   42 1
     9    4    5 ar
    10    4   43 1
    11    5    6 ar
    12    5    8 1
    13    6    7 ar
    14    6   44 1
    15    7   45 1
    16    8    9 2
    17    8   10 2
    18    8   11 1
    19   11   12 1
    20   11   46 1
    21   11   47 1
    22   12   13 am
    23   12   48 1
    24   13   14 2
    25   13   15 1
    26   15   16 1
    27   15   17 1
    28   15   29 1
    29   17   26 ar
    30   17   18 ar
    31   18   23 ar
    32   18   19 ar
    33   19   20 ar
    34   19   49 1
    35   20   21 ar
    36   20   50 1
    37   21   22 ar
    38   21   51 1
    39   22   23 ar
    40   22   52 1
    41   23   24 ar
    42   24   25 ar
    43   24   53 1
    44   25   26 ar
    45   25   54 1
    46   26   27 1
    47   27   28 1
    48   28   55 1
    49   28   56 1
    50   28   57 1
    51   29   30 1
    52   29   31 am
    53   30   58 1
    54   30   59 1
    55   30   60 1
    56   31   32 2
    57   31   33 1
    58   33   38 ar
    59   33   34 ar
    60   34   35 ar
    61   34   61 1
    62   35   36 ar
    63   35   62 1
    64   36   37 ar
    65   36   63 1
    66   37   38 ar
    67   38   64 1
@<TRIPOS>MOLECULE
ZINC39974518
   76    79     0     0     0
SMALL
USER_CHARGES

@<TRIPOS>ATOM
      1 C1         -0.1092    1.1195   -0.3241 C.3       1 <0>        -0.1697
      2 C2         -0.3290   -0.3052    0.1886 C.3       1 <0>         0.1275
      3 N1          0.1183   -0.3979    1.5805 N.pl3     1 <0>        -0.3675
      4 C3          1.3617   -0.7193    1.9951 C.2       1 <0>         0.1111
      5 C4          1.3645   -0.6950    3.3480 C.2       1 <0>        -0.2408
      6 C5          0.0789   -0.3468    3.7749 C.2       1 <0>         0.0802
      7 N2         -0.6674   -0.1625    2.7161 N.2       1 <0>        -0.2931
      8 C6         -0.3678   -0.2020    5.2069 C.3       1 <0>        -0.0786
      9 C7          2.5442   -0.9915    4.2377 C.3       1 <0>         0.1396
     10 N3          3.2827    0.2505    4.5020 N.3       1 <0>        -0.5332
     11 C8          2.4703    1.1889    5.2878 C.3       1 <0>         0.0416
     12 C9          3.2006    2.5325    5.3869 C.3       1 <0>         0.0923
     13 N4          4.5535    2.2914    5.9109 N.pl3     1 <0>        -0.5206
     14 C10         5.3797    1.2642    5.2583 C.3       1 <0>         0.0876
     15 C11         4.5636   -0.0294    5.1643 C.3       1 <0>         0.0428
     16 C12         5.0240    2.9933    6.9608 C.2       1 <0>         0.5561
     17 S1          4.0955    4.2708    7.6216 S.2       1 <0>        -0.5534
     18 N5          6.2255    2.6895    7.4906 N.pl3     1 <0>        -0.6940
     19 C13         7.3966    3.1415    6.8732 C.ar      1 <0>         0.2466
     20 C14         7.3226    4.0077    5.7902 C.ar      1 <0>        -0.1910
     21 C15         8.4807    4.4525    5.1832 C.ar      1 <0>         0.0213
     22 C16         9.7130    4.0360    5.6525 C.ar      1 <0>        -0.7118
     23 C17         9.7901    3.1736    6.7307 C.ar      1 <0>         0.0245
     24 C18         8.6359    2.7296    7.3457 C.ar      1 <0>        -0.1866
     25 S2         11.1880    4.6049    4.8745 S.o2      1 <0>         2.6919
     26 O1         12.1439    3.5615    5.0040 O.2       1 <0>        -0.9609
     27 O2         10.8038    5.1338    3.6129 O.2       1 <0>        -0.9538
     28 N6         11.7535    5.8785    5.7693 N.pl3     1 <0>        -0.9879
     29 C19        12.8474    5.6899    6.7319 C.3       1 <0>         0.1408
     30 H1         13.2430    4.6782    6.6418 H         1 <0>         0.1045
     31 C20        13.9544    6.7034    6.4250 C.3       1 <0>        -0.1261
     32 C21        13.3610    8.1140    6.4164 C.3       1 <0>        -0.1208
     33 C22        12.2967    8.2149    5.3213 C.3       1 <0>        -0.1278
     34 C23        11.1750    7.2198    5.6112 C.3       1 <0>         0.1533
     35 H2         10.6636    7.5077    6.5297 H         1 <0>         0.0768
     36 C24        10.1820    7.2162    4.4473 C.3       1 <0>        -0.1896
     37 C25        12.3244    5.9116    8.1525 C.3       1 <0>        -0.1663
     38 C26         2.5364   -1.0471    1.1099 C.3       1 <0>        -0.0907
     39 H3          0.9508    1.3670   -0.2658 H         1 <0>         0.0612
     40 H4         -0.4420    1.1884   -1.3597 H         1 <0>         0.0782
     41 H5         -0.6796    1.8180    0.2882 H         1 <0>         0.0655
     42 H6         -1.3889   -0.5528    0.1304 H         1 <0>         0.0954
     43 H7          0.2414   -1.0037   -0.4236 H         1 <0>         0.0927
     44 H8         -0.2126    0.8262    5.5337 H         1 <0>         0.0778
     45 H9         -1.4259   -0.4521    5.2845 H         1 <0>         0.0752
     46 H10         0.2120   -0.8753    5.8382 H         1 <0>         0.0737
     47 H11         2.1922   -1.4124    5.1795 H         1 <0>         0.0440
     48 H12         3.2014   -1.7068    3.7432 H         1 <0>         0.0817
     49 H13         1.5070    1.3337    4.7989 H         1 <0>         0.1052
     50 H14         2.3140    0.7853    6.2881 H         1 <0>         0.0441
     51 H15         3.2664    2.9873    4.3985 H         1 <0>         0.0949
     52 H16         2.6589    3.1946    6.0624 H         1 <0>         0.1312
     53 H17         5.6549    1.5971    4.2575 H         1 <0>         0.0980
     54 H18         6.2787    1.0879    5.8488 H         1 <0>         0.0959
     55 H19         4.3781   -0.4161    6.1663 H         1 <0>         0.0430
     56 H20         5.1184   -0.7681    4.5858 H         1 <0>         0.0976
     57 H21         6.2782    2.1574    8.2999 H         1 <0>         0.4292
     58 H22         6.3605    4.3329    5.4227 H         1 <0>         0.1294
     59 H23         8.4238    5.1261    4.3409 H         1 <0>         0.1486
     60 H24        10.7540    2.8501    7.0948 H         1 <0>         0.1419
     61 H25         8.6969    2.0593    8.1903 H         1 <0>         0.1378
     62 H26        14.7287    6.6391    7.1896 H         1 <0>         0.0770
     63 H27        14.3874    6.4849    5.4489 H         1 <0>         0.0688
     64 H28        12.9064    8.3227    7.3849 H         1 <0>         0.0674
     65 H29        14.1513    8.8393    6.2226 H         1 <0>         0.0662
     66 H30        11.8911    9.2264    5.3002 H         1 <0>         0.0759
     67 H31        12.7453    7.9821    4.3555 H         1 <0>         0.0704
     68 H32         9.4787    6.3928    4.5722 H         1 <0>         0.0600
     69 H33         9.6371    8.1601    4.4316 H         1 <0>         0.0722
     70 H34        10.7225    7.0930    3.5088 H         1 <0>         0.0989
     71 H35        11.5294    5.1961    8.3627 H         1 <0>         0.0575
     72 H36        13.1373    5.7712    8.8650 H         1 <0>         0.0694
     73 H37        11.9339    6.9253    8.2419 H         1 <0>         0.0651
     74 H38         3.0829   -0.1330    0.8781 H         1 <0>         0.0833
     75 H39         3.1967   -1.7443    1.6258 H         1 <0>         0.0837
     76 H40         2.1793   -1.5012    0.1856 H         1 <0>         0.0681
@<TRIPOS>BOND
     1    1    2 1
     2    1   39 1
     3    1   40 1
     4    1   41 1
     5    2    3 1
     6    2   42 1
     7    2   43 1
     8    3    7 1
     9    3    4 1
    10    4    5 2
    11    4   38 1
    12    5    6 1
    13    5    9 1
    14    6    7 2
    15    6    8 1
    16    8   44 1
    17    8   45 1
    18    8   46 1
    19    9   10 1
    20    9   47 1
    21    9   48 1
    22   10   15 1
    23   10   11 1
    24   11   12 1
    25   11   49 1
    26   11   50 1
    27   12   13 1
    28   12   51 1
    29   12   52 1
    30   13   14 1
    31   13   16 1
    32   14   15 1
    33   14   53 1
    34   14   54 1
    35   15   55 1
    36   15   56 1
    37   16   17 2
    38   16   18 1
    39   18   19 1
    40   18   57 1
    41   19   24 ar
    42   19   20 ar
    43   20   21 ar
    44   20   58 1
    45   21   22 ar
    46   21   59 1
    47   22   23 ar
    48   22   25 1
    49   23   24 ar
    50   23   60 1
    51   24   61 1
    52   25   26 2
    53   25   27 2
    54   25   28 1
    55   28   34 1
    56   28   29 1
    57   29   30 1
    58   29   31 1
    59   29   37 1
    60   31   32 1
    61   31   62 1
    62   31   63 1
    63   32   33 1
    64   32   64 1
    65   32   65 1
    66   33   34 1
    67   33   66 1
    68   33   67 1
    69   34   35 1
    70   34   36 1
    71   36   68 1
    72   36   69 1
    73   36   70 1
    74   37   71 1
    75   37   72 1
    76   37   73 1
    77   38   74 1
    78   38   75 1
    79   38   76 1
@<TRIPOS>MOLECULE
ZINC05170405
   39    42     0     0     0
SMALL
USER_CHARGES
3-[[5-(3-chlorophenyl)-1,3,4-oxadiazol-2-yl]sulfanylmethyl]-7,8-dimethyl-9-thia-2,4-diazabicyclo[4.3.0]nona-2,7,10-trien-5-one
@<TRIPOS>ATOM
      1 C1          4.9438   -0.3167   -0.0475 C.3       1 <0>        -0.1059
      2 C2          3.5513   -0.8926   -0.0367 C.2       1 <0>        -0.0634
      3 C3          3.3661   -2.2224   -0.0421 C.2       1 <0>        -0.1589
      4 S1          1.5914   -2.3922   -0.0260 S.3       1 <0>         0.1549
      5 C4          1.1510   -0.6734   -0.0126 C.2       1 <0>         0.1005
      6 C5          2.3947   -0.0166   -0.0210 C.2       1 <0>        -0.2359
      7 C6          2.3388    1.4154   -0.0123 C.2       1 <0>         0.5607
      8 O1          3.3638    2.0750   -0.0182 O.2       1 <0>        -0.5119
      9 N1          1.1365    2.0204    0.0021 N.am      1 <0>        -0.6301
     10 H1          1.0908    3.0193    0.0077 H         1 <0>         0.4316
     11 C7         -0.0156    1.3019    0.0092 C.2       1 <0>         0.4222
     12 N2          0.0021   -0.0041    0.0020 N.2       1 <0>        -0.4818
     13 C8         -1.3383    2.0241    0.0194 C.3       1 <0>        -0.0995
     14 S2         -2.6857    0.8156    0.0191 S.3       1 <0>         0.1828
     15 C9         -4.0720    1.9030    0.0316 C.2       1 <0>         0.1144
     16 N3         -4.0302    3.2154    0.0443 N.2       1 <0>        -0.2869
     17 N4         -5.2292    3.6819    0.0475 N.2       1 <0>        -0.2578
     18 C10        -6.0835    2.6879    0.0458 C.2       1 <0>         0.2151
     19 O2         -5.3690    1.5407    0.0357 O.3       1 <0>        -0.1954
     20 C11        -7.5567    2.8007    0.0540 C.ar      1 <0>        -0.0148
     21 C12        -8.3481    1.6503    0.0458 C.ar      1 <0>        -0.0782
     22 C13        -9.7228    1.7620    0.0589 C.ar      1 <0>        -0.1047
     23 C14       -10.3188    3.0107    0.0694 C.ar      1 <0>        -0.0824
     24 C15        -9.5406    4.1559    0.0718 C.ar      1 <0>        -0.0376
     25 C16        -8.1633    4.0578    0.0642 C.ar      1 <0>        -0.0591
     26 Cl1       -10.2979    5.7179    0.0839 Cl        1 <0>        -0.0510
     27 C17         4.4085   -3.3106   -0.0583 C.3       1 <0>        -0.0676
     28 H2          5.2692   -0.1718   -1.0776 H         1 <0>         0.0732
     29 H3          4.9447    0.6416    0.4720 H         1 <0>         0.0827
     30 H4          5.6248   -1.0032    0.4555 H         1 <0>         0.0686
     31 H5         -1.4067    2.6444    0.9131 H         1 <0>         0.1440
     32 H6         -1.4151    2.6541   -0.8669 H         1 <0>         0.1440
     33 H7         -7.8846    0.6749    0.0335 H         1 <0>         0.1407
     34 H8        -10.3356    0.8726    0.0568 H         1 <0>         0.1461
     35 H9        -11.3957    3.0924    0.0755 H         1 <0>         0.1441
     36 H10        -7.5569    4.9515    0.0664 H         1 <0>         0.1515
     37 H11         3.9177   -4.2839   -0.0588 H         1 <0>         0.0765
     38 H12         5.0220   -3.2127   -0.9539 H         1 <0>         0.0845
     39 H13         5.0397   -3.2224    0.8259 H         1 <0>         0.0848
@<TRIPOS>BOND
     1    1    2 1
     2    1   28 1
     3    1   29 1
     4    1   30 1
     5    2    6 1
     6    2    3 2
     7    3    4 1
     8    3   27 1
     9    4    5 1
    10    5   12 1
    11    5    6 2
    12    6    7 1
    13    7    8 2
    14    7    9 am
    15    9   10 1
    16    9   11 1
    17   11   12 2
    18   11   13 1
    19   13   14 1
    20   13   31 1
    21   13   32 1
    22   14   15 1
    23   15   19 1
    24   15   16 2
    25   16   17 1
    26   17   18 2
    27   18   19 1
    28   18   20 1
    29   20   25 ar
    30   20   21 ar
    31   21   22 ar
    32   21   33 1
    33   22   23 ar
    34   22   34 1
    35   23   24 ar
    36   23   35 1
    37   24   25 ar
    38   24   26 1
    39   25   36 1
    40   27   37 1
    41   27   38 1
    42   27   39 1
@<TRIPOS>MOLECULE
ZINC12055029
   52    57     0     0     0
SMALL
USER_CHARGES
N-(1-adamantyl)-3-(tetrazol-1-yl)-5-(2-thienyl)benzamide
@<TRIPOS>ATOM
      1 C1         -4.6206   10.4683   -5.0692 C.2       1 <0>        -0.1607
      2 C2         -4.0709    9.5746   -4.1761 C.2       1 <0>        -0.1260
      3 C3         -3.4305   10.0611   -3.0681 C.2       1 <0>        -0.1348
      4 S1         -3.5930   11.8246   -3.2942 S.3       1 <0>         0.0727
      5 C4         -4.5014   11.7996   -4.8308 C.2       1 <0>        -0.1603
      6 C5         -2.7705    9.3191   -1.9726 C.ar      1 <0>         0.0251
      7 C6         -2.7492    7.9256   -1.9875 C.ar      1 <0>        -0.0352
      8 C7         -2.1318    7.2307   -0.9496 C.ar      1 <0>        -0.0990
      9 C8         -1.5272    7.9320    0.0949 C.ar      1 <0>        -0.0932
     10 C9         -1.5447    9.3183    0.1028 C.ar      1 <0>         0.1394
     11 C10        -2.1632   10.0133   -0.9255 C.ar      1 <0>        -0.0736
     12 N1         -0.9356   10.0198    1.1542 N.pl3     1 <0>        -0.3318
     13 C11        -0.2163    9.5054    2.1751 C.2       1 <0>         0.2284
     14 N2          0.1650   10.5066    2.9245 N.2       1 <0>        -0.3230
     15 N3         -0.2642   11.6188    2.4470 N.2       1 <0>        -0.0266
     16 N4         -0.9378   11.4096    1.3675 N.2       1 <0>        -0.0702
     17 C12        -2.1118    5.7520   -0.9578 C.2       1 <0>         0.5647
     18 O1         -2.6385    5.1421   -1.8677 O.2       1 <0>        -0.5156
     19 N5         -1.5095    5.0807    0.0438 N.am      1 <0>        -0.7186
     20 C13        -1.4896    3.6159    0.0357 C.3       1 <0>         0.1842
     21 C14        -0.7734    3.1225   -1.2231 C.3       1 <0>        -0.1225
     22 C15        -0.7527    1.5927   -1.2315 C.3       1 <0>        -0.0824
     23 C16        -0.0127    1.0858    0.0080 C.3       1 <0>        -0.1121
     24 C17        -0.7288    1.5792    1.2668 C.3       1 <0>        -0.0802
     25 C18        -0.7496    3.1091    1.2752 C.3       1 <0>        -0.1158
     26 C19        -2.1642    1.0497    1.2777 C.3       1 <0>        -0.1122
     27 C20        -2.9042    1.5565    0.0381 C.3       1 <0>        -0.0824
     28 C21        -2.1881    1.0631   -1.2207 C.3       1 <0>        -0.1101
     29 C22        -2.9250    3.0863    0.0466 C.3       1 <0>        -0.1227
     30 H1         -5.1355   10.1144   -5.9501 H         1 <0>         0.1407
     31 H2         -4.1464    8.5107   -4.3453 H         1 <0>         0.1399
     32 H3         -4.8626   12.6298   -5.4196 H         1 <0>         0.1913
     33 H4         -3.2139    7.3858   -2.7993 H         1 <0>         0.1538
     34 H5         -1.0449    7.3941    0.8976 H         1 <0>         0.1399
     35 H6         -2.1752   11.0932   -0.9158 H         1 <0>         0.1496
     36 H7          0.0034    8.4612    2.3412 H         1 <0>         0.2400
     37 H8         -1.0891    5.5675    0.7699 H         1 <0>         0.3968
     38 H9          0.2491    3.4998   -1.2308 H         1 <0>         0.0609
     39 H10        -1.3006    3.4836   -2.1062 H         1 <0>         0.0861
     40 H11        -0.2425    1.2411   -2.1283 H         1 <0>         0.0733
     41 H12         0.0021   -0.0041    0.0020 H         1 <0>         0.0658
     42 H13         1.0099    1.4631    0.0003 H         1 <0>         0.0629
     43 H14        -0.2017    1.2182    2.1499 H         1 <0>         0.0763
     44 H15        -1.2598    3.4606    2.1720 H         1 <0>         0.0696
     45 H16         0.2730    3.4864    1.2675 H         1 <0>         0.0696
     46 H17        -2.6744    1.4012    2.1745 H         1 <0>         0.0629
     47 H18        -2.1494   -0.0402    1.2717 H         1 <0>         0.0658
     48 H19        -3.9268    1.1792    0.0459 H         1 <0>         0.0733
     49 H20        -2.7153    1.4241   -2.1037 H         1 <0>         0.0653
     50 H21        -2.1733   -0.0268   -1.2266 H         1 <0>         0.0636
     51 H22        -3.4522    3.4474   -0.8365 H         1 <0>         0.0861
     52 H23        -3.4352    3.4378    0.9434 H         1 <0>         0.0608
@<TRIPOS>BOND
     1    1    5 2
     2    1    2 1
     3    1   30 1
     4    2    3 2
     5    2   31 1
     6    3    4 1
     7    3    6 1
     8    4    5 1
     9    5   32 1
    10    6   11 ar
    11    6    7 ar
    12    7    8 ar
    13    7   33 1
    14    8    9 ar
    15    8   17 1
    16    9   10 ar
    17    9   34 1
    18   10   11 ar
    19   10   12 1
    20   11   35 1
    21   12   16 1
    22   12   13 1
    23   13   14 2
    24   13   36 1
    25   14   15 1
    26   15   16 2
    27   17   18 2
    28   17   19 am
    29   19   20 1
    30   19   37 1
    31   20   25 1
    32   20   29 1
    33   20   21 1
    34   21   22 1
    35   21   38 1
    36   21   39 1
    37   22   28 1
    38   22   23 1
    39   22   40 1
    40   23   24 1
    41   23   41 1
    42   23   42 1
    43   24   25 1
    44   24   26 1
    45   24   43 1
    46   25   44 1
    47   25   45 1
    48   26   27 1
    49   26   46 1
    50   26   47 1
    51   27   28 1
    52   27   29 1
    53   27   48 1
    54   28   49 1
    55   28   50 1
    56   29   51 1
    57   29   52 1
@<TRIPOS>MOLECULE
ZINC27526357
   59    62     0     0     0
SMALL
USER_CHARGES
1-(2,3-dimethylphenyl)-3-(p-tolyl)-1-(6,7,8,9-tetrahydro-5H-[1,2,4]triazolo[4,5-a]azepin-3-ylmethyl)urea
@<TRIPOS>ATOM
      1 C1          0.7507    7.9212    5.4495 C.3       1 <0>        -0.1149
      2 C2          0.2900    6.6597    4.7657 C.ar      1 <0>        -0.1050
      3 C3         -1.0172    6.2332    4.9128 C.ar      1 <0>        -0.0994
      4 C4         -1.4425    5.0776    4.2875 C.ar      1 <0>        -0.1460
      5 C5         -0.5561    4.3439    3.5100 C.ar      1 <0>         0.1662
      6 C6          0.7572    4.7723    3.3682 C.ar      1 <0>        -0.1175
      7 C7          1.1751    5.9314    3.9922 C.ar      1 <0>        -0.0990
      8 N1         -0.9838    3.1723    2.8755 N.am      1 <0>        -0.6922
      9 C8         -0.4653    2.8251    1.6809 C.2       1 <0>         0.7145
     10 O1          0.3011    3.5763    1.1093 O.2       1 <0>        -0.5442
     11 N2         -0.7962    1.6451    1.1200 N.am      1 <0>        -0.5761
     12 C9         -0.2325    1.2677   -0.1785 C.3       1 <0>         0.2217
     13 C10        -1.1364    1.7581   -1.2802 C.2       1 <0>         0.1491
     14 N3         -1.0700    2.9169   -1.8806 N.2       1 <0>        -0.2582
     15 N4         -1.9935    2.9963   -2.7742 N.2       1 <0>        -0.2910
     16 C11        -2.6849    1.8924   -2.7855 C.2       1 <0>         0.1828
     17 N5         -2.1642    1.0797   -1.8368 N.pl3     1 <0>        -0.4589
     18 C12        -2.6367   -0.2586   -1.4811 C.3       1 <0>         0.0946
     19 C13        -3.2911   -0.9077   -2.7037 C.3       1 <0>        -0.1416
     20 C14        -4.7783   -0.5584   -2.7389 C.3       1 <0>        -0.1250
     21 C15        -4.9703    0.9505   -2.8571 C.3       1 <0>        -0.1269
     22 C16        -3.8412    1.5516   -3.6894 C.3       1 <0>        -0.0403
     23 C17        -1.6782    0.7806    1.7778 C.ar      1 <0>         0.1077
     24 C18        -1.1887   -0.1737    2.6603 C.ar      1 <0>        -0.1093
     25 C19        -2.0617   -1.0255    3.3079 C.ar      1 <0>        -0.1108
     26 C20        -3.4221   -0.9293    3.0781 C.ar      1 <0>        -0.1030
     27 C21        -3.9125    0.0196    2.2003 C.ar      1 <0>        -0.0786
     28 C22        -3.0450    0.8786    1.5541 C.ar      1 <0>        -0.0753
     29 C23        -3.5809    1.9167    0.6021 C.3       1 <0>        -0.1519
     30 C24        -5.3956    0.1209    1.9529 C.3       1 <0>        -0.1303
     31 H1         -0.0858    8.3585    6.0143 H         1 <0>         0.0640
     32 H2          1.0995    8.6411    4.6945 H         1 <0>         0.0689
     33 H3          1.5747    7.6847    6.1388 H         1 <0>         0.0684
     34 H4         -1.7061    6.8042    5.5176 H         1 <0>         0.1244
     35 H5         -2.4636    4.7450    4.4028 H         1 <0>         0.1213
     36 H6          1.4501    4.2018    2.7676 H         1 <0>         0.1343
     37 H7          2.1953    6.2674    3.8790 H         1 <0>         0.1243
     38 H8         -1.7432    2.5347    3.3517 H         1 <0>         0.4261
     39 H9          0.7631    1.7214   -0.2918 H         1 <0>         0.1282
     40 H10        -0.1451    0.1727   -0.2360 H         1 <0>         0.0992
     41 H11        -1.7856   -0.8721   -1.1506 H         1 <0>         0.0933
     42 H12        -3.3725   -0.1833   -0.6669 H         1 <0>         0.0972
     43 H13        -2.8077   -0.5358   -3.6191 H         1 <0>         0.0830
     44 H14        -3.1746   -2.0000   -2.6454 H         1 <0>         0.0901
     45 H15        -5.2494   -1.0473   -3.6044 H         1 <0>         0.0760
     46 H16        -5.2591   -0.9083   -1.8135 H         1 <0>         0.0702
     47 H17        -5.9335    1.1604   -3.3452 H         1 <0>         0.0831
     48 H18        -4.9620    1.4009   -1.8536 H         1 <0>         0.0648
     49 H19        -4.1973    2.4645   -4.1892 H         1 <0>         0.1024
     50 H20        -3.5130    0.8236   -4.4460 H         1 <0>         0.0946
     51 H21        -0.1264   -0.2498    2.8396 H         1 <0>         0.1296
     52 H22        -1.6816   -1.7677    3.9942 H         1 <0>         0.1308
     53 H23        -4.1028   -1.5966    3.5858 H         1 <0>         0.1284
     54 H24        -4.6773    1.8409    0.5562 H         1 <0>         0.0763
     55 H25        -3.1594    1.7478   -0.3998 H         1 <0>         0.0887
     56 H26        -3.2971    2.9191    0.9551 H         1 <0>         0.0671
     57 H27        -5.5926    0.9270    1.2308 H         1 <0>         0.0753
     58 H28        -5.9109    0.3422    2.8992 H         1 <0>         0.0750
     59 H29        -5.7658   -0.8326    1.5481 H         1 <0>         0.0738
@<TRIPOS>BOND
     1    1    2 1
     2    1   31 1
     3    1   32 1
     4    1   33 1
     5    2    7 ar
     6    2    3 ar
     7    3    4 ar
     8    3   34 1
     9    4    5 ar
    10    4   35 1
    11    5    6 ar
    12    5    8 1
    13    6    7 ar
    14    6   36 1
    15    7   37 1
    16    8    9 am
    17    8   38 1
    18    9   10 2
    19    9   11 am
    20   11   12 1
    21   11   23 1
    22   12   13 1
    23   12   39 1
    24   12   40 1
    25   13   17 1
    26   13   14 2
    27   14   15 1
    28   15   16 2
    29   16   22 1
    30   16   17 1
    31   17   18 1
    32   18   19 1
    33   18   41 1
    34   18   42 1
    35   19   20 1
    36   19   43 1
    37   19   44 1
    38   20   21 1
    39   20   45 1
    40   20   46 1
    41   21   22 1
    42   21   47 1
    43   21   48 1
    44   22   49 1
    45   22   50 1
    46   23   28 ar
    47   23   24 ar
    48   24   25 ar
    49   24   51 1
    50   25   26 ar
    51   25   52 1
    52   26   27 ar
    53   26   53 1
    54   27   28 ar
    55   27   30 1
    56   28   29 1
    57   29   54 1
    58   29   55 1
    59   29   56 1
    60   30   57 1
    61   30   58 1
    62   30   59 1
@<TRIPOS>MOLECULE
ZINC02109250
   56    59     0     0     0
SMALL
USER_CHARGES

@<TRIPOS>ATOM
      1 C1         -0.2180    1.3621   -0.1682 C.3       1 <0>        -0.1189
      2 C2         -0.1333   -0.1425   -0.1532 C.ar      1 <0>        -0.0675
      3 C3          0.6871   -0.7954   -1.0559 C.ar      1 <0>        -0.1283
      4 C4          0.7687   -2.1728   -1.0469 C.ar      1 <0>        -0.0895
      5 C5          0.0225   -2.9066   -0.1259 C.ar      1 <0>        -0.0632
      6 C6         -0.8023   -2.2434    0.7811 C.ar      1 <0>        -0.0387
      7 C7         -0.8716   -0.8650    0.7665 C.ar      1 <0>        -0.1245
      8 C8         -1.6124   -3.0295    1.7794 C.3       1 <0>        -0.1111
      9 C9          0.1055   -4.3871   -0.1115 C.ar      1 <0>         0.1997
     10 C10        -0.0313   -5.0845   -1.3210 C.ar      1 <0>        -0.1192
     11 C11         0.0450   -6.4704   -1.3208 C.ar      1 <0>        -0.0700
     12 C12         0.2678   -7.1304   -0.0340 C.ar      1 <0>        -0.0620
     13 C13         0.3597   -8.5228    0.0674 C.ar      1 <0>        -0.1011
     14 C14         0.5683   -9.0970    1.2864 C.ar      1 <0>        -0.1087
     15 C15         0.6911   -8.3144    2.4325 C.ar      1 <0>        -0.0969
     16 C16         0.6067   -6.9576    2.3692 C.ar      1 <0>        -0.0924
     17 C17         0.3920   -6.3289    1.1286 C.ar      1 <0>         0.1270
     18 N1          0.3104   -5.0007    1.0348 N.ar      1 <0>        -0.4377
     19 C18        -0.0936   -7.2483   -2.5702 C.2       1 <0>         0.5839
     20 O1         -0.1305   -8.4631   -2.5291 O.2       1 <0>        -0.4863
     21 N2         -0.1791   -6.6111   -3.7548 N.am      1 <0>        -0.5783
     22 N3         -0.3105   -7.3484   -4.9388 N.2       1 <0>        -0.2418
     23 C19        -0.3928   -6.7348   -6.0796 C.2       1 <0>         0.1668
     24 C20        -0.5311   -7.5111   -7.3264 C.2       1 <0>        -0.2182
     25 C21        -0.5941   -8.9174   -7.4345 C.2       1 <0>         0.1231
     26 N4         -0.7159   -9.2223   -8.6981 N.2       1 <0>        -0.3010
     27 N5         -0.7365   -8.0412   -9.4485 N.pl3     1 <0>        -0.3624
     28 C22        -0.6290   -6.9982   -8.6023 C.2       1 <0>         0.1257
     29 C23        -0.6152   -5.5396   -8.9811 C.3       1 <0>        -0.0991
     30 C24        -0.8603   -7.9536  -10.9057 C.3       1 <0>         0.0965
     31 C25        -0.5310   -9.8963   -6.2904 C.3       1 <0>        -0.0779
     32 H1          0.5422    1.7754    0.4947 H         1 <0>         0.0736
     33 H2         -0.0522    1.7253   -1.1824 H         1 <0>         0.0684
     34 H3         -1.2054    1.6738    0.1725 H         1 <0>         0.0683
     35 H4          1.2645   -0.2260   -1.7692 H         1 <0>         0.1265
     36 H5          1.4092   -2.6815   -1.7522 H         1 <0>         0.1246
     37 H6         -1.5070   -0.3498    1.4717 H         1 <0>         0.1265
     38 H7         -1.0637   -3.0989    2.7186 H         1 <0>         0.0791
     39 H8         -2.5644   -2.5270    1.9511 H         1 <0>         0.0638
     40 H9         -1.7953   -4.0313    1.3906 H         1 <0>         0.0636
     41 H10        -0.1949   -4.5479   -2.2439 H         1 <0>         0.1407
     42 H11         0.2656   -9.1391   -0.8144 H         1 <0>         0.1643
     43 H12         0.6388  -10.1718    1.3645 H         1 <0>         0.1323
     44 H13         0.8556   -8.7924    3.3869 H         1 <0>         0.1334
     45 H14         0.7038   -6.3658    3.2674 H         1 <0>         0.1392
     46 H15        -0.1496   -5.6421   -3.7875 H         1 <0>         0.3829
     47 H16        -0.3600   -5.6559   -6.1160 H         1 <0>         0.1179
     48 H17         0.4111   -5.2215   -9.1644 H         1 <0>         0.0883
     49 H18        -1.2077   -5.3931   -9.8842 H         1 <0>         0.0782
     50 H19        -1.0389   -4.9492   -8.1687 H         1 <0>         0.0893
     51 H20        -1.9141   -7.8925  -11.1777 H         1 <0>         0.0794
     52 H21        -0.3410   -7.0638  -11.2616 H         1 <0>         0.0902
     53 H22        -0.4181   -8.8393  -11.3618 H         1 <0>         0.0945
     54 H23        -1.5388  -10.0934   -5.9249 H         1 <0>         0.0784
     55 H24        -0.0803  -10.8275   -6.6334 H         1 <0>         0.0692
     56 H25         0.0717   -9.4758   -5.4853 H         1 <0>         0.0995
@<TRIPOS>BOND
     1    1    2 1
     2    1   32 1
     3    1   33 1
     4    1   34 1
     5    2    7 ar
     6    2    3 ar
     7    3    4 ar
     8    3   35 1
     9    4    5 ar
    10    4   36 1
    11    5    6 ar
    12    5    9 1
    13    6    7 ar
    14    6    8 1
    15    7   37 1
    16    8   38 1
    17    8   39 1
    18    8   40 1
    19    9   18 ar
    20    9   10 ar
    21   10   11 ar
    22   10   41 1
    23   11   12 ar
    24   11   19 1
    25   12   17 ar
    26   12   13 ar
    27   13   14 ar
    28   13   42 1
    29   14   15 ar
    30   14   43 1
    31   15   16 ar
    32   15   44 1
    33   16   17 ar
    34   16   45 1
    35   17   18 ar
    36   19   20 2
    37   19   21 am
    38   21   22 1
    39   21   46 1
    40   22   23 2
    41   23   24 1
    42   23   47 1
    43   24   28 2
    44   24   25 1
    45   25   26 2
    46   25   31 1
    47   26   27 1
    48   27   28 1
    49   27   30 1
    50   28   29 1
    51   29   48 1
    52   29   49 1
    53   29   50 1
    54   30   51 1
    55   30   52 1
    56   30   53 1
    57   31   54 1
    58   31   55 1
    59   31   56 1
@<TRIPOS>MOLECULE
ZINC13601857
   41    44     0     0     0
SMALL
USER_CHARGES

@<TRIPOS>ATOM
      1 C1         -0.0184    1.5028    0.0103 C.3       1 <0>        -0.0859
      2 C2          0.0021   -0.0041    0.0020 C.2       1 <0>         0.1433
      3 N1          0.0080   -0.7627   -1.0581 N.2       1 <0>        -0.2683
      4 N2          0.0279   -2.1049   -0.6640 N.pl3     1 <0>        -0.3218
      5 C3          0.0341   -2.1551    0.6854 C.2       1 <0>         0.3478
      6 O1          0.0528   -3.2733    1.4485 O.3       1 <0>        -0.4394
      7 C4          0.0243   -0.8406    1.1444 C.2       1 <0>        -0.2501
      8 C5          0.0316   -0.4058    2.5428 C.2       1 <0>         0.3111
      9 N3          0.0528   -1.2941    3.5044 N.2       1 <0>        -0.4587
     10 C6          0.0597   -0.8906    4.8020 C.2       1 <0>         0.2323
     11 N4          0.0419    0.3395    5.3166 N.2       1 <0>        -0.3159
     12 N5          0.0521    0.5371    6.5623 N.2       1 <0>        -0.2586
     13 C7          0.0810   -0.4668    7.4325 C.2       1 <0>         0.0936
     14 S1          0.0871   -1.8594    6.3074 S.3       1 <0>         0.0415
     15 C8          0.0971   -0.4411    8.9099 C.ar      1 <0>        -0.0164
     16 C9          0.1343   -1.6356    9.6316 C.ar      1 <0>        -0.0902
     17 C10         0.1491   -1.6044   11.0106 C.ar      1 <0>        -0.1175
     18 C11         0.1266   -0.3929   11.6786 C.ar      1 <0>        -0.0964
     19 C12         0.0892    0.7946   10.9695 C.ar      1 <0>        -0.1190
     20 C13         0.0809    0.7779    9.5901 C.ar      1 <0>        -0.0687
     21 C14         0.0389   -3.2111   -1.5248 C.ar      1 <0>         0.1449
     22 C15         0.7402   -4.3573   -1.1751 C.ar      1 <0>        -0.1069
     23 C16         0.7496   -5.4459   -2.0249 C.ar      1 <0>        -0.0874
     24 C17         0.0613   -5.3948   -3.2244 C.ar      1 <0>        -0.0326
     25 C18        -0.6380   -4.2534   -3.5754 C.ar      1 <0>        -0.0900
     26 C19        -0.6560   -3.1646   -2.7259 C.ar      1 <0>        -0.0892
     27 Cl1         0.0755   -6.7647   -4.2907 Cl        1 <0>        -0.0543
     28 H1          1.0042    1.8801    0.0026 H         1 <0>         0.0922
     29 H2         -0.5455    1.8639   -0.8728 H         1 <0>         0.0869
     30 H3         -0.5286    1.8543    0.9071 H         1 <0>         0.0886
     31 H4          0.0196    0.6476    2.7808 H         1 <0>         0.1372
     32 H5          0.1512   -2.5819    9.1114 H         1 <0>         0.1268
     33 H6          0.1779   -2.5277   11.5701 H         1 <0>         0.1330
     34 H7          0.1380   -0.3741   12.7584 H         1 <0>         0.1305
     35 H8          0.0711    1.7368   11.4971 H         1 <0>         0.1338
     36 H9          0.0569    1.7057    9.0378 H         1 <0>         0.1377
     37 H10         1.2781   -4.3974   -0.2395 H         1 <0>         0.1356
     38 H11         1.2949   -6.3377   -1.7534 H         1 <0>         0.1475
     39 H12        -1.1739   -4.2157   -4.5123 H         1 <0>         0.1475
     40 H13        -1.2058   -2.2758   -2.9981 H         1 <0>         0.1472
     41 H14         0.9415   -3.5858    1.6666 H         1 <0>         0.4082
@<TRIPOS>BOND
     1    1    2 1
     2    1   28 1
     3    1   29 1
     4    1   30 1
     5    2    7 1
     6    2    3 2
     7    3    4 1
     8    4    5 1
     9    4   21 1
    10    5    6 1
    11    5    7 2
    12    6   41 1
    13    7    8 1
    14    8    9 2
    15    8   31 1
    16    9   10 1
    17   10   14 1
    18   10   11 2
    19   11   12 1
    20   12   13 2
    21   13   14 1
    22   13   15 1
    23   15   20 ar
    24   15   16 ar
    25   16   17 ar
    26   16   32 1
    27   17   18 ar
    28   17   33 1
    29   18   19 ar
    30   18   34 1
    31   19   20 ar
    32   19   35 1
    33   20   36 1
    34   21   26 ar
    35   21   22 ar
    36   22   23 ar
    37   22   37 1
    38   23   24 ar
    39   23   38 1
    40   24   25 ar
    41   24   27 1
    42   25   26 ar
    43   25   39 1
    44   26   40 1
@<TRIPOS>MOLECULE
ZINC00242367
   30    31     0     0     0
SMALL
USER_CHARGES
2-cyano-N-(3-nitrophenyl)-3-(2-thienyl)prop-2-enamide
@<TRIPOS>ATOM
      1 C1         -0.9677    1.7537   -0.7115 C.ar      1 <0>        -0.0931
      2 C2         -0.9891    3.1348   -0.7120 C.ar      1 <0>        -0.0942
      3 C3         -0.0506    3.8424    0.0277 C.ar      1 <0>         0.1539
      4 C4          0.9069    3.1583    0.7658 C.ar      1 <0>        -0.0616
      5 C5          0.9191    1.7774    0.7665 C.ar      1 <0>        -0.0225
      6 C6         -0.0137    1.0758    0.0246 C.ar      1 <0>        -0.0706
      7 N1          1.9348    1.0475    1.5580 N.pl3     1 <0>         0.0263
      8 O1          1.9489   -0.1704    1.5557 O.2       1 <0>        -0.1552
      9 O2          2.7566    1.6648    2.2116 O.3       1 <0>        -0.1508
     10 N2         -0.0691    5.2407    0.0290 N.am      1 <0>        -0.6689
     11 C7          1.0853    5.9299    0.1234 C.2       1 <0>         0.5829
     12 O3          2.1494    5.3392    0.1107 O.2       1 <0>        -0.5049
     13 C8          1.0592    7.3926    0.2416 C.2       1 <0>        -0.1646
     14 C9          2.2467    8.1015    0.3387 C.2       1 <0>         0.1450
     15 C10         2.2217    9.5034    0.4520 C.2       1 <0>        -0.2339
     16 C11         3.2879   10.3958    0.5658 C.2       1 <0>        -0.0622
     17 C12         2.9765   11.7259    0.6576 C.2       1 <0>        -0.1858
     18 C13         1.6691   12.1064    0.6458 C.2       1 <0>        -0.1783
     19 S1          0.8179   10.6036    0.4956 S.3       1 <0>         0.1742
     20 C14        -0.1927    8.0875    0.2566 C.1       1 <0>         0.2325
     21 N3         -1.1859    8.6388    0.2685 N.1       1 <0>        -0.3786
     22 H1         -1.6973    1.2027   -1.2865 H         1 <0>         0.1548
     23 H2         -1.7350    3.6637   -1.2866 H         1 <0>         0.1474
     24 H3          1.6383    3.7057    1.3418 H         1 <0>         0.1674
     25 H4          0.0004   -0.0042    0.0239 H         1 <0>         0.1569
     26 H5         -0.9128    5.7147   -0.0380 H         1 <0>         0.4175
     27 H6          3.1910    7.5774    0.3274 H         1 <0>         0.1779
     28 H7          4.3122   10.0534    0.5777 H         1 <0>         0.1532
     29 H8          3.7593   12.4650    0.7434 H         1 <0>         0.1435
     30 H9          1.2608   13.1039    0.7141 H         1 <0>         0.1918
@<TRIPOS>BOND
     1    1    6 ar
     2    1    2 ar
     3    1   22 1
     4    2    3 ar
     5    2   23 1
     6    3    4 ar
     7    3   10 1
     8    4    5 ar
     9    4   24 1
    10    5    6 ar
    11    5    7 1
    12    6   25 1
    13    7    8 2
    14    7    9 1
    15   10   11 am
    16   10   26 1
    17   11   12 2
    18   11   13 1
    19   13   14 2
    20   13   20 1
    21   14   15 1
    22   14   27 1
    23   15   19 1
    24   15   16 2
    25   16   17 1
    26   16   28 1
    27   17   18 2
    28   17   29 1
    29   18   19 1
    30   18   30 1
    31   20   21 3
@<TRIPOS>MOLECULE
ZINC23016029
   39    41     0     0     0
SMALL
USER_CHARGES
1-[(1R)-1-(benzofuran-2-yl)ethyl]-1-methyl-3-(5-methylisoxazol-3-yl)urea
@<TRIPOS>ATOM
      1 C1          2.5003    1.5459   -0.0135 C.3       1 <0>        -0.0778
      2 C2          1.0414    1.9233    0.0024 C.2       1 <0>        -0.0214
      3 C3         -0.0126    1.0758    0.0080 C.2       1 <0>        -0.2283
      4 C4         -1.1432    1.9354    0.0171 C.2       1 <0>         0.2689
      5 N1         -0.6740    3.1555    0.0255 N.2       1 <0>        -0.3944
      6 O1          0.5351    3.1648    0.0140 O.3       1 <0>         0.0935
      7 N2         -2.4849    1.5541    0.0199 N.am      1 <0>        -0.6534
      8 C5         -2.8142    0.2472    0.0136 C.2       1 <0>         0.7226
      9 O2         -1.9417   -0.5995    0.0054 O.2       1 <0>        -0.5668
     10 N3         -4.1106   -0.1212    0.0162 N.am      1 <0>        -0.6187
     11 C6         -5.1620    0.8990    0.0260 C.3       1 <0>         0.0655
     12 C7         -4.4684   -1.5418    0.0094 C.3       1 <0>         0.2332
     13 H1         -3.5323   -2.1195    0.0164 H         1 <0>         0.1389
     14 C8         -5.2971   -1.8530   -1.2386 C.3       1 <0>        -0.1638
     15 C9         -5.2755   -1.8625    1.2410 C.2       1 <0>         0.0197
     16 C10        -5.1543   -2.9819    1.9675 C.2       1 <0>        -0.1881
     17 C11        -6.1253   -2.8662    3.0622 C.ar      1 <0>        -0.1307
     18 C12        -6.4835   -3.6781    4.1373 C.ar      1 <0>        -0.0695
     19 C13        -7.4619   -3.2679    5.0000 C.ar      1 <0>        -0.1350
     20 C14        -8.0991   -2.0499    4.8116 C.ar      1 <0>        -0.0916
     21 C15        -7.7582   -1.2338    3.7542 C.ar      1 <0>        -0.1080
     22 C16        -6.7667   -1.6318    2.8660 C.ar      1 <0>         0.0521
     23 O3         -6.2255   -1.0696    1.7668 O.3       1 <0>        -0.1876
     24 H2          2.5955    0.4500   -0.0204 H         1 <0>         0.0945
     25 H3          2.9936    1.9512    0.8822 H         1 <0>         0.0879
     26 H4          2.9766    1.9610   -0.9140 H         1 <0>         0.0881
     27 H5          0.0021   -0.0041    0.0020 H         1 <0>         0.1899
     28 H6         -3.2743    2.3201    0.0273 H         1 <0>         0.4406
     29 H7         -6.1473    0.4100    0.0268 H         1 <0>         0.0942
     30 H8         -5.0673    1.5317   -0.8688 H         1 <0>         0.0671
     31 H9         -5.0607    1.5212    0.9274 H         1 <0>         0.0655
     32 H10        -5.5658   -2.9197   -1.2437 H         1 <0>         0.0809
     33 H11        -4.7081   -1.6189   -2.1376 H         1 <0>         0.0761
     34 H12        -6.2132   -1.2441   -1.2316 H         1 <0>         0.0677
     35 H13        -4.4768   -3.8030    1.7855 H         1 <0>         0.1606
     36 H14        -5.9907   -4.6272    4.2880 H         1 <0>         0.1285
     37 H15        -7.7407   -3.8961    5.8331 H         1 <0>         0.1308
     38 H16        -8.8699   -1.7378    5.5007 H         1 <0>         0.1362
     39 H17        -8.2602   -0.2875    3.6169 H         1 <0>         0.1319
@<TRIPOS>BOND
     1    1    2 1
     2    1   24 1
     3    1   25 1
     4    1   26 1
     5    2    6 1
     6    2    3 2
     7    3    4 1
     8    3   27 1
     9    4    5 2
    10    4    7 1
    11    5    6 1
    12    7    8 am
    13    7   28 1
    14    8    9 2
    15    8   10 am
    16   10   11 1
    17   10   12 1
    18   11   29 1
    19   11   30 1
    20   11   31 1
    21   12   13 1
    22   12   14 1
    23   12   15 1
    24   14   32 1
    25   14   33 1
    26   14   34 1
    27   15   23 1
    28   15   16 2
    29   16   17 1
    30   16   35 1
    31   17   22 ar
    32   17   18 ar
    33   18   19 ar
    34   18   36 1
    35   19   20 ar
    36   19   37 1
    37   20   21 ar
    38   20   38 1
    39   21   22 ar
    40   21   39 1
    41   22   23 1
@<TRIPOS>MOLECULE
ZINC38744721
   38    41     0     0     0
SMALL
USER_CHARGES

@<TRIPOS>ATOM
      1 C1         -0.0187    1.5258    0.0104 C.3       1 <0>        -0.1517
      2 C2          0.0021   -0.0041    0.0020 C.3       1 <0>        -0.1179
      3 C3          0.7182   -0.4975   -1.2568 C.3       1 <0>        -0.0374
      4 C4          0.7386   -2.0043   -1.2651 C.2       1 <0>         0.2495
      5 N1          1.6619   -2.7590   -0.7472 N.2       1 <0>        -0.2683
      6 N2          1.3780   -3.9992   -0.9396 N.2       1 <0>        -0.2268
      7 C5          0.2686   -4.0893   -1.6043 C.2       1 <0>         0.1602
      8 N3         -0.2248   -2.8277   -1.8199 N.pl3     1 <0>        -0.3506
      9 N4         -1.4277   -2.6816   -2.4446 N.3       1 <0>        -0.4481
     10 C6         -1.8547   -3.8464   -3.2650 C.3       1 <0>         0.1533
     11 H1         -2.9319   -4.0035   -3.2084 H         1 <0>         0.1716
     12 S1         -0.9220   -5.1652   -2.3757 S.3       1 <0>        -0.0245
     13 C7         -1.3859   -3.7155   -4.7155 C.3       1 <0>        -0.0295
     14 H2         -1.7159   -2.7679   -5.1412 H         1 <0>         0.1723
     15 C8         -1.8881   -4.8814   -5.5485 C.2       1 <0>        -0.1572
     16 C9         -0.7607   -5.4840   -5.9729 C.2       1 <0>         0.0316
     17 N5          0.3331   -4.8296   -5.5017 N.2       1 <0>        -0.1386
     18 N6          0.0783   -3.8424   -4.8020 N.2       1 <0>        -0.1370
     19 C10        -0.7189   -6.6924   -6.8328 C.ar      1 <0>        -0.0388
     20 C11        -1.9041   -7.2839   -7.2658 C.ar      1 <0>        -0.0990
     21 C12        -1.8593   -8.4076   -8.0659 C.ar      1 <0>        -0.1210
     22 C13        -0.6410   -8.9466   -8.4382 C.ar      1 <0>        -0.1049
     23 C14         0.5385   -8.3635   -8.0114 C.ar      1 <0>        -0.1202
     24 C15         0.5057   -7.2366   -7.2153 C.ar      1 <0>        -0.0831
     25 H3          1.0039    1.9031    0.0027 H         1 <0>         0.0608
     26 H4         -0.5459    1.8868   -0.8726 H         1 <0>         0.0569
     27 H5         -0.5289    1.8773    0.9072 H         1 <0>         0.0599
     28 H6          0.5293   -0.3651    0.8851 H         1 <0>         0.0724
     29 H7         -1.0205   -0.3814    0.0098 H         1 <0>         0.0586
     30 H8          0.1910   -0.1364   -2.1398 H         1 <0>         0.0923
     31 H9          1.7408   -0.1202   -1.2645 H         1 <0>         0.1065
     32 H10        -2.1469   -2.4192   -1.7874 H         1 <0>         0.3837
     33 H11        -2.9107   -5.1623   -5.7528 H         1 <0>         0.1814
     34 H12        -2.8558   -6.8641   -6.9754 H         1 <0>         0.1239
     35 H13        -2.7772   -8.8670   -8.4018 H         1 <0>         0.1285
     36 H14        -0.6106   -9.8262   -9.0642 H         1 <0>         0.1269
     37 H15         1.4870   -8.7888   -8.3047 H         1 <0>         0.1294
     38 H16         1.4272   -6.7796   -6.8862 H         1 <0>         0.1348
@<TRIPOS>BOND
     1    1    2 1
     2    1   25 1
     3    1   26 1
     4    1   27 1
     5    2    3 1
     6    2   28 1
     7    2   29 1
     8    3    4 1
     9    3   30 1
    10    3   31 1
    11    4    8 1
    12    4    5 2
    13    5    6 1
    14    6    7 2
    15    7   12 1
    16    7    8 1
    17    8    9 1
    18    9   10 1
    19    9   32 1
    20   10   11 1
    21   10   12 1
    22   10   13 1
    23   13   14 1
    24   13   18 1
    25   13   15 1
    26   15   16 2
    27   15   33 1
    28   16   17 1
    29   16   19 1
    30   17   18 2
    31   19   24 ar
    32   19   20 ar
    33   20   21 ar
    34   20   34 1
    35   21   22 ar
    36   21   35 1
    37   22   23 ar
    38   22   36 1
    39   23   24 ar
    40   23   37 1
    41   24   38 1
@<TRIPOS>MOLECULE
ZINC49926244
   38    40     0     0     0
SMALL
USER_CHARGES

@<TRIPOS>ATOM
      1 C1          0.1737    1.4639    0.0987 C.3       1 <0>        -0.1058
      2 C2          0.1283   -0.0420    0.0644 C.ar      1 <0>        -0.1370
      3 C3          0.1815   -0.6987   -1.1323 C.ar      1 <0>        -0.0120
      4 C4          0.1397   -2.0987   -1.1627 C.ar      1 <0>        -0.2117
      5 C5          0.0435   -2.8182    0.0359 C.ar      1 <0>        -0.0227
      6 C6         -0.0090   -2.1521    1.2270 C.ar      1 <0>        -0.2258
      7 C7          0.0382   -0.7613    1.2520 C.ar      1 <0>         0.1740
      8 O1         -0.0091   -0.1047    2.4379 O.3       1 <0>        -0.3065
      9 C8         -0.1013   -0.9040    3.6188 C.3       1 <0>         0.0220
     10 C9          0.1961   -2.8109   -2.4485 C.2       1 <0>         0.4024
     11 O2          0.1280   -2.1902   -3.4899 O.2       1 <0>        -0.4226
     12 C10         0.3370   -4.2955   -2.4731 C.2       1 <0>         0.4871
     13 O3          0.5152   -4.9056   -1.4387 O.2       1 <0>        -0.4837
     14 N1          0.2666   -4.9598   -3.6437 N.am      1 <0>        -0.6447
     15 C11         0.2862   -6.3581   -3.6564 C.ar      1 <0>         0.1499
     16 C12         0.8965   -7.0349   -4.7049 C.ar      1 <0>        -0.1271
     17 C13         0.9165   -8.4160   -4.7187 C.ar      1 <0>        -0.0785
     18 C14         0.3286   -9.1305   -3.6870 C.ar      1 <0>         0.0216
     19 C15        -0.2843   -8.4548   -2.6340 C.ar      1 <0>         0.0545
     20 C16        -0.2995   -7.0704   -2.6180 C.ar      1 <0>        -0.1030
     21 O4         -0.7817   -9.3744   -1.7562 O.3       1 <0>        -0.3052
     22 C17        -0.8271  -10.6158   -2.4843 C.3       1 <0>         0.2129
     23 O5          0.2147  -10.4738   -3.4679 O.3       1 <0>        -0.3065
     24 H1          1.2101    1.7948    0.1653 H         1 <0>         0.0708
     25 H2         -0.2770    1.8618   -0.8105 H         1 <0>         0.0687
     26 H3         -0.3792    1.8244    0.9661 H         1 <0>         0.0724
     27 H4          0.2553   -0.1396   -2.0534 H         1 <0>         0.1427
     28 H5          0.0106   -3.8975    0.0178 H         1 <0>         0.1656
     29 H6         -0.0835   -2.7056    2.1514 H         1 <0>         0.1378
     30 H7         -0.1312   -0.2560    4.4948 H         1 <0>         0.1052
     31 H8         -1.0097   -1.5053    3.5805 H         1 <0>         0.0605
     32 H9          0.7665   -1.5605    3.6819 H         1 <0>         0.0609
     33 H10         0.2023   -4.4680   -4.4773 H         1 <0>         0.4254
     34 H11         1.3554   -6.4806   -5.5103 H         1 <0>         0.1456
     35 H12         1.3916   -8.9401   -5.5349 H         1 <0>         0.1440
     36 H13        -0.7698   -6.5447   -1.8002 H         1 <0>         0.1477
     37 H14        -0.6169  -11.4559   -1.8223 H         1 <0>         0.1342
     38 H15        -1.7959  -10.7410   -2.9678 H         1 <0>         0.0869
@<TRIPOS>BOND
     1    1    2 1
     2    1   24 1
     3    1   25 1
     4    1   26 1
     5    2    7 ar
     6    2    3 ar
     7    3    4 ar
     8    3   27 1
     9    4    5 ar
    10    4   10 1
    11    5    6 ar
    12    5   28 1
    13    6    7 ar
    14    6   29 1
    15    7    8 1
    16    8    9 1
    17    9   30 1
    18    9   31 1
    19    9   32 1
    20   10   11 2
    21   10   12 1
    22   12   13 2
    23   12   14 am
    24   14   15 1
    25   14   33 1
    26   15   20 ar
    27   15   16 ar
    28   16   17 ar
    29   16   34 1
    30   17   18 ar
    31   17   35 1
    32   18   23 1
    33   18   19 ar
    34   19   20 ar
    35   19   21 1
    36   20   36 1
    37   21   22 1
    38   22   23 1
    39   22   37 1
    40   22   38 1
@<TRIPOS>MOLECULE
ZINC63833986
   37    40     0     0     0
SMALL
USER_CHARGES

@<TRIPOS>ATOM
      1 C1         -0.1168    1.5534    0.0761 C.3       1 <0>        -0.1756
      2 C2         -0.0939    0.0236    0.0757 C.3       1 <0>         0.1731
      3 N1         -1.4675   -0.4854    0.0601 N.pl3     1 <0>        -0.5553
      4 C3         -2.2921   -0.8015   -1.1072 C.3       1 <0>         0.2249
      5 H1         -2.2024   -1.8504   -1.3899 H         1 <0>         0.1207
      6 C4         -3.6869   -0.4710   -0.5789 C.2       1 <0>         0.1141
      7 N2         -4.3745    0.0317   -1.5454 N.2       1 <0>        -0.4356
      8 C5         -3.5362    0.1788   -2.7466 C.3       1 <0>         0.2578
      9 H2         -3.7168    1.1450   -3.2178 H         1 <0>         0.1439
     10 N3         -2.1163    0.0857   -2.2626 N.3       1 <0>        -0.6390
     11 C6         -3.8170   -0.9370   -3.7198 C.2       1 <0>         0.0563
     12 C7         -4.1171   -2.2110   -3.3968 C.2       1 <0>        -0.1672
     13 C8         -4.3040   -2.9205   -4.6006 C.2       1 <0>        -0.1702
     14 C9         -4.1113   -2.0542   -5.6154 C.2       1 <0>        -0.0054
     15 N4         -3.8172   -0.8310   -5.0821 N.pl3     1 <0>        -0.3859
     16 C10        -3.5566    0.3343   -5.8094 C.ar      1 <0>         0.3595
     17 C11        -3.7154    0.3337   -7.1898 C.ar      1 <0>        -0.1731
     18 C12        -3.4543    1.4935   -7.8983 C.ar      1 <0>        -0.0324
     19 C13        -3.0413    2.6191   -7.1970 C.ar      1 <0>        -0.1095
     20 C14        -2.9047    2.5473   -5.8235 C.ar      1 <0>         0.1526
     21 N5         -3.1665    1.4282   -5.1759 N.ar      1 <0>        -0.4899
     22 Cl1        -2.6998    4.0998   -8.0366 Cl        1 <0>        -0.0414
     23 C15        -3.5558   -0.7520    0.8499 C.2       1 <0>         0.0881
     24 N6         -2.2894   -0.7863    1.1675 N.2       1 <0>        -0.1683
     25 H3          0.9053    1.9321    0.0877 H         1 <0>         0.0737
     26 H4         -0.6260    1.9094   -0.8194 H         1 <0>         0.0520
     27 H5         -0.6459    1.9086    0.9604 H         1 <0>         0.0598
     28 H6          0.4352   -0.3316   -0.8086 H         1 <0>         0.0848
     29 H7          0.4154   -0.3324    0.9713 H         1 <0>         0.0843
     30 H8         -1.7730    0.9899   -1.9752 H         1 <0>         0.3480
     31 H9         -4.1990   -2.6144   -2.3983 H         1 <0>         0.1379
     32 H10        -4.5553   -3.9667   -4.6929 H         1 <0>         0.1502
     33 H11        -4.1817   -2.2859   -6.6679 H         1 <0>         0.1740
     34 H12        -4.0380   -0.5601   -7.7030 H         1 <0>         0.1528
     35 H13        -3.5687    1.5226   -8.9718 H         1 <0>         0.1569
     36 H14        -2.5835    3.4193   -5.2732 H         1 <0>         0.1755
     37 H15        -4.3763   -0.9105    1.5341 H         1 <0>         0.2078
@<TRIPOS>BOND
     1    1    2 1
     2    1   25 1
     3    1   26 1
     4    1   27 1
     5    2    3 1
     6    2   28 1
     7    2   29 1
     8    3   24 1
     9    3    4 1
    10    4    5 1
    11    4   10 1
    12    4    6 1
    13    6    7 2
    14    6   23 1
    15    7    8 1
    16    8    9 1
    17    8   10 1
    18    8   11 1
    19   10   30 1
    20   11   15 1
    21   11   12 2
    22   12   13 1
    23   12   31 1
    24   13   14 2
    25   13   32 1
    26   14   15 1
    27   14   33 1
    28   15   16 1
    29   16   21 ar
    30   16   17 ar
    31   17   18 ar
    32   17   34 1
    33   18   19 ar
    34   18   35 1
    35   19   20 ar
    36   19   22 1
    37   20   21 ar
    38   20   36 1
    39   23   24 2
    40   23   37 1
@<TRIPOS>MOLECULE
ZINC05157597
   57    59     0     0     0
SMALL
USER_CHARGES
N-(ethyl-isopropylsulfanyl-methyl-BLAHyl)-N',N'-dimethyl-ethane-1,2-diamine
@<TRIPOS>ATOM
      1 C1         -0.7815    1.5434    1.2700 C.3       1 <0>        -0.1569
      2 C2         -0.0543    1.0605    0.0134 C.3       1 <0>        -0.1080
      3 C3         -0.7899    1.5682   -1.2283 C.3       1 <0>         0.1162
      4 C4         -0.1446    0.9695   -2.4811 C.3       1 <0>        -0.0873
      5 C5         -0.7413    1.6656   -3.7023 C.2       1 <0>        -0.0782
      6 C6         -1.3837    2.8473   -3.5452 C.2       1 <0>        -0.1957
      7 S1         -1.9183    3.3076   -5.1715 S.3       1 <0>         0.1692
      8 C7         -1.2828    1.9219   -6.0600 C.ar      1 <0>         0.1416
      9 C8         -0.6675    1.1359   -5.0516 C.ar      1 <0>        -0.2410
     10 C9         -0.0487   -0.0782   -5.4685 C.ar      1 <0>         0.5012
     11 N1         -0.1141   -0.3498   -6.7695 N.ar      1 <0>        -0.5767
     12 C10        -0.7079    0.4324   -7.6585 C.ar      1 <0>         0.3550
     13 N2         -1.3044    1.5816   -7.3330 N.ar      1 <0>        -0.4858
     14 S2         -0.7101   -0.0666   -9.3484 S.3       1 <0>         0.0195
     15 C11        -1.6178    1.3162  -10.0832 C.3       1 <0>        -0.0809
     16 C12        -1.6401    1.1604  -11.6051 C.3       1 <0>        -0.1404
     17 C13        -3.0520    1.3254   -9.5504 C.3       1 <0>        -0.1514
     18 N3          0.5826   -0.9237   -4.5743 N.pl3     1 <0>        -0.7069
     19 C14         1.0972   -2.2180   -5.0284 C.3       1 <0>         0.0999
     20 C15         1.7441   -2.9509   -3.8514 C.3       1 <0>        -0.0216
     21 C16         3.3654   -4.0715   -5.2580 C.3       1 <0>        -0.0506
     22 C17         2.6738   -5.0796   -3.1680 C.3       1 <0>        -0.0423
     23 C18        -1.5826    3.5823   -2.2566 C.3       1 <0>         0.1390
     24 O1         -0.7166    2.9959   -1.2724 O.3       1 <0>        -0.3505
     25 C19        -2.2564    1.1374   -1.1609 C.3       1 <0>        -0.1871
     26 H1         -0.8034    2.6331    1.2810 H         1 <0>         0.0664
     27 H2         -1.8016    1.1593    1.2697 H         1 <0>         0.0588
     28 H3         -0.2574    1.1816    2.1547 H         1 <0>         0.0580
     29 H4         -0.0323   -0.0292    0.0025 H         1 <0>         0.0734
     30 H5          0.9658    1.4445    0.0138 H         1 <0>         0.0738
     31 H6          0.9327    1.1331   -2.4540 H         1 <0>         0.0898
     32 H7         -0.3540   -0.0992   -2.5278 H         1 <0>         0.0792
     33 H8         -1.1269    2.2534   -9.8211 H         1 <0>         0.1057
     34 H9         -2.1311    0.2232  -11.8672 H         1 <0>         0.0674
     35 H10        -2.1868    1.9931  -12.0476 H         1 <0>         0.0830
     36 H11        -0.6184    1.1538  -11.9847 H         1 <0>         0.0675
     37 H12        -3.5430    0.3882   -9.8125 H         1 <0>         0.0613
     38 H13        -3.0362    1.4364   -8.4662 H         1 <0>         0.0753
     39 H14        -3.5987    2.1581   -9.9929 H         1 <0>         0.0702
     40 H15         0.6846   -0.6596   -3.6465 H         1 <0>         0.4193
     41 H16         0.2766   -2.8172   -5.4228 H         1 <0>         0.0908
     42 H17         1.8400   -2.0596   -5.8103 H         1 <0>         0.0939
     43 H18         2.5648   -2.3517   -3.4570 H         1 <0>         0.1391
     44 H19         1.0014   -3.1093   -3.0695 H         1 <0>         0.1364
     45 H20         4.1749   -3.5230   -4.7763 H         1 <0>         0.1257
     46 H21         3.7286   -5.0477   -5.5790 H         1 <0>         0.1279
     47 H22         3.0127   -3.5121   -6.1245 H         1 <0>         0.1250
     48 H23         1.8184   -5.2531   -2.5151 H         1 <0>         0.1231
     49 H24         3.0517   -6.0345   -3.5333 H         1 <0>         0.1273
     50 H25         3.4582   -4.5676   -2.6107 H         1 <0>         0.1250
     51 H26        -2.6203    3.4898   -1.9362 H         1 <0>         0.0857
     52 H27        -1.3305    4.6344   -2.3891 H         1 <0>         0.1194
     53 H28        -2.7178    1.5573   -0.2670 H         1 <0>         0.0780
     54 H29        -2.7822    1.4982   -2.0448 H         1 <0>         0.0644
     55 H30        -2.3141    0.0496   -1.1226 H         1 <0>         0.0667
     56 N4          2.2389   -4.2624   -4.3203 N.4       1 <0>        -0.3927
     57 H31         1.4785   -4.7510   -4.8075 H         1 <0>         0.4349
@<TRIPOS>BOND
     1    1    2 1
     2    1   26 1
     3    1   27 1
     4    1   28 1
     5    2    3 1
     6    2   29 1
     7    2   30 1
     8    3   24 1
     9    3    4 1
    10    3   25 1
    11    4    5 1
    12    4   31 1
    13    4   32 1
    14    5    9 1
    15    5    6 2
    16    6    7 1
    17    6   23 1
    18    7    8 1
    19    8   13 ar
    20    8    9 ar
    21    9   10 ar
    22   10   11 ar
    23   10   18 1
    24   11   12 ar
    25   12   13 ar
    26   12   14 1
    27   14   15 1
    28   15   16 1
    29   15   17 1
    30   15   33 1
    31   16   34 1
    32   16   35 1
    33   16   36 1
    34   17   37 1
    35   17   38 1
    36   17   39 1
    37   18   19 1
    38   18   40 1
    39   19   20 1
    40   19   41 1
    41   19   42 1
    42   20   43 1
    43   20   44 1
    44   20   56 1
    45   21   45 1
    46   21   46 1
    47   21   47 1
    48   21   56 1
    49   22   48 1
    50   22   49 1
    51   22   50 1
    52   22   56 1
    53   23   24 1
    54   23   51 1
    55   23   52 1
    56   25   53 1
    57   25   54 1
    58   25   55 1
    59   56   57 1
@<TRIPOS>MOLECULE
ZINC22472740
   58    60     0     0     0
SMALL
USER_CHARGES
4-tert-butyl-N-methyl-N-[3-[(2-oxochromen-4-yl)amino]propyl]benzamide
@<TRIPOS>ATOM
      1 C1        -10.9834    7.5434    1.8677 C.3       1 <0>        -0.1420
      2 C2        -11.3155    6.1742    1.2710 C.3       1 <0>        -0.0356
      3 C3        -11.8337    6.3525   -0.1575 C.3       1 <0>        -0.1486
      4 C4        -12.3896    5.4939    2.1221 C.3       1 <0>        -0.1430
      5 C5        -10.0740    5.3201    1.2520 C.ar      1 <0>        -0.0362
      6 C6         -9.4250    5.0219    2.4370 C.ar      1 <0>        -0.1237
      7 C7         -8.2881    4.2406    2.4266 C.ar      1 <0>        -0.0569
      8 C8         -7.7931    3.7503    1.2172 C.ar      1 <0>        -0.1482
      9 C9         -8.4498    4.0588    0.0249 C.ar      1 <0>        -0.1260
     10 C10        -9.5885    4.8373    0.0498 C.ar      1 <0>        -0.1303
     11 C11        -6.5748    2.9127    1.1986 C.2       1 <0>         0.5657
     12 O1         -6.2147    2.3411    2.2091 O.2       1 <0>        -0.5324
     13 N1         -5.8636    2.7830    0.0611 N.am      1 <0>        -0.6157
     14 C12        -6.2065    3.5890   -1.1132 C.3       1 <0>         0.0474
     15 C13        -4.7476    1.8360   -0.0010 C.3       1 <0>         0.1195
     16 C14        -3.4572    2.5399    0.4235 C.3       1 <0>        -0.1544
     17 C15        -2.2916    1.5509    0.3586 C.3       1 <0>         0.0961
     18 N2         -1.0560    2.2249    0.7650 N.pl3     1 <0>        -0.6618
     19 C16         0.1329    1.5299    0.7855 C.2       1 <0>         0.3868
     20 C17         0.1842    0.2067    0.4296 C.2       1 <0>        -0.3794
     21 C18         1.4093   -0.4717    0.4550 C.2       1 <0>         0.5217
     22 O2          1.4414   -1.6479    0.1363 O.3       1 <0>        -0.3626
     23 O3          2.5494    0.1362    0.8207 O.3       1 <0>        -0.2609
     24 C19         2.5761    1.4369    1.1839 C.ar      1 <0>         0.1524
     25 C20         1.3892    2.1867    1.1843 C.ar      1 <0>        -0.1681
     26 C21         1.4120    3.5309    1.5583 C.ar      1 <0>        -0.0498
     27 C22         2.6045    4.1153    1.9257 C.ar      1 <0>        -0.1131
     28 C23         3.7766    3.3745    1.9242 C.ar      1 <0>        -0.0374
     29 C24         3.7672    2.0446    1.5579 C.ar      1 <0>        -0.1148
     30 H1        -10.6108    7.4152    2.8947 H         1 <0>         0.0586
     31 H2        -11.8895    8.1669    1.8815 H         1 <0>         0.0640
     32 H3        -10.2111    8.0324    1.2558 H         1 <0>         0.0574
     33 H4        -12.0724    5.3681   -0.5865 H         1 <0>         0.0605
     34 H5        -11.0614    6.8416   -0.7693 H         1 <0>         0.0601
     35 H6        -12.7398    6.9760   -0.1437 H         1 <0>         0.0634
     36 H7        -12.6283    4.5095    1.6931 H         1 <0>         0.0583
     37 H8        -13.2957    6.1174    2.1360 H         1 <0>         0.0641
     38 H9        -12.0169    5.3657    3.1491 H         1 <0>         0.0589
     39 H10        -9.8091    5.4020    3.3721 H         1 <0>         0.1297
     40 H11        -7.7824    4.0085    3.3523 H         1 <0>         0.1316
     41 H12        -8.0693    3.6862   -0.9147 H         1 <0>         0.1679
     42 H13       -10.0998    5.0737   -0.8717 H         1 <0>         0.1347
     43 H14        -5.5202    3.3460   -1.9378 H         1 <0>         0.0788
     44 H15        -6.1168    4.6566   -0.8640 H         1 <0>         0.0711
     45 H16        -7.2400    3.3695   -1.4195 H         1 <0>         0.1003
     46 H17        -4.9448    0.9920    0.6764 H         1 <0>         0.0915
     47 H18        -4.6402    1.4628   -1.0302 H         1 <0>         0.0869
     48 H19        -3.2601    3.3839   -0.2538 H         1 <0>         0.0802
     49 H20        -3.5646    2.9131    1.4527 H         1 <0>         0.0855
     50 H21        -2.4887    0.7069    1.0360 H         1 <0>         0.0957
     51 H22        -2.1842    1.1777   -0.6706 H         1 <0>         0.0943
     52 H23        -1.0778    3.2861    1.0538 H         1 <0>         0.4490
     53 H24        -0.7159   -0.3100    0.1308 H         1 <0>         0.1833
     54 H25         0.5003    4.1099    1.5595 H         1 <0>         0.1444
     55 H26         2.6264    5.1554    2.2158 H         1 <0>         0.1539
     56 H27         4.7057    3.8429    2.2136 H         1 <0>         0.1593
     57 H28         4.6859    1.4767    1.5610 H         1 <0>         0.1600
     58 H29         2.3951   -2.1958    0.1506 H         1 <0>         0.5081
@<TRIPOS>BOND
     1    1    2 1
     2    1   30 1
     3    1   31 1
     4    1   32 1
     5    2    3 1
     6    2    4 1
     7    2    5 1
     8    3   33 1
     9    3   34 1
    10    3   35 1
    11    4   36 1
    12    4   37 1
    13    4   38 1
    14    5   10 ar
    15    5    6 ar
    16    6    7 ar
    17    6   39 1
    18    7    8 ar
    19    7   40 1
    20    8    9 ar
    21    8   11 1
    22    9   10 ar
    23    9   41 1
    24   10   42 1
    25   11   12 2
    26   11   13 am
    27   13   14 1
    28   13   15 1
    29   14   43 1
    30   14   44 1
    31   14   45 1
    32   15   16 1
    33   15   46 1
    34   15   47 1
    35   16   17 1
    36   16   48 1
    37   16   49 1
    38   17   18 1
    39   17   50 1
    40   17   51 1
    41   18   19 2
    42   18   52 1
    43   19   25 1
    44   19   20 1
    45   20   21 2
    46   20   53 1
    47   21   22 1
    48   21   23 1
    49   22   58 1
    50   23   24 1
    51   24   29 ar
    52   24   25 ar
    53   25   26 ar
    54   26   27 ar
    55   26   54 1
    56   27   28 ar
    57   27   55 1
    58   28   29 ar
    59   28   56 1
    60   29   57 1
@<TRIPOS>MOLECULE
ZINC22289342
   51    53     0     0     0
SMALL
USER_CHARGES

@<TRIPOS>ATOM
      1 C1          0.4531    1.4737    0.0515 C.3       1 <0>        -0.1452
      2 C2          0.2392   -0.0413    0.0486 C.3       1 <0>         0.1146
      3 C3          1.2624   -0.7026    0.9742 C.3       1 <0>        -0.2010
      4 C4         -1.1529   -0.3530    0.5345 C.2       1 <0>         0.4909
      5 O1         -1.9278   -0.9464   -0.1854 O.2       1 <0>        -0.4647
      6 N1         -1.5368    0.0277    1.7691 N.am      1 <0>        -0.6077
      7 C5         -2.8207   -0.2597    2.2172 C.2       1 <0>         0.2577
      8 N2         -3.3669    0.0351    3.3771 N.2       1 <0>        -0.5551
      9 C6         -4.6105   -0.3112    3.6534 C.2       1 <0>         0.0239
     10 C7         -5.2920   -0.9802    2.6912 C.2       1 <0>        -0.2602
     11 S1         -4.0566   -1.0631    1.4049 S.3       1 <0>         0.2977
     12 C8         -5.2440    0.0219    4.9796 C.3       1 <0>         0.0809
     13 N3         -4.8988   -1.0148    5.9614 N.4       1 <0>        -0.3809
     14 C9         -5.4904   -2.2934    5.5491 C.3       1 <0>        -0.0128
     15 C10        -5.0669   -3.3937    6.5245 C.3       1 <0>        -0.1445
     16 C11        -5.5522   -3.0351    7.9320 C.3       1 <0>        -0.1387
     17 C12        -4.9890   -1.6655    8.3221 C.3       1 <0>        -0.1458
     18 C13        -5.4154   -0.6292    7.2801 C.3       1 <0>        -0.0062
     19 O2          0.4037   -0.5431   -1.2792 O.3       1 <0>        -0.2733
     20 C14         0.2660   -1.8840   -1.4536 C.ar      1 <0>         0.1344
     21 C15        -0.1468   -2.6830   -0.3973 C.ar      1 <0>        -0.1817
     22 C16        -0.2862   -4.0456   -0.5765 C.ar      1 <0>        -0.0750
     23 C17        -0.0140   -4.6137   -1.8085 C.ar      1 <0>        -0.0652
     24 C18         0.3982   -3.8186   -2.8631 C.ar      1 <0>        -0.0685
     25 C19         0.5324   -2.4546   -2.6896 C.ar      1 <0>        -0.1288
     26 Cl1        -0.1894   -6.3264   -2.0310 Cl        1 <0>        -0.0633
     27 H1          1.4853    1.6954   -0.2195 H         1 <0>         0.0966
     28 H2         -0.2196    1.9369   -0.6703 H         1 <0>         0.0824
     29 H3          0.2459    1.8680    1.0463 H         1 <0>         0.0849
     30 H4          1.0094   -0.4829    2.0114 H         1 <0>         0.0786
     31 H5          1.2501   -1.7812    0.8178 H         1 <0>         0.0909
     32 H6          2.2567   -0.3146    0.7528 H         1 <0>         0.0980
     33 H7         -0.9170    0.5024    2.3449 H         1 <0>         0.4297
     34 H8         -6.3045   -1.3562    2.6992 H         1 <0>         0.2060
     35 H9         -4.8755    0.9875    5.3260 H         1 <0>         0.1431
     36 H10        -6.3269    0.0666    4.8639 H         1 <0>         0.1447
     37 H11        -6.5769   -2.2072    5.5489 H         1 <0>         0.1306
     38 H12        -5.1465   -2.5456    4.5460 H         1 <0>         0.1265
     39 H13        -5.5085   -4.3418    6.2177 H         1 <0>         0.1119
     40 H14        -3.9804   -3.4809    6.5254 H         1 <0>         0.0849
     41 H15        -6.6415   -2.9980    7.9435 H         1 <0>         0.0828
     42 H16        -5.2045   -3.7873    8.6401 H         1 <0>         0.0940
     43 H17        -5.3750   -1.3783    9.3001 H         1 <0>         0.1132
     44 H18        -3.9009   -1.7169    8.3602 H         1 <0>         0.0866
     45 H19        -5.0162    0.3471    7.5548 H         1 <0>         0.1311
     46 H20        -6.5036   -0.5785    7.2429 H         1 <0>         0.1303
     47 H21        -0.3587   -2.2400    0.5646 H         1 <0>         0.1241
     48 H22        -0.6075   -4.6679    0.2456 H         1 <0>         0.1333
     49 H23         0.6106   -4.2638   -3.8238 H         1 <0>         0.1451
     50 H24         0.8496   -1.8336   -3.5144 H         1 <0>         0.1447
     51 H25        -3.8955   -1.1106    6.0091 H         1 <0>         0.4245
@<TRIPOS>BOND
     1    1    2 1
     2    1   27 1
     3    1   28 1
     4    1   29 1
     5    2    3 1
     6    2    4 1
     7    2   19 1
     8    3   30 1
     9    3   31 1
    10    3   32 1
    11    4    5 2
    12    4    6 am
    13    6    7 1
    14    6   33 1
    15    7   11 1
    16    7    8 2
    17    8    9 1
    18    9   10 2
    19    9   12 1
    20   10   11 1
    21   10   34 1
    22   12   13 1
    23   12   35 1
    24   12   36 1
    25   13   18 1
    26   13   14 1
    27   13   51 1
    28   14   15 1
    29   14   37 1
    30   14   38 1
    31   15   16 1
    32   15   39 1
    33   15   40 1
    34   16   17 1
    35   16   41 1
    36   16   42 1
    37   17   18 1
    38   17   43 1
    39   17   44 1
    40   18   45 1
    41   18   46 1
    42   19   20 1
    43   20   25 ar
    44   20   21 ar
    45   21   22 ar
    46   21   47 1
    47   22   23 ar
    48   22   48 1
    49   23   24 ar
    50   23   26 1
    51   24   25 ar
    52   24   49 1
    53   25   50 1
@<TRIPOS>MOLECULE
ZINC41583901
   57    60     0     0     0
SMALL
USER_CHARGES

@<TRIPOS>ATOM
      1 C1         -0.0187    1.5258    0.0104 C.3       1 <0>        -0.1697
      2 C2          0.0021   -0.0041    0.0020 C.3       1 <0>        -0.1113
      3 H1         -1.0203   -0.3820    0.0097 H         1 <0>         0.1184
      4 C3          0.7207   -0.4988   -1.2566 C.3       1 <0>        -0.1288
      5 C4          2.1771   -0.0271   -1.2196 C.3       1 <0>        -0.1116
      6 H2          2.2075    1.0623   -1.2390 H         1 <0>         0.0947
      7 C5          2.8393   -0.5340    0.0633 C.3       1 <0>        -0.0063
      8 N1          2.1225   -0.0054    1.2301 N.4       1 <0>        -0.3813
      9 C6          0.7439   -0.5118    1.2403 C.3       1 <0>        -0.0061
     10 C7          2.8077   -0.4308    2.4579 C.3       1 <0>         0.0518
     11 C8          2.1462    0.2109    3.6503 C.ar      1 <0>        -0.2140
     12 C9          2.5812    1.4443    4.1053 C.ar      1 <0>         0.1987
     13 C10         1.9786    2.0482    5.2066 C.ar      1 <0>        -0.1669
     14 C11         0.9449    1.4300    5.8516 C.ar      1 <0>         0.0179
     15 C12         0.4943    0.1893    5.4029 C.ar      1 <0>        -0.2188
     16 C13         1.0951   -0.4304    4.2923 C.ar      1 <0>         0.1834
     17 O1          0.6634   -1.6338    3.8682 O.3       1 <0>        -0.2266
     18 C14        -0.5087   -2.1381    4.2598 C.2       1 <0>         0.1055
     19 C15        -1.2011   -1.6495    5.3222 C.2       1 <0>        -0.1863
     20 C16        -0.6242   -0.5092    6.0645 C.2       1 <0>         0.4234
     21 O2         -1.0543   -0.1578    7.1496 O.2       1 <0>        -0.4241
     22 C17        -2.4929   -2.2519    5.7319 C.ar      1 <0>        -0.0814
     23 C18        -2.5607   -3.0575    6.8663 C.ar      1 <0>        -0.0502
     24 C19        -3.7654   -3.6159    7.2434 C.ar      1 <0>        -0.1511
     25 C20        -4.9069   -3.3787    6.4983 C.ar      1 <0>        -0.0637
     26 C21        -4.8506   -2.5808    5.3710 C.ar      1 <0>        -0.2067
     27 C22        -3.6493   -2.0090    4.9846 C.ar      1 <0>         0.1422
     28 O3         -3.5941   -1.2195    3.8800 O.3       1 <0>        -0.3199
     29 C23        -4.8152   -1.0160    3.1663 C.3       1 <0>         0.0242
     30 O4          3.6054    2.0710    3.4721 O.3       1 <0>        -0.4832
     31 C24         2.9244   -0.5807   -2.4345 C.3       1 <0>        -0.1512
     32 H3          1.0039    1.9031    0.0027 H         1 <0>         0.0500
     33 H4         -0.5459    1.8868   -0.8726 H         1 <0>         0.0857
     34 H5         -0.5289    1.8773    0.9072 H         1 <0>         0.0709
     35 H6          0.6910   -1.5879   -1.2889 H         1 <0>         0.0840
     36 H7          0.2285   -0.0932   -2.1405 H         1 <0>         0.0950
     37 H8          2.8087   -1.6234    0.0815 H         1 <0>         0.1316
     38 H9          3.8765   -0.2001    0.0927 H         1 <0>         0.1325
     39 H10         0.2341   -0.1616    2.1378 H         1 <0>         0.1217
     40 H11         0.7579   -1.6017    1.2334 H         1 <0>         0.1335
     41 H12         2.7488   -1.5153    2.5497 H         1 <0>         0.1430
     42 H13         3.8533   -0.1260    2.4147 H         1 <0>         0.1486
     43 H14         2.3303    3.0091    5.5522 H         1 <0>         0.1570
     44 H15         0.4793    1.9000    6.7052 H         1 <0>         0.1588
     45 H16        -0.9244   -2.9689    3.7091 H         1 <0>         0.2056
     46 H17        -1.6715   -3.2453    7.4498 H         1 <0>         0.1311
     47 H18        -3.8171   -4.2404    8.1230 H         1 <0>         0.1325
     48 H19        -5.8461   -3.8193    6.7986 H         1 <0>         0.1320
     49 H20        -5.7449   -2.3992    4.7933 H         1 <0>         0.1340
     50 H21        -5.5471   -0.5479    3.8245 H         1 <0>         0.0599
     51 H22        -4.6313   -0.3687    2.3088 H         1 <0>         0.1007
     52 H23        -5.1986   -1.9762    2.8211 H         1 <0>         0.0598
     53 H24         3.3255    2.6536    2.7528 H         1 <0>         0.4024
     54 H25         2.4497   -0.2218   -3.3477 H         1 <0>         0.0774
     55 H26         3.9610   -0.2446   -2.4077 H         1 <0>         0.0688
     56 H27         2.8951   -1.6701   -2.4138 H         1 <0>         0.0678
     57 H28         2.1090    1.0026    1.1869 H         1 <0>         0.4146
@<TRIPOS>BOND
     1    1    2 1
     2    1   32 1
     3    1   33 1
     4    1   34 1
     5    2    3 1
     6    2    9 1
     7    2    4 1
     8    4    5 1
     9    4   35 1
    10    4   36 1
    11    5    6 1
    12    5    7 1
    13    5   31 1
    14    7    8 1
    15    7   37 1
    16    7   38 1
    17    8    9 1
    18    8   10 1
    19    8   57 1
    20    9   39 1
    21    9   40 1
    22   10   11 1
    23   10   41 1
    24   10   42 1
    25   11   16 ar
    26   11   12 ar
    27   12   13 ar
    28   12   30 1
    29   13   14 ar
    30   13   43 1
    31   14   15 ar
    32   14   44 1
    33   15   20 1
    34   15   16 ar
    35   16   17 1
    36   17   18 1
    37   18   19 2
    38   18   45 1
    39   19   20 1
    40   19   22 1
    41   20   21 2
    42   22   27 ar
    43   22   23 ar
    44   23   24 ar
    45   23   46 1
    46   24   25 ar
    47   24   47 1
    48   25   26 ar
    49   25   48 1
    50   26   27 ar
    51   26   49 1
    52   27   28 1
    53   28   29 1
    54   29   50 1
    55   29   51 1
    56   29   52 1
    57   30   53 1
    58   31   54 1
    59   31   55 1
    60   31   56 1
@<TRIPOS>MOLECULE
ZINC63571890
   60    64     0     0     0
SMALL
USER_CHARGES

@<TRIPOS>ATOM
      1 C1          1.5719    1.4059    1.1670 C.3       1 <0>        -0.1480
      2 C2          1.1054   -0.0406    0.9911 C.3       1 <0>        -0.0885
      3 C3          1.5859   -0.5654   -0.3374 C.ar      1 <0>        -0.0859
      4 C4          0.7999   -0.4124   -1.4647 C.ar      1 <0>        -0.0978
      5 C5          1.2374   -0.8921   -2.6837 C.ar      1 <0>        -0.1380
      6 C6          2.4681   -1.5287   -2.7765 C.ar      1 <0>         0.1388
      7 C7          3.2550   -1.6808   -1.6425 C.ar      1 <0>        -0.1160
      8 C8          2.8144   -1.1938   -0.4275 C.ar      1 <0>        -0.0993
      9 N1          2.9141   -2.0164   -4.0100 N.am      1 <0>        -0.6748
     10 C9          4.2309   -2.0200   -4.2970 C.2       1 <0>         0.7125
     11 O1          5.0394   -1.7030   -3.4461 O.2       1 <0>        -0.5537
     12 N2          4.6515   -2.3748   -5.5273 N.am      1 <0>        -0.6210
     13 C10         3.6690   -2.6066   -6.5911 C.3       1 <0>         0.0976
     14 C11         3.9666   -1.6703   -7.7766 C.3       1 <0>        -0.1036
     15 C12         5.4542   -1.7382   -8.0186 C.2       1 <0>         0.0612
     16 C13         6.1544   -1.9758   -9.1209 C.ar      1 <0>        -0.1658
     17 C14         5.7441   -2.1502  -10.5235 C.ar      1 <0>        -0.0053
     18 C15         6.7405   -2.4049  -11.4123 C.ar      1 <0>        -0.1550
     19 C16         8.0877   -2.5025  -11.0505 C.ar      1 <0>         0.0512
     20 C17         8.5554   -2.3483   -9.7861 C.ar      1 <0>        -0.2044
     21 C18         7.6029   -2.0680   -8.7638 C.ar      1 <0>         0.3383
     22 N3          7.7719   -1.8540   -7.4923 N.pl3     1 <0>        -0.5644
     23 C19         6.4709   -1.5408   -6.9002 C.3       1 <0>         0.0808
     24 H1          6.4516   -0.5117   -6.5414 H         1 <0>         0.1806
     25 C20         6.0920   -2.5197   -5.7904 C.3       1 <0>         0.2206
     26 H2          6.6573   -2.2883   -4.8876 H         1 <0>         0.1426
     27 C21         6.3907   -3.9288   -6.2337 C.ar      1 <0>        -0.1753
     28 C22         5.9236   -4.3822   -7.4535 C.ar      1 <0>        -0.0915
     29 C23         6.1956   -5.6736   -7.8619 C.ar      1 <0>        -0.1460
     30 C24         6.9386   -6.5155   -7.0472 C.ar      1 <0>         0.1547
     31 C25         7.4066   -6.0580   -5.8239 C.ar      1 <0>        -0.2021
     32 C26         7.1362   -4.7641   -5.4224 C.ar      1 <0>        -0.0446
     33 O2          7.2072   -7.7864   -7.4465 O.3       1 <0>        -0.3102
     34 C27         7.9777   -8.5969   -6.5567 C.3       1 <0>         0.0222
     35 H3          2.6607    1.4431    1.1340 H         1 <0>         0.0554
     36 H4          1.1628    2.0197    0.3645 H         1 <0>         0.0555
     37 H5          1.2243    1.7854    2.1279 H         1 <0>         0.0610
     38 H6          1.5144   -0.6544    1.7936 H         1 <0>         0.0739
     39 H7          0.0165   -0.0778    1.0241 H         1 <0>         0.0742
     40 H8         -0.1573    0.0825   -1.3919 H         1 <0>         0.1289
     41 H9          0.6229   -0.7727   -3.5638 H         1 <0>         0.1250
     42 H10         4.2125   -2.1757   -1.7113 H         1 <0>         0.1425
     43 H11         3.4279   -1.3078    0.4540 H         1 <0>         0.1268
     44 H12         2.2754   -2.3519   -4.6585 H         1 <0>         0.4072
     45 H13         3.7299   -3.6432   -6.9225 H         1 <0>         0.0966
     46 H14         2.6676   -2.4047   -6.2110 H         1 <0>         0.1097
     47 H15         3.4288   -2.0077   -8.6626 H         1 <0>         0.1266
     48 H16         3.6753   -0.6497   -7.5282 H         1 <0>         0.1302
     49 H17         4.7105   -2.0803  -10.8290 H         1 <0>         0.1693
     50 H18         6.4782   -2.5392  -12.4513 H         1 <0>         0.1545
     51 H19         8.8043   -2.7154  -11.8300 H         1 <0>         0.1567
     52 H20         9.6086   -2.4343   -9.5632 H         1 <0>         0.1674
     53 H21         5.3452   -3.7264   -8.0873 H         1 <0>         0.1291
     54 H22         5.8299   -6.0275   -8.8144 H         1 <0>         0.1381
     55 H23         7.9852   -6.7115   -5.1879 H         1 <0>         0.1393
     56 H24         7.5040   -4.4060   -4.4722 H         1 <0>         0.1342
     57 H25         8.9488   -8.1309   -6.3897 H         1 <0>         0.0605
     58 H26         7.4527   -8.6932   -5.6064 H         1 <0>         0.0618
     59 H27         8.1192   -9.5846   -6.9955 H         1 <0>         0.1100
     60 H28         8.6165   -1.8953   -7.0172 H         1 <0>         0.4557
@<TRIPOS>BOND
     1    1    2 1
     2    1   35 1
     3    1   36 1
     4    1   37 1
     5    2    3 1
     6    2   38 1
     7    2   39 1
     8    3    8 ar
     9    3    4 ar
    10    4    5 ar
    11    4   40 1
    12    5    6 ar
    13    5   41 1
    14    6    7 ar
    15    6    9 1
    16    7    8 ar
    17    7   42 1
    18    8   43 1
    19    9   10 am
    20    9   44 1
    21   10   11 2
    22   10   12 am
    23   12   25 1
    24   12   13 1
    25   13   14 1
    26   13   45 1
    27   13   46 1
    28   14   15 1
    29   14   47 1
    30   14   48 1
    31   15   23 1
    32   15   16 2
    33   16   21 ar
    34   16   17 ar
    35   17   18 ar
    36   17   49 1
    37   18   19 ar
    38   18   50 1
    39   19   20 ar
    40   19   51 1
    41   20   21 ar
    42   20   52 1
    43   21   22 2
    44   22   23 1
    45   22   60 1
    46   23   24 1
    47   23   25 1
    48   25   26 1
    49   25   27 1
    50   27   32 ar
    51   27   28 ar
    52   28   29 ar
    53   28   53 1
    54   29   30 ar
    55   29   54 1
    56   30   31 ar
    57   30   33 1
    58   31   32 ar
    59   31   55 1
    60   32   56 1
    61   33   34 1
    62   34   57 1
    63   34   58 1
    64   34   59 1
@<TRIPOS>MOLECULE
ZINC67295358
   52    55     0     0     0
SMALL
USER_CHARGES

@<TRIPOS>ATOM
      1 C1         -0.0072    1.5503   -0.0131 C.3       1 <0>        -0.1500
      2 C2         -0.0009    0.0203   -0.0261 C.3       1 <0>        -0.0615
      3 C3         -1.4412   -0.4956   -0.0346 C.3       1 <0>        -0.1488
      4 C4          0.7151   -0.4685   -1.2588 C.ar      1 <0>        -0.0523
      5 C5          0.2462   -0.1198   -2.5134 C.ar      1 <0>        -0.0739
      6 C6          0.8969   -0.5643   -3.6507 C.ar      1 <0>        -0.0956
      7 C7          2.0188   -1.3594   -3.5411 C.ar      1 <0>        -0.0949
      8 C8          2.4981   -1.7150   -2.2781 C.ar      1 <0>         0.0259
      9 C9          1.8391   -1.2577   -1.1339 C.ar      1 <0>        -0.0877
     10 N1          3.6095   -2.5032   -2.1620 N.pl3     1 <0>        -0.4605
     11 C10         3.7395   -3.5723   -2.9172 C.2       1 <0>         0.5207
     12 C11         4.9830   -4.3680   -2.9016 C.2       1 <0>        -0.2637
     13 C12         4.8779   -5.7124   -3.2330 C.2       1 <0>         0.1264
     14 C13         3.5457   -6.2207   -3.5676 C.ar      1 <0>        -0.1724
     15 C14         3.3036   -7.5970   -3.6512 C.ar      1 <0>        -0.0296
     16 C15         2.0512   -8.0471   -3.9621 C.ar      1 <0>        -0.1190
     17 C16         1.0177   -7.1512   -4.1949 C.ar      1 <0>        -0.0292
     18 C17         1.2353   -5.7901   -4.1182 C.ar      1 <0>        -0.1145
     19 C18         2.4990   -5.3103   -3.8067 C.ar      1 <0>         0.1269
     20 O1          2.7321   -3.9808   -3.7304 O.3       1 <0>        -0.2048
     21 C19         6.2786   -3.7620   -2.5503 C.2       1 <0>         0.5798
     22 O2          6.3282   -2.6046   -2.1799 O.2       1 <0>        -0.5307
     23 N2          7.4093   -4.4901   -2.6392 N.am      1 <0>        -0.7058
     24 C20         8.6821   -3.9251   -2.1842 C.3       1 <0>         0.2058
     25 C21         9.7822   -4.9340   -2.3913 C.2       1 <0>        -0.0644
     26 C22        10.5393   -5.0567   -3.4963 C.2       1 <0>        -0.1664
     27 C23        11.4385   -6.1219   -3.2606 C.2       1 <0>        -0.2187
     28 C24        11.1771   -6.5865   -2.0256 C.2       1 <0>        -0.0131
     29 O3         10.1768   -5.8594   -1.5016 O.3       1 <0>        -0.1712
     30 H1          1.0189    1.9178   -0.0071 H         1 <0>         0.0592
     31 H2         -0.5201    1.9190   -0.9014 H         1 <0>         0.0609
     32 H3         -0.5251    1.9039    0.8785 H         1 <0>         0.0687
     33 H4          0.5120   -0.3485    0.8622 H         1 <0>         0.0848
     34 H5         -1.9541   -0.1268   -0.9229 H         1 <0>         0.0608
     35 H6         -1.4367   -1.5856   -0.0439 H         1 <0>         0.0570
     36 H7         -1.9591   -0.1420    0.8570 H         1 <0>         0.0686
     37 H8         -0.6319    0.5022   -2.6052 H         1 <0>         0.1428
     38 H9          0.5252   -0.2886   -4.6265 H         1 <0>         0.1464
     39 H10         2.5253   -1.7063   -4.4297 H         1 <0>         0.1357
     40 H11         2.2066   -1.5251   -0.1543 H         1 <0>         0.1421
     41 H12         5.7441   -6.3573   -3.2439 H         1 <0>         0.1846
     42 H13         4.1033   -8.3002   -3.4712 H         1 <0>         0.1578
     43 H14         1.8645   -9.1089   -4.0274 H         1 <0>         0.1551
     44 H15         0.0331   -7.5224   -4.4382 H         1 <0>         0.1597
     45 H16         0.4242   -5.1008   -4.3009 H         1 <0>         0.1588
     46 H17         7.3803   -5.3882   -3.0045 H         1 <0>         0.4072
     47 H18         8.9040   -3.0233   -2.7549 H         1 <0>         0.1117
     48 H19         8.6114   -3.6767   -1.1253 H         1 <0>         0.0981
     49 H20        10.4727   -4.4569   -4.3920 H         1 <0>         0.1535
     50 H21        12.1907   -6.4919   -3.9415 H         1 <0>         0.1560
     51 H22        11.6877   -7.4030   -1.5367 H         1 <0>         0.2107
     52 H23         4.3020   -2.2739   -1.5226 H         1 <0>         0.4631
@<TRIPOS>BOND
     1    1    2 1
     2    1   30 1
     3    1   31 1
     4    1   32 1
     5    2    3 1
     6    2    4 1
     7    2   33 1
     8    3   34 1
     9    3   35 1
    10    3   36 1
    11    4    9 ar
    12    4    5 ar
    13    5    6 ar
    14    5   37 1
    15    6    7 ar
    16    6   38 1
    17    7    8 ar
    18    7   39 1
    19    8    9 ar
    20    8   10 1
    21    9   40 1
    22   10   11 2
    23   10   52 1
    24   11   20 1
    25   11   12 1
    26   12   13 2
    27   12   21 1
    28   13   14 1
    29   13   41 1
    30   14   19 ar
    31   14   15 ar
    32   15   16 ar
    33   15   42 1
    34   16   17 ar
    35   16   43 1
    36   17   18 ar
    37   17   44 1
    38   18   19 ar
    39   18   45 1
    40   19   20 1
    41   21   22 2
    42   21   23 am
    43   23   24 1
    44   23   46 1
    45   24   25 1
    46   24   47 1
    47   24   48 1
    48   25   29 1
    49   25   26 2
    50   26   27 1
    51   26   49 1
    52   27   28 2
    53   27   50 1
    54   28   29 1
    55   28   51 1
@<TRIPOS>MOLECULE
ZINC14012416
   49    53     0     0     0
SMALL
USER_CHARGES
N-benzyl-2-[(4-fluorophenyl)-oxo-BLAHyl]acetamide
@<TRIPOS>ATOM
      1 C1          9.6590    3.3131   -6.0427 C.ar      1 <0>        -0.1094
      2 C2          8.6516    4.2570   -5.9716 C.ar      1 <0>        -0.1215
      3 C3          7.9595    4.4415   -4.7893 C.ar      1 <0>        -0.1003
      4 C4          8.2752    3.6823   -3.6780 C.ar      1 <0>        -0.1150
      5 C5          9.2864    2.7424   -3.7475 C.ar      1 <0>        -0.0998
      6 C6          9.9750    2.5543   -4.9313 C.ar      1 <0>        -0.1209
      7 C7          7.5210    3.8837   -2.3889 C.3       1 <0>         0.1617
      8 N1          6.3561    2.9958   -2.3608 N.am      1 <0>        -0.7218
      9 C8          5.5288    3.0029   -1.2969 C.2       1 <0>         0.5226
     10 O1          5.7487    3.7444   -0.3627 O.2       1 <0>        -0.5343
     11 C9          4.3305    2.0895   -1.2680 C.3       1 <0>        -0.1613
     12 C10         3.4830    2.3989   -0.0323 C.3       1 <0>         0.1334
     13 H1          4.1168    2.3008    0.8491 H         1 <0>         0.1272
     14 C11         2.9999    3.8530   -0.1250 C.3       1 <0>        -0.0907
     15 S1          1.1841    3.6250   -0.0782 S.3       1 <0>         0.0111
     16 C12         1.1188    1.8498    0.0462 C.2       1 <0>         0.4236
     17 N2          2.4109    1.4081    0.0547 N.am      1 <0>        -0.5576
     18 C13         2.6129    0.0535    0.1449 C.2       1 <0>         0.5873
     19 O2          3.7456   -0.3953    0.1570 O.2       1 <0>        -0.5108
     20 C14         1.5061   -0.8182    0.2241 C.2       1 <0>        -0.3447
     21 C15         1.3617   -2.2189    0.3235 C.2       1 <0>         0.1494
     22 N3          0.0896   -2.5017    0.3648 N.2       1 <0>        -0.2604
     23 N4         -0.6565   -1.3186    0.2957 N.pl3     1 <0>        -0.3025
     24 C16         0.2113   -0.2733    0.2085 C.2       1 <0>         0.3676
     25 N5          0.0761    1.0534    0.1191 N.2       1 <0>        -0.5052
     26 C17        -2.0546   -1.2265    0.3140 C.ar      1 <0>         0.1320
     27 C18        -2.6727   -0.1564    0.9471 C.ar      1 <0>        -0.0788
     28 C19        -4.0506   -0.0643    0.9587 C.ar      1 <0>        -0.1329
     29 C20        -4.8162   -1.0447    0.3500 C.ar      1 <0>         0.1063
     30 C21        -4.2018   -2.1158   -0.2770 C.ar      1 <0>        -0.1371
     31 C22        -2.8240   -2.2084   -0.2961 C.ar      1 <0>        -0.0743
     32 F1         -6.1641   -0.9560    0.3676 F         1 <0>        -0.1319
     33 H2         10.1995    3.1688   -6.9666 H         1 <0>         0.1247
     34 H3          8.4050    4.8501   -6.8398 H         1 <0>         0.1254
     35 H4          7.1724    5.1789   -4.7337 H         1 <0>         0.1243
     36 H5          9.5360    2.1524   -2.8780 H         1 <0>         0.1245
     37 H6         10.7623    1.8172   -4.9868 H         1 <0>         0.1255
     38 H7          7.1898    4.9199   -2.3198 H         1 <0>         0.0800
     39 H8          8.1734    3.6539   -1.5465 H         1 <0>         0.0796
     40 H9          6.1802    2.4028   -3.1080 H         1 <0>         0.4047
     41 H10         4.6647    1.0528   -1.2291 H         1 <0>         0.1259
     42 H11         3.7332    2.2452   -2.1664 H         1 <0>         0.1036
     43 H12         3.3442    4.4360    0.7292 H         1 <0>         0.1431
     44 H13         3.3136    4.3116   -1.0627 H         1 <0>         0.1309
     45 H14         2.1689   -2.9355    0.3597 H         1 <0>         0.2076
     46 H15        -2.0761    0.6059    1.4261 H         1 <0>         0.1456
     47 H16        -4.5316    0.7706    1.4465 H         1 <0>         0.1490
     48 H17        -4.8006   -2.8790   -0.7518 H         1 <0>         0.1485
     49 H18        -2.3453   -3.0436   -0.7855 H         1 <0>         0.1462
@<TRIPOS>BOND
     1    1    6 ar
     2    1    2 ar
     3    1   33 1
     4    2    3 ar
     5    2   34 1
     6    3    4 ar
     7    3   35 1
     8    4    5 ar
     9    4    7 1
    10    5    6 ar
    11    5   36 1
    12    6   37 1
    13    7    8 1
    14    7   38 1
    15    7   39 1
    16    8    9 am
    17    8   40 1
    18    9   10 2
    19    9   11 1
    20   11   12 1
    21   11   41 1
    22   11   42 1
    23   12   13 1
    24   12   17 1
    25   12   14 1
    26   14   15 1
    27   14   43 1
    28   14   44 1
    29   15   16 1
    30   16   25 2
    31   16   17 1
    32   17   18 am
    33   18   19 2
    34   18   20 1
    35   20   24 2
    36   20   21 1
    37   21   22 2
    38   21   45 1
    39   22   23 1
    40   23   24 1
    41   23   26 1
    42   24   25 1
    43   26   31 ar
    44   26   27 ar
    45   27   28 ar
    46   27   46 1
    47   28   29 ar
    48   28   47 1
    49   29   30 ar
    50   29   32 1
    51   30   31 ar
    52   30   48 1
    53   31   49 1
@<TRIPOS>MOLECULE
ZINC22008549
   53    56     0     0     0
SMALL
USER_CHARGES
3-[4-oxo-5-(p-tolyl)thieno[2,3-d]pyrimidin-3-yl]-N-(1,3,5-trimethylpyrazol-4-yl)propanamide
@<TRIPOS>ATOM
      1 C1          3.8323    5.3077   -4.7875 C.3       1 <0>        -0.1186
      2 C2          2.5528    5.0348   -4.0395 C.ar      1 <0>        -0.0778
      3 C3          1.8491    3.8685   -4.2808 C.ar      1 <0>        -0.1274
      4 C4          0.6768    3.6131   -3.5989 C.ar      1 <0>        -0.0979
      5 C5          0.2021    4.5333   -2.6652 C.ar      1 <0>        -0.0507
      6 C6          0.9157    5.7070   -2.4262 C.ar      1 <0>        -0.0528
      7 C7          2.0865    5.9517   -3.1145 C.ar      1 <0>        -0.1248
      8 C8         -1.0596    4.2677   -1.9339 C.2       1 <0>        -0.0140
      9 C9         -2.1839    3.9148   -2.6027 C.2       1 <0>        -0.1821
     10 S1         -3.3891    3.7116   -1.3051 S.3       1 <0>         0.1522
     11 C10        -2.3681    4.1098    0.0901 C.2       1 <0>         0.1041
     12 C11        -1.1158    4.3871   -0.4819 C.2       1 <0>        -0.2414
     13 C12        -0.0796    4.7458    0.4383 C.2       1 <0>         0.5487
     14 O1          1.0422    5.0041    0.0370 O.2       1 <0>        -0.5043
     15 N1         -0.3626    4.7932    1.7532 N.am      1 <0>        -0.5302
     16 C13        -1.6061    4.5082    2.2178 C.2       1 <0>         0.3895
     17 N2         -2.5721    4.1783    1.4031 N.2       1 <0>        -0.4922
     18 C14         0.6918    5.1599    2.7019 C.3       1 <0>         0.1042
     19 C15         0.6919    6.6766    2.9031 C.3       1 <0>        -0.1558
     20 C16         1.7765    7.0538    3.8790 C.2       1 <0>         0.5240
     21 O2          2.4803    6.1941    4.3657 O.2       1 <0>        -0.5244
     22 N3          1.9645    8.3465    4.2110 N.am      1 <0>        -0.6570
     23 C17         2.9060    8.6894    5.1996 C.2       1 <0>        -0.0100
     24 C18         2.9059    8.2452    6.5300 C.2       1 <0>         0.0927
     25 N4          3.9359    8.7728    7.1401 N.2       1 <0>        -0.2875
     26 N5          4.6248    9.5799    6.2258 N.pl3     1 <0>        -0.3709
     27 C19         3.9724    9.5136    5.0365 C.2       1 <0>         0.0806
     28 C20         4.3617   10.2252    3.7664 C.3       1 <0>        -0.0937
     29 C21         5.8345   10.3583    6.5034 C.3       1 <0>         0.0987
     30 C22         1.8945    7.3156    7.1495 C.3       1 <0>        -0.0792
     31 H1          4.0410    4.4735   -5.4735 H         1 <0>         0.0653
     32 H2          4.6610    5.4097   -4.0714 H         1 <0>         0.0697
     33 H3          3.7287    6.2391   -5.3635 H         1 <0>         0.0698
     34 H4          2.2176    3.1566   -5.0045 H         1 <0>         0.1224
     35 H5          0.1280    2.7025   -3.7883 H         1 <0>         0.1216
     36 H6          0.5526    6.4235   -1.7044 H         1 <0>         0.1155
     37 H7          2.6401    6.8605   -2.9303 H         1 <0>         0.1197
     38 H8         -2.3175    3.7860   -3.6666 H         1 <0>         0.1986
     39 H9         -1.7999    4.5556    3.2792 H         1 <0>         0.2174
     40 H10         0.5074    4.6622    3.6654 H         1 <0>         0.1100
     41 H11         1.6678    4.8425    2.3061 H         1 <0>         0.1149
     42 H12         0.8763    7.1743    1.9396 H         1 <0>         0.1043
     43 H13        -0.2841    6.9941    3.2989 H         1 <0>         0.1040
     44 H14         1.3822    9.1335    3.7094 H         1 <0>         0.4265
     45 H15         5.2699   10.8201    3.9431 H         1 <0>         0.0730
     46 H16         3.5432   10.8899    3.4529 H         1 <0>         0.0851
     47 H17         4.5561    9.4850    2.9762 H         1 <0>         0.0851
     48 H18         6.1447   10.8911    5.5924 H         1 <0>         0.0937
     49 H19         6.6401    9.6818    6.8248 H         1 <0>         0.0836
     50 H20         5.6269   11.0864    7.3014 H         1 <0>         0.0833
     51 H21         2.1509    7.1462    8.2057 H         1 <0>         0.0730
     52 H22         1.9012    6.3558    6.6121 H         1 <0>         0.0873
     53 H23         0.8932    7.7662    7.0829 H         1 <0>         0.0742
@<TRIPOS>BOND
     1    1    2 1
     2    1   31 1
     3    1   32 1
     4    1   33 1
     5    2    7 ar
     6    2    3 ar
     7    3    4 ar
     8    3   34 1
     9    4    5 ar
    10    4   35 1
    11    5    6 ar
    12    5    8 1
    13    6    7 ar
    14    6   36 1
    15    7   37 1
    16    8   12 1
    17    8    9 2
    18    9   10 1
    19    9   38 1
    20   10   11 1
    21   11   17 1
    22   11   12 2
    23   12   13 1
    24   13   14 2
    25   13   15 am
    26   15   16 1
    27   15   18 1
    28   16   17 2
    29   16   39 1
    30   18   19 1
    31   18   40 1
    32   18   41 1
    33   19   20 1
    34   19   42 1
    35   19   43 1
    36   20   21 2
    37   20   22 am
    38   22   23 1
    39   22   44 1
    40   23   27 2
    41   23   24 1
    42   24   25 2
    43   24   30 1
    44   25   26 1
    45   26   27 1
    46   26   29 1
    47   27   28 1
    48   28   45 1
    49   28   46 1
    50   28   47 1
    51   29   48 1
    52   29   49 1
    53   29   50 1
    54   30   51 1
    55   30   52 1
    56   30   53 1
@<TRIPOS>MOLECULE
ZINC02725072
   50    53     0     0     0
SMALL
USER_CHARGES

@<TRIPOS>ATOM
      1 C1         -1.3202    0.6087    0.1305 C.3       1 <0>        -0.1111
      2 C2         -0.1769   -0.3694    0.0449 C.ar      1 <0>        -0.0622
      3 C3          0.0460   -1.0719   -1.1235 C.ar      1 <0>        -0.1055
      4 C4          1.0947   -1.9694   -1.2028 C.ar      1 <0>        -0.1054
      5 C5          1.9235   -2.1669   -0.1133 C.ar      1 <0>        -0.1068
      6 C6          1.7060   -1.4673    1.0573 C.ar      1 <0>        -0.1217
      7 C7          0.6567   -0.5612    1.1383 C.ar      1 <0>         0.1330
      8 N1          0.4366    0.1542    2.3232 N.pl3     1 <0>        -0.3181
      9 C8          0.4109   -0.3629    3.5766 C.2       1 <0>         0.3328
     10 C9          0.1669    0.6735    4.4490 C.2       1 <0>        -0.2234
     11 C10         0.0439    1.8343    3.7041 C.2       1 <0>         0.0885
     12 N2          0.2105    1.5278    2.4255 N.2       1 <0>        -0.2564
     13 C11        -0.2318    3.1218    4.4788 C.3       1 <0>        -0.3384
     14 S1         -0.7598    2.4703    6.1164 S.o       1 <0>         1.2234
     15 O1         -0.1110    3.2007    7.1483 O.2       1 <0>        -0.8416
     16 C12         0.0122    0.8077    5.9625 C.3       1 <0>        -0.3108
     17 N3          0.5973   -1.7007    3.9192 N.am      1 <0>        -0.6496
     18 C13         1.0819   -2.0239    5.1346 C.2       1 <0>         0.5617
     19 O2          1.4599   -1.1496    5.8906 O.2       1 <0>        -0.4630
     20 C14         1.1538   -3.4381    5.5478 C.ar      1 <0>        -0.1209
     21 C15         0.8279   -4.4521    4.6420 C.ar      1 <0>        -0.1119
     22 C16         0.8966   -5.7717    5.0313 C.ar      1 <0>        -0.0882
     23 C17         1.2878   -6.1021    6.3187 C.ar      1 <0>        -0.1684
     24 C18         1.6137   -5.1095    7.2270 C.ar      1 <0>         0.1022
     25 C19         1.5542   -3.7720    6.8470 C.ar      1 <0>         0.1327
     26 O3          1.8783   -2.7960    7.7330 O.3       1 <0>        -0.3064
     27 C20         0.8514   -2.3659    8.6288 C.3       1 <0>         0.0457
     28 O4          1.9964   -5.4416    8.4891 O.3       1 <0>        -0.3029
     29 C21         2.0399   -6.8337    8.8087 C.3       1 <0>         0.0227
     30 H1         -0.9573    1.6121   -0.0924 H         1 <0>         0.0823
     31 H2         -2.0897    0.3321   -0.5903 H         1 <0>         0.0686
     32 H3         -1.7404    0.5894    1.1360 H         1 <0>         0.0677
     33 H4         -0.5997   -0.9200   -1.9758 H         1 <0>         0.1354
     34 H5          1.2668   -2.5177   -2.1172 H         1 <0>         0.1329
     35 H6          2.7414   -2.8692   -0.1780 H         1 <0>         0.1348
     36 H7          2.3535   -1.6219    1.9077 H         1 <0>         0.1273
     37 H8          0.6730    3.7225    4.5715 H         1 <0>         0.1139
     38 H9         -1.0322    3.6948    4.0107 H         1 <0>         0.1384
     39 H10        -0.6455    0.0334    6.3574 H         1 <0>         0.1158
     40 H11         0.9830    0.7824    6.4574 H         1 <0>         0.1194
     41 H12         0.3783   -2.3993    3.2829 H         1 <0>         0.4121
     42 H13         0.5219   -4.2009    3.6372 H         1 <0>         0.1306
     43 H14         0.6439   -6.5527    4.3295 H         1 <0>         0.1390
     44 H15         1.3385   -7.1394    6.6152 H         1 <0>         0.1408
     45 H16         0.5813   -3.1869    9.2929 H         1 <0>         0.0469
     46 H17         1.2137   -1.5246    9.2198 H         1 <0>         0.0970
     47 H18        -0.0240   -2.0580    8.0570 H         1 <0>         0.0440
     48 H19         1.0481   -7.2672    8.6798 H         1 <0>         0.0582
     49 H20         2.7450   -7.3366    8.1469 H         1 <0>         0.0589
     50 H21         2.3596   -6.9592    9.8432 H         1 <0>         0.1057
@<TRIPOS>BOND
     1    1    2 1
     2    1   30 1
     3    1   31 1
     4    1   32 1
     5    2    7 ar
     6    2    3 ar
     7    3    4 ar
     8    3   33 1
     9    4    5 ar
    10    4   34 1
    11    5    6 ar
    12    5   35 1
    13    6    7 ar
    14    6   36 1
    15    7    8 1
    16    8   12 1
    17    8    9 1
    18    9   10 2
    19    9   17 1
    20   10   16 1
    21   10   11 1
    22   11   12 2
    23   11   13 1
    24   13   14 1
    25   13   37 1
    26   13   38 1
    27   14   15 2
    28   14   16 1
    29   16   39 1
    30   16   40 1
    31   17   18 am
    32   17   41 1
    33   18   19 2
    34   18   20 1
    35   20   25 ar
    36   20   21 ar
    37   21   22 ar
    38   21   42 1
    39   22   23 ar
    40   22   43 1
    41   23   24 ar
    42   23   44 1
    43   24   25 ar
    44   24   28 1
    45   25   26 1
    46   26   27 1
    47   27   45 1
    48   27   46 1
    49   27   47 1
    50   28   29 1
    51   29   48 1
    52   29   49 1
    53   29   50 1
@<TRIPOS>MOLECULE
ZINC41078271
   54    58     0     0     0
SMALL
USER_CHARGES

@<TRIPOS>ATOM
      1 C1         -0.4145    1.8088    0.8571 C.3       1 <0>        -0.1173
      2 C2         -0.3479    0.3080    0.7375 C.ar      1 <0>        -0.0461
      3 C3         -0.3433   -0.2860   -0.5113 C.ar      1 <0>        -0.1550
      4 C4         -0.2823   -1.6624   -0.6243 C.ar      1 <0>        -0.0748
      5 C5         -0.2260   -2.4482    0.5108 C.ar      1 <0>        -0.2114
      6 C6         -0.2304   -1.8548    1.7645 C.ar      1 <0>         0.1313
      7 C7         -0.2857   -0.4727    1.8752 C.ar      1 <0>        -0.1509
      8 O1         -0.1751   -2.6254    2.8825 O.3       1 <0>        -0.3118
      9 C8         -0.1141   -4.0404    2.6927 C.3       1 <0>         0.0444
     10 C9         -0.0578   -4.7357    4.0544 C.3       1 <0>         0.1049
     11 N1          0.0047   -6.1864    3.8598 N.pl3     1 <0>        -0.4491
     12 C10        -1.0640   -7.0071    3.8680 C.2       1 <0>         0.1339
     13 C11        -0.6499   -8.3080    3.6551 C.2       1 <0>        -0.2314
     14 C12         0.8180   -8.2523    3.5051 C.ar      1 <0>        -0.0636
     15 C13         1.1661   -6.8989    3.6370 C.ar      1 <0>         0.0784
     16 C14         2.5025   -6.5265    3.5352 C.ar      1 <0>        -0.1152
     17 C15         3.4676   -7.4829    3.3034 C.ar      1 <0>        -0.0981
     18 C16         3.1207   -8.8188    3.1696 C.ar      1 <0>        -0.1232
     19 C17         1.8025   -9.2084    3.2761 C.ar      1 <0>        -0.0789
     20 C18        -1.4667   -9.4600    3.5938 C.2       1 <0>         0.1265
     21 C19        -2.7837   -9.3528    3.1865 C.2       1 <0>        -0.2964
     22 C20        -3.3381   -8.0885    2.6181 C.2       1 <0>         0.4796
     23 N2         -2.6280   -7.2323    1.9289 N.2       1 <0>        -0.6890
     24 N3         -4.6867   -7.9175    2.8986 N.pl3     1 <0>        -0.4159
     25 C21        -5.4930   -8.9862    3.2005 C.2       1 <0>         0.4795
     26 N4         -5.0494  -10.2312    3.3593 N.2       1 <0>        -0.5773
     27 C22        -3.7319  -10.4869    3.2810 C.2       1 <0>         0.5436
     28 O2         -3.3210  -11.6367    3.2922 O.2       1 <0>        -0.4744
     29 C23        -6.7974   -8.4824    3.3093 C.2       1 <0>        -0.2537
     30 C24        -6.7531   -7.1437    3.1353 C.2       1 <0>         0.1258
     31 O3         -5.4812   -6.7635    2.9284 O.3       1 <0>        -0.0436
     32 C25        -7.9440   -6.2208    3.1685 C.3       1 <0>        -0.0921
     33 H1          0.5957    2.2181    0.8624 H         1 <0>         0.0751
     34 H2         -0.9673    2.2165    0.0107 H         1 <0>         0.0708
     35 H3         -0.9202    2.0773    1.7846 H         1 <0>         0.0694
     36 H4         -0.3880    0.3265   -1.3997 H         1 <0>         0.1256
     37 H5         -0.2789   -2.1240   -1.6007 H         1 <0>         0.1264
     38 H6         -0.1790   -3.5235    0.4219 H         1 <0>         0.1251
     39 H7         -0.2844   -0.0081    2.8501 H         1 <0>         0.1311
     40 H8         -0.9998   -4.3729    2.1512 H         1 <0>         0.0759
     41 H9          0.7781   -4.2919    2.1192 H         1 <0>         0.0710
     42 H10         0.8278   -4.4032    4.5958 H         1 <0>         0.1079
     43 H11        -0.9500   -4.4843    4.6279 H         1 <0>         0.1085
     44 H12        -2.0872   -6.6958    4.0184 H         1 <0>         0.1786
     45 H13         2.7836   -5.4888    3.6374 H         1 <0>         0.1235
     46 H14         4.5038   -7.1890    3.2247 H         1 <0>         0.1316
     47 H15         3.8869   -9.5579    2.9878 H         1 <0>         0.1308
     48 H16         1.5340  -10.2492    3.1704 H         1 <0>         0.1304
     49 H17        -1.0622  -10.4239    3.8651 H         1 <0>         0.1586
     50 H18        -1.7139   -7.4459    1.6845 H         1 <0>         0.3737
     51 H19        -7.6861   -9.0658    3.4994 H         1 <0>         0.1923
     52 H20        -8.1042   -5.8710    4.1884 H         1 <0>         0.1078
     53 H21        -7.7604   -5.3670    2.5162 H         1 <0>         0.0946
     54 H22        -8.8288   -6.7568    2.8250 H         1 <0>         0.1124
@<TRIPOS>BOND
     1    1    2 1
     2    1   33 1
     3    1   34 1
     4    1   35 1
     5    2    7 ar
     6    2    3 ar
     7    3    4 ar
     8    3   36 1
     9    4    5 ar
    10    4   37 1
    11    5    6 ar
    12    5   38 1
    13    6    7 ar
    14    6    8 1
    15    7   39 1
    16    8    9 1
    17    9   10 1
    18    9   40 1
    19    9   41 1
    20   10   11 1
    21   10   42 1
    22   10   43 1
    23   11   15 1
    24   11   12 1
    25   12   13 2
    26   12   44 1
    27   13   14 1
    28   13   20 1
    29   14   19 ar
    30   14   15 ar
    31   15   16 ar
    32   16   17 ar
    33   16   45 1
    34   17   18 ar
    35   17   46 1
    36   18   19 ar
    37   18   47 1
    38   19   48 1
    39   20   21 2
    40   20   49 1
    41   21   27 1
    42   21   22 1
    43   22   23 2
    44   22   24 1
    45   23   50 1
    46   24   31 1
    47   24   25 1
    48   25   26 2
    49   25   29 1
    50   26   27 1
    51   27   28 2
    52   29   30 2
    53   29   51 1
    54   30   31 1
    55   30   32 1
    56   32   52 1
    57   32   53 1
    58   32   54 1
@<TRIPOS>MOLECULE
ZINC65076485
   55    58     0     0     0
SMALL
USER_CHARGES

@<TRIPOS>ATOM
      1 C1          0.5459    1.6663    0.0513 C.3       1 <0>        -0.1200
      2 C2          0.4984    0.1602    0.0353 C.ar      1 <0>        -0.0737
      3 C3          0.4737   -0.5178   -1.1691 C.ar      1 <0>        -0.1224
      4 C4          0.4301   -1.8994   -1.1838 C.ar      1 <0>        -0.0942
      5 C5          0.4116   -2.6030    0.0059 C.ar      1 <0>        -0.1207
      6 C6          0.4371   -1.9251    1.2103 C.ar      1 <0>        -0.0944
      7 C7          0.4851   -0.5436    1.2250 C.ar      1 <0>        -0.1230
      8 C8          0.3630   -4.1091   -0.0101 C.3       1 <0>         0.1648
      9 N1          1.7278   -4.6417   -0.0200 N.am      1 <0>        -0.7187
     10 C9          1.9312   -5.9739   -0.0349 C.2       1 <0>         0.5058
     11 O1          0.9845   -6.7319   -0.0401 O.2       1 <0>        -0.5208
     12 C10         3.3351   -6.5217   -0.0452 C.3       1 <0>         0.0885
     13 N2          3.2879   -7.9858   -0.0607 N.am      1 <0>        -0.3239
     14 C11         3.1662   -8.6244   -1.2395 C.2       1 <0>         0.4906
     15 O2          3.0969   -7.9885   -2.2780 O.2       1 <0>        -0.5124
     16 C12         3.1197  -10.0361   -1.2656 C.2       1 <0>        -0.1795
     17 C13         3.2014  -10.6999   -0.0777 C.2       1 <0>        -0.0322
     18 C14         3.3276   -9.9372    1.1086 C.2       1 <0>         0.0184
     19 N3          3.3689   -8.6250    1.0498 N.2       1 <0>        -0.1628
     20 C15         3.4186  -10.6195    2.4171 C.2       1 <0>         0.6015
     21 O3          3.5077  -11.8308    2.4661 O.2       1 <0>        -0.5005
     22 N4          3.4029   -9.8983    3.5556 N.am      1 <0>        -0.5349
     23 C16         3.6169  -10.4172    4.8354 C.ar      1 <0>         0.1416
     24 C17         3.8824  -11.7319    5.2245 C.ar      1 <0>        -0.1278
     25 C18         4.0638  -12.0396    6.5557 C.ar      1 <0>        -0.0944
     26 C19         3.9842  -11.0480    7.5166 C.ar      1 <0>        -0.1364
     27 C20         3.7221   -9.7443    7.1392 C.ar      1 <0>        -0.0807
     28 C21         3.5396   -9.4310    5.8059 C.ar      1 <0>        -0.1315
     29 C22         3.2449   -8.1115    5.1286 C.3       1 <0>        -0.0855
     30 C23         3.1652   -8.4544    3.6320 C.3       1 <0>         0.1360
     31 H1          3.9328   -7.9149    3.0772 H         1 <0>         0.1023
     32 C24         1.7768   -8.1154    3.0856 C.3       1 <0>        -0.1628
     33 H2          1.5845    1.9971    0.0474 H         1 <0>         0.0734
     34 H3          0.0375    2.0553   -0.8310 H         1 <0>         0.0685
     35 H4          0.0502    2.0360    0.9488 H         1 <0>         0.0685
     36 H5          0.4882    0.0319   -2.0987 H         1 <0>         0.1251
     37 H6          0.4101   -2.4291   -2.1248 H         1 <0>         0.1247
     38 H7          0.4223   -2.4748    2.1399 H         1 <0>         0.1244
     39 H8          0.5088   -0.0140    2.1659 H         1 <0>         0.1250
     40 H9         -0.1595   -4.4653    0.8778 H         1 <0>         0.0791
     41 H10        -0.1651   -4.4462   -0.9020 H         1 <0>         0.0786
     42 H11         2.4850   -4.0354   -0.0159 H         1 <0>         0.4050
     43 H12         3.8576   -6.1656   -0.9331 H         1 <0>         0.1392
     44 H13         3.8631   -6.1846    0.8468 H         1 <0>         0.1362
     45 H14         3.0221  -10.5728   -2.1977 H         1 <0>         0.1740
     46 H15         3.1703  -11.7789   -0.0423 H         1 <0>         0.1665
     47 H16         3.9455  -12.5109    4.4791 H         1 <0>         0.1393
     48 H17         4.2685  -13.0585    6.8495 H         1 <0>         0.1294
     49 H18         4.1260  -11.2918    8.5591 H         1 <0>         0.1277
     50 H19         3.6593   -8.9689    7.8884 H         1 <0>         0.1263
     51 H20         2.2958   -7.7071    5.4804 H         1 <0>         0.0939
     52 H21         4.0523   -7.4021    5.3104 H         1 <0>         0.0924
     53 H22         1.0268   -8.7135    3.6031 H         1 <0>         0.0608
     54 H23         1.5717   -7.0570    3.2462 H         1 <0>         0.0731
     55 H24         1.7430   -8.3342    2.0184 H         1 <0>         0.0729
@<TRIPOS>BOND
     1    1    2 1
     2    1   33 1
     3    1   34 1
     4    1   35 1
     5    2    7 ar
     6    2    3 ar
     7    3    4 ar
     8    3   36 1
     9    4    5 ar
    10    4   37 1
    11    5    6 ar
    12    5    8 1
    13    6    7 ar
    14    6   38 1
    15    7   39 1
    16    8    9 1
    17    8   40 1
    18    8   41 1
    19    9   10 am
    20    9   42 1
    21   10   11 2
    22   10   12 1
    23   12   13 1
    24   12   43 1
    25   12   44 1
    26   13   19 1
    27   13   14 am
    28   14   15 2
    29   14   16 1
    30   16   17 2
    31   16   45 1
    32   17   18 1
    33   17   46 1
    34   18   19 2
    35   18   20 1
    36   20   21 2
    37   20   22 am
    38   22   30 1
    39   22   23 1
    40   23   28 ar
    41   23   24 ar
    42   24   25 ar
    43   24   47 1
    44   25   26 ar
    45   25   48 1
    46   26   27 ar
    47   26   49 1
    48   27   28 ar
    49   27   50 1
    50   28   29 1
    51   29   30 1
    52   29   51 1
    53   29   52 1
    54   30   31 1
    55   30   32 1
    56   32   53 1
    57   32   54 1
    58   32   55 1
@<TRIPOS>MOLECULE
ZINC09166177
   60    62     0     0     0
SMALL
USER_CHARGES
N-(2-ethyl-4,4-dimethyl-3-oxo-6-oxa-2-azabicyclo[5.4.0]undeca-8,10,12-trien-9-yl)-2,3,5,6-tetramethyl-benzenesulfonamide
@<TRIPOS>ATOM
      1 C1          0.9534    2.0588    0.5152 C.3       1 <0>        -0.1675
      2 C2          0.2894    2.2767    1.8763 C.3       1 <0>         0.1093
      3 N1         -1.1388    1.9653    1.7784 N.am      1 <0>        -0.5583
      4 C3         -1.5990    0.6627    2.0280 C.ar      1 <0>         0.1165
      5 C4         -1.1946   -0.0222    3.1623 C.ar      1 <0>        -0.0915
      6 C5         -1.6520   -1.3058    3.3929 C.ar      1 <0>        -0.1475
      7 C6         -2.5162   -1.9101    2.4889 C.ar      1 <0>         0.1690
      8 C7         -2.9248   -1.2255    1.3518 C.ar      1 <0>        -0.1269
      9 C8         -2.4693    0.0607    1.1204 C.ar      1 <0>         0.1106
     10 O1         -2.8700    0.7447    0.0163 O.3       1 <0>        -0.3192
     11 C9         -3.8409    1.7712    0.2023 C.3       1 <0>         0.0784
     12 C10        -3.4997    2.6130    1.4300 C.3       1 <0>        -0.1214
     13 C11        -2.0271    2.9306    1.4522 C.2       1 <0>         0.5342
     14 O2         -1.6403    4.0463    1.1747 O.2       1 <0>        -0.5125
     15 C12        -4.2984    3.9173    1.3888 C.3       1 <0>        -0.1277
     16 C13        -3.8638    1.8348    2.6960 C.3       1 <0>        -0.1645
     17 N2         -2.9761   -3.2100    2.7244 N.pl3     1 <0>        -1.0573
     18 S1         -1.9126   -4.3945    3.1807 S.o2      1 <0>         2.6842
     19 O3         -2.6720   -5.5860    3.3317 O.2       1 <0>        -0.9448
     20 O4         -0.8023   -4.3054    2.2983 O.2       1 <0>        -0.9341
     21 C14        -1.3169   -3.9704    4.7839 C.ar      1 <0>        -0.6792
     22 C15        -2.1680   -4.0176    5.8722 C.ar      1 <0>         0.0185
     23 C16        -1.6993   -3.6900    7.1308 C.ar      1 <0>        -0.1092
     24 C17        -0.3826   -3.3043    7.2992 C.ar      1 <0>        -0.0527
     25 C18         0.4671   -3.2521    6.2100 C.ar      1 <0>        -0.1097
     26 C19        -0.0001   -3.5852    4.9524 C.ar      1 <0>         0.0204
     27 C20         0.9260   -3.5278    3.7650 C.3       1 <0>        -0.1677
     28 C21         1.9025   -2.8316    6.3937 C.3       1 <0>        -0.1199
     29 C22        -2.6255   -3.7473    8.3182 C.3       1 <0>        -0.1180
     30 C23        -3.6052   -4.4316    5.6875 C.3       1 <0>        -0.1395
     31 H1          0.8282    1.0193    0.2121 H         1 <0>         0.0599
     32 H2          2.0160    2.2905    0.5881 H         1 <0>         0.0707
     33 H3          0.4891    2.7113   -0.2242 H         1 <0>         0.0613
     34 H4          0.7537    1.6242    2.6157 H         1 <0>         0.0823
     35 H5          0.4146    3.3162    2.1794 H         1 <0>         0.0897
     36 H6         -0.5228    0.4468    3.8659 H         1 <0>         0.1400
     37 H7         -1.3370   -1.8398    4.2772 H         1 <0>         0.1439
     38 H8         -3.5971   -1.6959    0.6495 H         1 <0>         0.1464
     39 H9         -3.8615    2.4118   -0.6794 H         1 <0>         0.1116
     40 H10        -4.8224    1.3180    0.3414 H         1 <0>         0.0765
     41 H11        -5.3646    3.6906    1.3875 H         1 <0>         0.0694
     42 H12        -4.0561    4.5195    2.2645 H         1 <0>         0.0673
     43 H13        -4.0435    4.4711    0.4852 H         1 <0>         0.0707
     44 H14        -3.6404    0.7780    2.5498 H         1 <0>         0.0764
     45 H15        -3.2835    2.2160    3.5363 H         1 <0>         0.0656
     46 H16        -4.9269    1.9560    2.9038 H         1 <0>         0.0730
     47 H17        -3.9179   -3.4175    2.6204 H         1 <0>         0.4281
     48 H18        -0.0176   -3.0441    8.2818 H         1 <0>         0.1314
     49 H19         0.7531   -2.6036    3.2136 H         1 <0>         0.0872
     50 H20         1.9600   -3.5578    4.1088 H         1 <0>         0.0759
     51 H21         0.7349   -4.3806    3.1136 H         1 <0>         0.1208
     52 H22         1.9822   -1.7508    6.2775 H         1 <0>         0.0740
     53 H23         2.2397   -3.1157    7.3905 H         1 <0>         0.0688
     54 H24         2.5239   -3.3242    5.6458 H         1 <0>         0.0766
     55 H25        -3.1151   -2.7817    8.4440 H         1 <0>         0.0738
     56 H26        -3.3787   -4.5181    8.1546 H         1 <0>         0.0727
     57 H27        -2.0525   -3.9837    9.2148 H         1 <0>         0.0700
     58 H28        -3.7045   -5.4985    5.8874 H         1 <0>         0.0978
     59 H29        -4.2361   -3.8722    6.3783 H         1 <0>         0.0861
     60 H30        -3.9145   -4.2235    4.6632 H         1 <0>         0.0600
@<TRIPOS>BOND
     1    1    2 1
     2    1   31 1
     3    1   32 1
     4    1   33 1
     5    2    3 1
     6    2   34 1
     7    2   35 1
     8    3   13 am
     9    3    4 1
    10    4    9 ar
    11    4    5 ar
    12    5    6 ar
    13    5   36 1
    14    6    7 ar
    15    6   37 1
    16    7    8 ar
    17    7   17 1
    18    8    9 ar
    19    8   38 1
    20    9   10 1
    21   10   11 1
    22   11   12 1
    23   11   39 1
    24   11   40 1
    25   12   13 1
    26   12   15 1
    27   12   16 1
    28   13   14 2
    29   15   41 1
    30   15   42 1
    31   15   43 1
    32   16   44 1
    33   16   45 1
    34   16   46 1
    35   17   18 1
    36   17   47 1
    37   18   19 2
    38   18   20 2
    39   18   21 1
    40   21   26 ar
    41   21   22 ar
    42   22   23 ar
    43   22   30 1
    44   23   24 ar
    45   23   29 1
    46   24   25 ar
    47   24   48 1
    48   25   26 ar
    49   25   28 1
    50   26   27 1
    51   27   49 1
    52   27   50 1
    53   27   51 1
    54   28   52 1
    55   28   53 1
    56   28   54 1
    57   29   55 1
    58   29   56 1
    59   29   57 1
    60   30   58 1
    61   30   59 1
    62   30   60 1
@<TRIPOS>MOLECULE
ZINC16977065
   40    43     0     0     0
SMALL
USER_CHARGES
3-(2-chlorophenyl)-N-[5-(2-chlorophenyl)-1,3,4-thiadiazol-2-yl]-5-methyl-isoxazole-4-carboxamide
@<TRIPOS>ATOM
      1 C1          0.4216   -0.4960    2.4989 C.3       1 <0>        -0.0855
      2 C2          0.1935   -0.8678    1.0564 C.2       1 <0>         0.0420
      3 C3          0.1389   -0.0099   -0.0133 C.2       1 <0>        -0.2529
      4 C4         -0.0971   -0.9210   -1.1531 C.2       1 <0>         0.0952
      5 N1         -0.1516   -2.1182   -0.6272 N.2       1 <0>        -0.3186
      6 O1          0.0018   -2.0959    0.5693 O.3       1 <0>         0.1154
      7 C5         -0.2415   -0.5570   -2.5834 C.ar      1 <0>        -0.0272
      8 C6         -1.0716    0.4988   -2.9564 C.ar      1 <0>        -0.0784
      9 C7         -1.2018    0.8335   -4.2887 C.ar      1 <0>        -0.1116
     10 C8         -0.5101    0.1239   -5.2544 C.ar      1 <0>        -0.0888
     11 C9          0.3147   -0.9249   -4.8916 C.ar      1 <0>        -0.1110
     12 C10         0.4573   -1.2660   -3.5602 C.ar      1 <0>        -0.0098
     13 Cl1         1.4986   -2.5783   -3.1050 Cl        1 <0>        -0.0500
     14 C11         0.2855    1.4551   -0.0238 C.2       1 <0>         0.6023
     15 O2         -0.6786    2.1643    0.1925 O.2       1 <0>        -0.4424
     16 N2          1.4869    2.0103   -0.2787 N.am      1 <0>        -0.6004
     17 C12         1.6252    3.3919   -0.2887 C.2       1 <0>         0.2582
     18 N3          0.7205    4.3409   -0.0827 N.2       1 <0>        -0.2788
     19 N4          1.0181    5.5658   -0.1251 N.2       1 <0>        -0.2355
     20 C13         2.2516    5.9790   -0.3889 C.2       1 <0>         0.0764
     21 S1          3.0730    4.4009   -0.5909 S.3       1 <0>         0.0567
     22 C14         2.7927    7.3510   -0.4885 C.ar      1 <0>         0.0013
     23 C15         1.9564    8.4506   -0.2899 C.ar      1 <0>        -0.0596
     24 C16         2.4676    9.7283   -0.3837 C.ar      1 <0>        -0.1094
     25 C17         3.8068    9.9220   -0.6736 C.ar      1 <0>        -0.0871
     26 C18         4.6419    8.8375   -0.8721 C.ar      1 <0>        -0.1041
     27 C19         4.1444    7.5527   -0.7759 C.ar      1 <0>        -0.0243
     28 Cl2         5.1952    6.1922   -1.0177 Cl        1 <0>        -0.0345
     29 H1         -0.5372   -0.3040    2.9806 H         1 <0>         0.1038
     30 H2          0.9272   -1.3155    3.0098 H         1 <0>         0.0988
     31 H3          1.0397    0.4003    2.5498 H         1 <0>         0.0934
     32 H4         -1.6122    1.0538   -2.2039 H         1 <0>         0.1379
     33 H5         -1.8448    1.6514   -4.5783 H         1 <0>         0.1384
     34 H6         -0.6152    0.3900   -6.2958 H         1 <0>         0.1398
     35 H7          0.8518   -1.4755   -5.6497 H         1 <0>         0.1421
     36 H8          2.2549    1.4447   -0.4552 H         1 <0>         0.4316
     37 H9          0.9109    8.3013   -0.0636 H         1 <0>         0.1488
     38 H10         1.8211   10.5797   -0.2302 H         1 <0>         0.1421
     39 H11         4.2017   10.9247   -0.7454 H         1 <0>         0.1416
     40 H12         5.6860    8.9956   -1.0983 H         1 <0>         0.1441
@<TRIPOS>BOND
     1    1    2 1
     2    1   29 1
     3    1   30 1
     4    1   31 1
     5    2    6 1
     6    2    3 2
     7    3    4 1
     8    3   14 1
     9    4    5 2
    10    4    7 1
    11    5    6 1
    12    7   12 ar
    13    7    8 ar
    14    8    9 ar
    15    8   32 1
    16    9   10 ar
    17    9   33 1
    18   10   11 ar
    19   10   34 1
    20   11   12 ar
    21   11   35 1
    22   12   13 1
    23   14   15 2
    24   14   16 am
    25   16   17 1
    26   16   36 1
    27   17   21 1
    28   17   18 2
    29   18   19 1
    30   19   20 2
    31   20   21 1
    32   20   22 1
    33   22   27 ar
    34   22   23 ar
    35   23   24 ar
    36   23   37 1
    37   24   25 ar
    38   24   38 1
    39   25   26 ar
    40   25   39 1
    41   26   27 ar
    42   26   40 1
    43   27   28 1
@<TRIPOS>MOLECULE
ZINC22851934
   50    54     0     0     0
SMALL
USER_CHARGES
5-[(S)-(4-chlorophenyl)-[(3R)-3-methyl-1-piperidyl]methyl]-2-(2-furyl)thiazolo[2,3-e][1,2,4]triazol-6-ol
@<TRIPOS>ATOM
      1 C1          0.0021   -0.0041    0.0020 C.3       1 <0>        -0.1505
      2 C2         -0.0187    1.5258    0.0104 C.3       1 <0>        -0.1092
      3 H1         -0.5352    1.8782    0.9154 H         1 <0>         0.0929
      4 C3         -0.7548    2.0339   -1.2323 C.3       1 <0>        -0.1329
      5 C4         -0.7188    3.5646   -1.2470 C.3       1 <0>        -0.1419
      6 C5          0.7369    4.0360   -1.2214 C.3       1 <0>        -0.0138
      7 N1          1.3972    3.5246   -0.0136 N.4       1 <0>        -0.3950
      8 C6          1.4168    2.0563   -0.0004 C.3       1 <0>         0.0030
      9 C7          2.7550    4.0703    0.1153 C.3       1 <0>         0.2462
     10 H2          3.3758    3.6339   -0.6811 H         1 <0>         0.1458
     11 C8          2.7090    5.5700   -0.0252 C.ar      1 <0>        -0.0986
     12 C9          1.6762    6.2865    0.5502 C.ar      1 <0>        -0.1126
     13 C10         1.6365    7.6626    0.4265 C.ar      1 <0>        -0.0982
     14 C11         2.6246    8.3218   -0.2829 C.ar      1 <0>        -0.0267
     15 C12         3.6549    7.6037   -0.8633 C.ar      1 <0>        -0.0988
     16 C13         3.6965    6.2282   -0.7341 C.ar      1 <0>        -0.0729
     17 Cl1         2.5713   10.0494   -0.4451 Cl        1 <0>        -0.0585
     18 C14         3.3153    3.7093    1.4668 C.2       1 <0>        -0.4833
     19 C15         4.5264    3.2333    1.7785 C.2       1 <0>         0.4765
     20 N2          4.8594    2.9639    3.0836 N.pl3     1 <0>        -0.3635
     21 C16         3.9005    3.1937    4.0317 C.2       1 <0>         0.2579
     22 S1          2.5335    3.7976    3.0706 S.3       1 <0>         0.0915
     23 N3          4.3646    2.8870    5.2106 N.2       1 <0>        -0.4784
     24 C17         5.6258    2.4501    5.0901 C.2       1 <0>         0.3086
     25 N4          5.9706    2.4783    3.8207 N.2       1 <0>        -0.2547
     26 C18         6.4904    2.0078    6.2041 C.2       1 <0>         0.0542
     27 C19         6.1440    1.9749    7.5183 C.2       1 <0>        -0.1393
     28 C20         7.2649    1.4899    8.2215 C.2       1 <0>        -0.2178
     29 C21         8.2298    1.2534    7.3114 C.2       1 <0>        -0.0149
     30 O1          7.7565    1.5619    6.0930 O.3       1 <0>        -0.1597
     31 O2          5.4390    3.0178    0.7928 O.3       1 <0>        -0.6399
     32 H3         -1.0299   -0.3849    0.0098 H         1 <0>         0.0725
     33 H4          0.5341   -0.3684    0.8932 H         1 <0>         0.0686
     34 H5          0.5170   -0.3588   -0.9030 H         1 <0>         0.0647
     35 H6         -0.2622    1.6440   -2.1352 H         1 <0>         0.0797
     36 H7         -1.7990    1.6891   -1.2065 H         1 <0>         0.0891
     37 H8         -1.2097    3.9341   -2.1594 H         1 <0>         0.1078
     38 H9         -1.2472    3.9523   -0.3636 H         1 <0>         0.0852
     39 H10         1.2602    3.6588   -2.1124 H         1 <0>         0.1253
     40 H11         0.7662    5.1356   -1.2171 H         1 <0>         0.1309
     41 H12         1.9442    1.7051    0.8988 H         1 <0>         0.1363
     42 H13         1.9368    1.6889   -0.8974 H         1 <0>         0.1225
     43 H14         0.9026    5.7714    1.1002 H         1 <0>         0.1233
     44 H15         0.8320    8.2226    0.8798 H         1 <0>         0.1408
     45 H16         4.4263    8.1177   -1.4175 H         1 <0>         0.1412
     46 H17         4.5009    5.6675   -1.1869 H         1 <0>         0.1428
     47 H18         5.1933    2.2639    7.9415 H         1 <0>         0.1614
     48 H19         7.3369    1.3372    9.2882 H         1 <0>         0.1578
     49 H20         9.2182    0.8745    7.5257 H         1 <0>         0.2115
     50 H21         0.8123    3.8600    0.8556 H         1 <0>         0.4233
@<TRIPOS>BOND
     1    1    2 1
     2    1   32 1
     3    1   33 1
     4    1   34 1
     5    2    3 1
     6    2    8 1
     7    2    4 1
     8    4    5 1
     9    4   35 1
    10    4   36 1
    11    5    6 1
    12    5   37 1
    13    5   38 1
    14    6    7 1
    15    6   39 1
    16    6   40 1
    17    7    8 1
    18    7    9 1
    19    7   50 1
    20    8   41 1
    21    8   42 1
    22    9   10 1
    23    9   11 1
    24    9   18 1
    25   11   16 ar
    26   11   12 ar
    27   12   13 ar
    28   12   43 1
    29   13   14 ar
    30   13   44 1
    31   14   15 ar
    32   14   17 1
    33   15   16 ar
    34   15   45 1
    35   16   46 1
    36   18   22 1
    37   18   19 2
    38   19   20 1
    39   19   31 1
    40   20   25 1
    41   20   21 1
    42   21   22 1
    43   21   23 2
    44   23   24 1
    45   24   25 2
    46   24   26 1
    47   26   30 1
    48   26   27 2
    49   27   28 1
    50   27   47 1
    51   28   29 2
    52   28   48 1
    53   29   30 1
    54   29   49 1
@<TRIPOS>MOLECULE
ZINC32593832
   46    49     0     0     0
SMALL
USER_CHARGES
N-(3-benzylsulfanyl-1,2,4-thiadiazol-5-yl)-6,7-dimethyl-4-oxo-chromene-2-carboxamide
@<TRIPOS>ATOM
      1 C1         13.4065   -6.1327   -9.7144 C.3       1 <0>        -0.1169
      2 C2         12.5468   -5.6515   -8.5740 C.ar      1 <0>        -0.1115
      3 C3         12.9447   -5.8728   -7.2739 C.ar      1 <0>        -0.0234
      4 C4         12.1444   -5.4243   -6.2239 C.ar      1 <0>        -0.2268
      5 C5         12.5332   -5.6409   -4.8170 C.2       1 <0>         0.4204
      6 O1         13.5648   -6.2178   -4.5214 O.2       1 <0>        -0.4374
      7 C6         11.6158   -5.1276   -3.7888 C.2       1 <0>        -0.2039
      8 C7         10.4838   -4.4951   -4.1819 C.2       1 <0>         0.0955
      9 O2         10.1641   -4.3232   -5.4729 O.3       1 <0>        -0.2284
     10 C8         10.9394   -4.7508   -6.4883 C.ar      1 <0>         0.1547
     11 C9         10.5574   -4.5390   -7.8088 C.ar      1 <0>        -0.1377
     12 C10        11.3576   -4.9868   -8.8376 C.ar      1 <0>        -0.0160
     13 C11        10.9359   -4.7524  -10.2653 C.3       1 <0>        -0.1246
     14 C12         9.5606   -3.9785   -3.1452 C.2       1 <0>         0.5861
     15 O3          9.8250   -4.1257   -1.9685 O.2       1 <0>        -0.4576
     16 N1          8.4273   -3.3453   -3.5072 N.am      1 <0>        -0.6057
     17 C13         7.5636   -2.8620   -2.5373 C.2       1 <0>         0.3198
     18 N2          6.4137   -2.2194   -2.6850 N.2       1 <0>        -0.5386
     19 C14         5.7541   -1.8502   -1.6076 C.2       1 <0>         0.2627
     20 N3          6.2502   -2.1211   -0.4177 N.2       1 <0>        -0.4875
     21 S1          7.7022   -2.9387   -0.8096 S.3       1 <0>         0.2926
     22 S2          4.2218   -0.9931   -1.7557 S.3       1 <0>         0.0377
     23 C15         3.7112   -0.7071   -0.0387 C.3       1 <0>        -0.0735
     24 C16         2.3960    0.0285   -0.0217 C.ar      1 <0>        -0.0823
     25 C17         1.2084   -0.6789   -0.0136 C.ar      1 <0>        -0.0979
     26 C18         0.0021   -0.0041    0.0020 C.ar      1 <0>        -0.1195
     27 C19        -0.0167    1.3781    0.0096 C.ar      1 <0>        -0.1091
     28 C20         1.1709    2.0855    0.0021 C.ar      1 <0>        -0.1195
     29 C21         2.3773    1.4107   -0.0136 C.ar      1 <0>        -0.0979
     30 H1         14.3008   -6.6325   -9.3139 H         1 <0>         0.0708
     31 H2         13.7114   -5.2745  -10.3312 H         1 <0>         0.0759
     32 H3         12.8348   -6.8424  -10.3304 H         1 <0>         0.0758
     33 H4         13.8706   -6.3898   -7.0692 H         1 <0>         0.1454
     34 H5         11.8400   -5.2528   -2.7398 H         1 <0>         0.1801
     35 H6          9.6339   -4.0237   -8.0278 H         1 <0>         0.1478
     36 H7          9.9759   -4.2156  -10.2806 H         1 <0>         0.0741
     37 H8         10.8237   -5.7192  -10.7779 H         1 <0>         0.0824
     38 H9         11.7004   -4.1513  -10.7794 H         1 <0>         0.0824
     39 H10         8.1879   -3.2121   -4.5726 H         1 <0>         0.4698
     40 H11         3.5980   -1.6727    0.4758 H         1 <0>         0.1053
     41 H12         4.4748   -0.1050    0.4755 H         1 <0>         0.1054
     42 H13         1.2231   -1.7587   -0.0199 H         1 <0>         0.1263
     43 H14        -0.9258   -0.5567    0.0079 H         1 <0>         0.1266
     44 H15        -0.9592    1.9054    0.0170 H         1 <0>         0.1253
     45 H16         1.1563    3.1654    0.0077 H         1 <0>         0.1266
     46 H17         3.3051    1.9634   -0.0195 H         1 <0>         0.1263
@<TRIPOS>BOND
     1    1    2 1
     2    1   30 1
     3    1   31 1
     4    1   32 1
     5    2   12 ar
     6    2    3 ar
     7    3    4 ar
     8    3   33 1
     9    4   10 ar
    10    4    5 1
    11    5    6 2
    12    5    7 1
    13    7    8 2
    14    7   34 1
    15    8    9 1
    16    8   14 1
    17    9   10 1
    18   10   11 ar
    19   11   12 ar
    20   11   35 1
    21   12   13 1
    22   13   36 1
    23   13   37 1
    24   13   38 1
    25   14   15 2
    26   14   16 am
    27   16   17 1
    28   16   39 1
    29   17   21 1
    30   17   18 2
    31   18   19 1
    32   19   20 2
    33   19   22 1
    34   20   21 1
    35   22   23 1
    36   23   24 1
    37   23   40 1
    38   23   41 1
    39   24   29 ar
    40   24   25 ar
    41   25   26 ar
    42   25   42 1
    43   26   27 ar
    44   26   43 1
    45   27   28 ar
    46   27   44 1
    47   28   29 ar
    48   28   45 1
    49   29   46 1
@<TRIPOS>MOLECULE
ZINC13759366
   56    61     0     0     0
SMALL
USER_CHARGES

@<TRIPOS>ATOM
      1 C1         -0.0184    1.5028    0.0103 C.3       1 <0>        -0.1165
      2 C2          0.0021   -0.0041    0.0020 C.ar      1 <0>        -0.0904
      3 C3          0.0058   -0.6875   -1.2001 C.ar      1 <0>        -0.0976
      4 C4          0.0245   -2.0685   -1.2108 C.ar      1 <0>        -0.1343
      5 C5          0.0401   -2.7705   -0.0132 C.ar      1 <0>         0.1149
      6 C6          0.0368   -2.0816    1.1921 C.ar      1 <0>        -0.1329
      7 C7          0.0229   -0.7004    1.1965 C.ar      1 <0>        -0.0976
      8 N1          0.0586   -4.1723   -0.0209 N.am      1 <0>        -0.5328
      9 C8          0.0693   -4.9387    1.1172 C.2       1 <0>         0.5810
     10 O1         -0.1515   -4.5777    2.2532 O.2       1 <0>        -0.4284
     11 C9          0.4010   -6.2682    0.6657 C.3       1 <0>        -0.1984
     12 H1          1.4612   -6.1845    0.4265 H         1 <0>         0.1278
     13 C10         0.2739   -7.6693    1.0977 C.3       1 <0>         0.2751
     14 H2         -0.6863   -7.8394    1.5848 H         1 <0>         0.1046
     15 N2          0.3516   -8.4118   -0.2014 N.pl3     1 <0>        -0.5055
     16 O2          0.4311   -7.4310   -1.2602 O.3       1 <0>        -0.1156
     17 C11        -0.3176   -6.3166   -0.7422 C.3       1 <0>         0.0270
     18 H3         -1.3939   -6.4831   -0.6988 H         1 <0>         0.1566
     19 C12         0.0621   -4.9223   -1.1615 C.2       1 <0>         0.5530
     20 O3          0.3203   -4.5436   -2.2838 O.2       1 <0>        -0.4256
     21 C13         0.3485   -9.7995   -0.3604 C.ar      1 <0>         0.2416
     22 C14         0.2620  -10.6274    0.7517 C.ar      1 <0>        -0.1707
     23 C15         0.2587  -11.9990    0.5909 C.ar      1 <0>        -0.0741
     24 C16         0.3419  -12.5485   -0.6754 C.ar      1 <0>        -0.1658
     25 C17         0.4281  -11.7273   -1.7846 C.ar      1 <0>        -0.0768
     26 C18         0.4261  -10.3547   -1.6314 C.ar      1 <0>        -0.1767
     27 C19         1.4105   -8.0546    2.0092 C.2       1 <0>        -0.2076
     28 C20         2.6785   -8.3009    1.6440 C.2       1 <0>         0.1285
     29 N3          3.4270   -8.6210    2.7438 N.pl3     1 <0>        -0.5877
     30 H4          4.3721   -8.8390    2.7305 H         1 <0>         0.4170
     31 C21         2.6389   -8.5876    3.8723 C.ar      1 <0>         0.0981
     32 C22         1.3425   -8.2252    3.4625 C.ar      1 <0>        -0.0824
     33 C23         0.3214   -8.1058    4.4067 C.ar      1 <0>        -0.0725
     34 C24         0.5875   -8.3385    5.7269 C.ar      1 <0>        -0.1379
     35 C25         1.8654   -8.6923    6.1367 C.ar      1 <0>        -0.0974
     36 C26         2.8859   -8.8248    5.2204 C.ar      1 <0>        -0.1267
     37 C27         3.2003   -8.2352    0.2318 C.3       1 <0>        -0.1169
     38 H5          1.0042    1.8801    0.0026 H         1 <0>         0.0730
     39 H6         -0.5455    1.8639   -0.8728 H         1 <0>         0.0687
     40 H7         -0.5286    1.8543    0.9071 H         1 <0>         0.0689
     41 H8         -0.0064   -0.1408   -2.1314 H         1 <0>         0.1321
     42 H9          0.0266   -2.6018   -2.1500 H         1 <0>         0.1486
     43 H10         0.0485   -2.6250    2.1253 H         1 <0>         0.1506
     44 H11         0.0241   -0.1639    2.1338 H         1 <0>         0.1323
     45 H12         0.1977  -10.1989    1.7409 H         1 <0>         0.1285
     46 H13         0.1914  -12.6433    1.4550 H         1 <0>         0.1247
     47 H14         0.3398  -13.6215   -0.7983 H         1 <0>         0.1208
     48 H15         0.4930  -12.1596   -2.7722 H         1 <0>         0.1241
     49 H16         0.4890   -9.7138   -2.4984 H         1 <0>         0.1264
     50 H17        -0.6753   -7.8302    4.0952 H         1 <0>         0.1219
     51 H18        -0.2029   -8.2460    6.4570 H         1 <0>         0.1242
     52 H19         2.0603   -8.8722    7.1836 H         1 <0>         0.1263
     53 H20         3.8772   -9.0993    5.5494 H         1 <0>         0.1205
     54 H21         3.5569   -7.2265    0.0227 H         1 <0>         0.0743
     55 H22         4.0215   -8.9423    0.1145 H         1 <0>         0.0712
     56 H23         2.4001   -8.4890   -0.4635 H         1 <0>         0.1066
@<TRIPOS>BOND
     1    1    2 1
     2    1   38 1
     3    1   39 1
     4    1   40 1
     5    2    7 ar
     6    2    3 ar
     7    3    4 ar
     8    3   41 1
     9    4    5 ar
    10    4   42 1
    11    5    6 ar
    12    5    8 1
    13    6    7 ar
    14    6   43 1
    15    7   44 1
    16    8   19 am
    17    8    9 am
    18    9   10 2
    19    9   11 1
    20   11   12 1
    21   11   17 1
    22   11   13 1
    23   13   14 1
    24   13   15 1
    25   13   27 1
    26   15   16 1
    27   15   21 1
    28   16   17 1
    29   17   18 1
    30   17   19 1
    31   19   20 2
    32   21   26 ar
    33   21   22 ar
    34   22   23 ar
    35   22   45 1
    36   23   24 ar
    37   23   46 1
    38   24   25 ar
    39   24   47 1
    40   25   26 ar
    41   25   48 1
    42   26   49 1
    43   27   32 1
    44   27   28 2
    45   28   29 1
    46   28   37 1
    47   29   30 1
    48   29   31 1
    49   31   36 ar
    50   31   32 ar
    51   32   33 ar
    52   33   34 ar
    53   33   50 1
    54   34   35 ar
    55   34   51 1
    56   35   36 ar
    57   35   52 1
    58   36   53 1
    59   37   54 1
    60   37   55 1
    61   37   56 1
@<TRIPOS>MOLECULE
ZINC09381412
   50    53     0     0     0
SMALL
USER_CHARGES
ethyl 7-(2-bromobenzoyl)amino-5-oxo-4-(p-tolyl)-8-thia-3,4-diazabicyclo[4.3.0]nona-2,6,9-triene-2-carboxylate
@<TRIPOS>ATOM
      1 C1         -1.3348   -0.3156   -1.6847 C.3       1 <0>        -0.1542
      2 C2          0.0821    0.1732   -1.3775 C.3       1 <0>         0.0612
      3 O1          0.0423    1.5803   -1.0216 O.3       1 <0>        -0.3341
      4 C3          1.2168    2.1687   -0.7199 C.2       1 <0>         0.5450
      5 O2          2.2460    1.5234   -0.7533 O.2       1 <0>        -0.4812
      6 C4          1.2529    3.5951   -0.3494 C.2       1 <0>         0.1396
      7 C5          2.5510    4.2465   -0.0092 C.2       1 <0>        -0.0844
      8 C6          3.7845    3.6518    0.0033 C.2       1 <0>        -0.1870
      9 S1          4.8843    4.9611    0.4861 S.3       1 <0>         0.3148
     10 C7          3.7503    6.2530    0.6524 C.2       1 <0>         0.1257
     11 C8          2.5189    5.6680    0.3444 C.2       1 <0>        -0.2586
     12 C9          1.2417    6.3185    0.3473 C.2       1 <0>         0.5663
     13 O3          1.1656    7.4984    0.6394 O.2       1 <0>        -0.5237
     14 N1          0.1309    5.6395    0.0310 N.am      1 <0>        -0.3775
     15 N2          0.1487    4.2895   -0.3129 N.2       1 <0>        -0.1582
     16 C10        -1.0950    6.3126    0.0464 C.ar      1 <0>         0.1336
     17 C11        -1.4528    7.0826    1.1460 C.ar      1 <0>        -0.0883
     18 C12        -2.6620    7.7494    1.1560 C.ar      1 <0>        -0.1090
     19 C13        -3.5209    7.6432    0.0773 C.ar      1 <0>        -0.0781
     20 C14        -3.1700    6.8737   -1.0169 C.ar      1 <0>        -0.1103
     21 C15        -1.9602    6.2081   -1.0356 C.ar      1 <0>        -0.0967
     22 C16        -4.8425    8.3672    0.0944 C.3       1 <0>        -0.1170
     23 N3          4.0020    7.5661    1.0204 N.am      1 <0>        -0.6064
     24 C17         5.2630    7.9622    1.2840 C.2       1 <0>         0.5457
     25 O4          6.1798    7.1683    1.1992 O.2       1 <0>        -0.4640
     26 C18         5.5311    9.3611    1.6761 C.ar      1 <0>        -0.1189
     27 C19         4.4812   10.2771    1.7689 C.ar      1 <0>        -0.0752
     28 C20         4.7378   11.5802    2.1402 C.ar      1 <0>        -0.1100
     29 C21         6.0338   11.9842    2.4108 C.ar      1 <0>        -0.0767
     30 C22         7.0797   11.0844    2.3159 C.ar      1 <0>        -0.0988
     31 C23         6.8369    9.7751    1.9500 C.ar      1 <0>        -0.0368
     32 Br1         8.2682    8.5462    1.8196 Br        1 <0>        -0.0014
     33 H1         -1.3048   -1.3719   -1.9519 H         1 <0>         0.0839
     34 H2         -1.9643   -0.1809   -0.8051 H         1 <0>         0.0690
     35 H3         -1.7447    0.2580   -2.5161 H         1 <0>         0.0689
     36 H4          0.7116    0.0385   -2.2571 H         1 <0>         0.0763
     37 H5          0.4920   -0.4004   -0.5461 H         1 <0>         0.0763
     38 H6          4.0313    2.6257   -0.2262 H         1 <0>         0.2126
     39 H7         -0.7843    7.1627    1.9904 H         1 <0>         0.1272
     40 H8         -2.9390    8.3514    2.0088 H         1 <0>         0.1308
     41 H9         -3.8431    6.7929   -1.8577 H         1 <0>         0.1314
     42 H10        -1.6871    5.6068   -1.8901 H         1 <0>         0.1297
     43 H11        -5.6044    7.7225    0.5326 H         1 <0>         0.0739
     44 H12        -4.7508    9.2767    0.6882 H         1 <0>         0.0685
     45 H13        -5.1282    8.6262   -0.9251 H         1 <0>         0.0689
     46 H14         3.2705    8.1995    1.0881 H         1 <0>         0.4313
     47 H15         3.4700    9.9648    1.5538 H         1 <0>         0.1368
     48 H16         3.9260   12.2884    2.2159 H         1 <0>         0.1416
     49 H17         6.2291   13.0071    2.6970 H         1 <0>         0.1423
     50 H18         8.0885   11.4065    2.5282 H         1 <0>         0.1450
@<TRIPOS>BOND
     1    1    2 1
     2    1   33 1
     3    1   34 1
     4    1   35 1
     5    2    3 1
     6    2   36 1
     7    2   37 1
     8    3    4 1
     9    4    5 2
    10    4    6 1
    11    6   15 2
    12    6    7 1
    13    7   11 1
    14    7    8 2
    15    8    9 1
    16    8   38 1
    17    9   10 1
    18   10   11 2
    19   10   23 1
    20   11   12 1
    21   12   13 2
    22   12   14 am
    23   14   15 1
    24   14   16 1
    25   16   21 ar
    26   16   17 ar
    27   17   18 ar
    28   17   39 1
    29   18   19 ar
    30   18   40 1
    31   19   20 ar
    32   19   22 1
    33   20   21 ar
    34   20   41 1
    35   21   42 1
    36   22   43 1
    37   22   44 1
    38   22   45 1
    39   23   24 am
    40   23   46 1
    41   24   25 2
    42   24   26 1
    43   26   31 ar
    44   26   27 ar
    45   27   28 ar
    46   27   47 1
    47   28   29 ar
    48   28   48 1
    49   29   30 ar
    50   29   49 1
    51   30   31 ar
    52   30   50 1
    53   31   32 1
@<TRIPOS>MOLECULE
ZINC14983926
   60    63     0     0     0
SMALL
USER_CHARGES
methyl 6-(3,4-dimethylbenzoyl)-2-(o-tolylsulfamoyl)-5,7-dihydro-4H-thieno[5,4-c]pyridine-3-carboxylate
@<TRIPOS>ATOM
      1 C1          4.7079   -4.3048    2.6852 C.3       1 <0>        -0.1188
      2 C2          5.9817   -3.9941    1.9423 C.ar      1 <0>        -0.0961
      3 C3          6.2583   -4.6302    0.7479 C.ar      1 <0>        -0.0985
      4 C4          7.4263   -4.3450    0.0652 C.ar      1 <0>        -0.1223
      5 C5          8.3217   -3.4227    0.5756 C.ar      1 <0>        -0.0937
      6 C6          8.0492   -2.7795    1.7668 C.ar      1 <0>        -0.1614
      7 C7          6.8787   -3.0673    2.4577 C.ar      1 <0>         0.1337
      8 N1          6.6019   -2.4219    3.6651 N.pl3     1 <0>        -1.0472
      9 S1          7.0452   -0.8407    3.8793 S.o2      1 <0>         2.7129
     10 O1          8.4300   -0.7617    3.5705 O.2       1 <0>        -0.9207
     11 O2          6.5211   -0.4389    5.1375 O.2       1 <0>        -0.9246
     12 C8          6.2018    0.1070    2.6565 C.2       1 <0>        -0.7596
     13 C9          6.2541    1.4673    2.4415 C.2       1 <0>         0.0117
     14 C10         5.4561    2.0143    1.3589 C.2       1 <0>        -0.0955
     15 C11         4.7360    1.1042    0.6641 C.2       1 <0>        -0.1643
     16 S2          5.1053   -0.4457    1.4337 S.3       1 <0>         0.2911
     17 C12         3.8301    1.3732   -0.4942 C.3       1 <0>         0.1761
     18 N2          3.6847    2.8381   -0.6073 N.am      1 <0>        -0.6093
     19 C13         4.8929    3.6566   -0.4241 C.3       1 <0>         0.1131
     20 C14         5.4098    3.4955    1.0068 C.3       1 <0>        -0.0818
     21 C15         2.4888    3.4044   -0.8632 C.2       1 <0>         0.5718
     22 O3          2.4077    4.6062   -1.0259 O.2       1 <0>        -0.5206
     23 C16         1.2754    2.5637   -0.9460 C.ar      1 <0>        -0.1361
     24 C17         1.3208    1.3294   -1.5966 C.ar      1 <0>        -0.1025
     25 C18         0.1850    0.5502   -1.6707 C.ar      1 <0>        -0.1201
     26 C19        -0.9988    0.9919   -1.1064 C.ar      1 <0>        -0.0605
     27 C20        -1.0493    2.2116   -0.4557 C.ar      1 <0>        -0.0876
     28 C21         0.0796    3.0008   -0.3745 C.ar      1 <0>        -0.0600
     29 C22        -2.3414    2.6820    0.1608 C.3       1 <0>        -0.1195
     30 C23        -2.2373    0.1380   -1.1967 C.3       1 <0>        -0.1230
     31 C24         7.0910    2.3367    3.2815 C.2       1 <0>         0.4953
     32 O4          6.6306    2.8319    4.2917 O.2       1 <0>        -0.4635
     33 O5          8.3689    2.5846    2.9314 O.3       1 <0>        -0.3387
     34 C25         9.1361    3.4518    3.8076 C.3       1 <0>         0.0283
     35 H1          3.9195   -3.6295    2.3529 H         1 <0>         0.0758
     36 H2          4.4125   -5.3347    2.4848 H         1 <0>         0.0750
     37 H3          4.8704   -4.1750    3.7552 H         1 <0>         0.0642
     38 H4          5.5612   -5.3509    0.3465 H         1 <0>         0.1300
     39 H5          7.6398   -4.8433   -0.8689 H         1 <0>         0.1278
     40 H6          9.2330   -3.2019    0.0397 H         1 <0>         0.1317
     41 H7          8.7467   -2.0562    2.1625 H         1 <0>         0.1607
     42 H8          6.1501   -2.8998    4.3780 H         1 <0>         0.4315
     43 H9          2.8566    0.9158   -0.3178 H         1 <0>         0.1231
     44 H10         4.2702    0.9720   -1.4071 H         1 <0>         0.1058
     45 H11         5.6610    3.3322   -1.1262 H         1 <0>         0.0834
     46 H12         4.6530    4.7040   -0.6076 H         1 <0>         0.1096
     47 H13         6.4113    3.9192    1.0820 H         1 <0>         0.0958
     48 H14         4.7420    4.0129    1.6956 H         1 <0>         0.0922
     49 H15         2.2430    0.9856   -2.0412 H         1 <0>         0.1315
     50 H16         0.2187   -0.4048   -2.1740 H         1 <0>         0.1319
     51 H17         0.0378    3.9549    0.1299 H         1 <0>         0.1320
     52 H18        -2.9086    3.2521   -0.5749 H         1 <0>         0.0752
     53 H19        -2.9260    1.8197    0.4816 H         1 <0>         0.0725
     54 H20        -2.1242    3.3143    1.0217 H         1 <0>         0.0696
     55 H21        -2.2847   -0.5256   -0.3332 H         1 <0>         0.0762
     56 H22        -3.1195    0.7779   -1.2120 H         1 <0>         0.0731
     57 H23        -2.2033   -0.4560   -2.1100 H         1 <0>         0.0708
     58 H24        10.1448    3.5682    3.4113 H         1 <0>         0.1126
     59 H25         8.6539    4.4275    3.8662 H         1 <0>         0.0699
     60 H26         9.1855    3.0105    4.8031 H         1 <0>         0.0700
@<TRIPOS>BOND
     1    1    2 1
     2    1   35 1
     3    1   36 1
     4    1   37 1
     5    2    7 ar
     6    2    3 ar
     7    3    4 ar
     8    3   38 1
     9    4    5 ar
    10    4   39 1
    11    5    6 ar
    12    5   40 1
    13    6    7 ar
    14    6   41 1
    15    7    8 1
    16    8    9 1
    17    8   42 1
    18    9   10 2
    19    9   11 2
    20    9   12 1
    21   12   16 1
    22   12   13 2
    23   13   14 1
    24   13   31 1
    25   14   20 1
    26   14   15 2
    27   15   16 1
    28   15   17 1
    29   17   18 1
    30   17   43 1
    31   17   44 1
    32   18   19 1
    33   18   21 am
    34   19   20 1
    35   19   45 1
    36   19   46 1
    37   20   47 1
    38   20   48 1
    39   21   22 2
    40   21   23 1
    41   23   28 ar
    42   23   24 ar
    43   24   25 ar
    44   24   49 1
    45   25   26 ar
    46   25   50 1
    47   26   27 ar
    48   26   30 1
    49   27   28 ar
    50   27   29 1
    51   28   51 1
    52   29   52 1
    53   29   53 1
    54   29   54 1
    55   30   55 1
    56   30   56 1
    57   30   57 1
    58   31   32 2
    59   31   33 1
    60   33   34 1
    61   34   58 1
    62   34   59 1
    63   34   60 1
@<TRIPOS>MOLECULE
ZINC20069660
   61    64     0     0     0
SMALL
USER_CHARGES
N-[(3R)-1-(4-methoxyphenyl)-6,6-dimethyl-2,4-dioxo-3-(trifluoromethyl)-5,7-dihydroindol-3-yl]-4-methyl-benzenesulfonamide
@<TRIPOS>ATOM
      1 C1         10.6942   -2.8403   -0.9066 C.3       1 <0>        -0.1289
      2 C2          9.1966   -2.6727   -0.9092 C.ar      1 <0>        -0.0196
      3 C3          8.4445   -3.1941   -1.9453 C.ar      1 <0>        -0.1514
      4 C4          7.0715   -3.0342   -1.9513 C.ar      1 <0>        -0.0113
      5 C5          6.4503   -2.3545   -0.9203 C.ar      1 <0>        -0.6959
      6 C6          7.2022   -1.8339    0.1163 C.ar      1 <0>         0.0139
      7 C7          8.5754   -1.9926    0.1216 C.ar      1 <0>        -0.1415
      8 S1          4.6999   -2.1522   -0.9270 S.o2      1 <0>         2.6713
      9 O1          4.1426   -3.4440   -1.1269 O.2       1 <0>        -0.9433
     10 O2          4.3794   -1.3505    0.2015 O.2       1 <0>        -0.9209
     11 N1          4.3155   -1.2584   -2.2671 N.pl3     1 <0>        -1.0984
     12 C8          4.7449    0.1389   -2.3635 C.3       1 <0>         0.1811
     13 C9          5.1958    0.4602   -3.7614 C.2       1 <0>        -0.3258
     14 C10         6.5087    0.8210   -3.6735 C.2       1 <0>         0.2554
     15 C11         7.3014    1.2253   -4.9001 C.3       1 <0>        -0.0743
     16 C12         6.3218    1.7869   -5.9368 C.3       1 <0>        -0.0525
     17 C13         5.2251    0.7649   -6.2394 C.3       1 <0>        -0.1555
     18 C14         4.4843    0.4186   -4.9660 C.2       1 <0>         0.4257
     19 O3          3.3080    0.1151   -4.9874 O.2       1 <0>        -0.4516
     20 C15         5.6849    3.0664   -5.3906 C.3       1 <0>        -0.1607
     21 C16         7.0790    2.1089   -7.2267 C.3       1 <0>        -0.1437
     22 N2          6.9516    0.7666   -2.3895 N.am      1 <0>        -0.4746
     23 C17         5.9910    0.3753   -1.5288 C.2       1 <0>         0.4998
     24 O4          6.1002    0.2388   -0.3290 O.2       1 <0>        -0.3886
     25 C18         8.2622    1.0817   -2.0035 C.ar      1 <0>         0.0574
     26 C19         9.3136    0.2545   -2.3753 C.ar      1 <0>        -0.0527
     27 C20        10.6047    0.5684   -1.9998 C.ar      1 <0>        -0.1986
     28 C21        10.8501    1.7039   -1.2414 C.ar      1 <0>         0.1516
     29 C22         9.7993    2.5277   -0.8647 C.ar      1 <0>        -0.1383
     30 C23         8.5085    2.2179   -1.2445 C.ar      1 <0>        -0.0525
     31 O5         12.1208    2.0092   -0.8668 O.3       1 <0>        -0.3096
     32 C24        13.1539    1.1170   -1.2896 C.3       1 <0>         0.0200
     33 C25         3.6184    1.0791   -1.9301 C.3       1 <0>         0.4534
     34 F1          3.4401    0.9862   -0.5456 F         1 <0>        -0.1520
     35 F2          3.9522    2.3946   -2.2699 F         1 <0>        -0.1734
     36 F3          2.4329    0.7165   -2.5783 F         1 <0>        -0.1530
     37 H1         11.0016   -3.4036   -1.8000 H         1 <0>         0.0714
     38 H2         11.0001   -3.3891   -0.0037 H         1 <0>         0.0792
     39 H3         11.1739   -1.8504   -0.9142 H         1 <0>         0.0749
     40 H4          8.9298   -3.7255   -2.7506 H         1 <0>         0.1312
     41 H5          6.4839   -3.4416   -2.7608 H         1 <0>         0.1320
     42 H6          6.7169   -1.3029    0.9218 H         1 <0>         0.1530
     43 H7          9.1629   -1.5855    0.9313 H         1 <0>         0.1296
     44 H8          3.6034   -1.6667   -2.9994 H         1 <0>         0.4668
     45 H9          8.0403    1.9916   -4.6230 H         1 <0>         0.1052
     46 H10         7.8209    0.3454   -5.3074 H         1 <0>         0.1141
     47 H11         4.5188    1.1898   -6.9678 H         1 <0>         0.1059
     48 H12         5.6782   -0.1464   -6.6567 H         1 <0>         0.1064
     49 H13         4.9813    3.4715   -6.1328 H         1 <0>         0.0689
     50 H14         6.4705    3.8088   -5.1866 H         1 <0>         0.0646
     51 H15         5.1450    2.8387   -4.4597 H         1 <0>         0.0617
     52 H16         6.3781    2.5122   -7.9724 H         1 <0>         0.0686
     53 H17         7.5431    1.1916   -7.6181 H         1 <0>         0.0627
     54 H18         7.8602    2.8544   -7.0169 H         1 <0>         0.0643
     55 H19         9.1221   -0.6320   -2.9617 H         1 <0>         0.1315
     56 H20        11.4230   -0.0727   -2.2925 H         1 <0>         0.1394
     57 H21         9.9909    3.4113   -0.2740 H         1 <0>         0.1439
     58 H22         7.6906    2.8595   -0.9515 H         1 <0>         0.1372
     59 H23        14.1249    1.4794   -0.9210 H         1 <0>         0.1072
     60 H24        13.1724    1.0720   -2.3885 H         1 <0>         0.0605
     61 H25        12.9596    0.1129   -0.8847 H         1 <0>         0.0591
@<TRIPOS>BOND
     1    1    2 1
     2    1   37 1
     3    1   38 1
     4    1   39 1
     5    2    7 ar
     6    2    3 ar
     7    3    4 ar
     8    3   40 1
     9    4    5 ar
    10    4   41 1
    11    5    6 ar
    12    5    8 1
    13    6    7 ar
    14    6   42 1
    15    7   43 1
    16    8    9 2
    17    8   10 2
    18    8   11 1
    19   11   12 1
    20   11   44 1
    21   12   23 1
    22   12   13 1
    23   12   33 1
    24   13   18 1
    25   13   14 2
    26   14   15 1
    27   14   22 1
    28   15   16 1
    29   15   45 1
    30   15   46 1
    31   16   17 1
    32   16   20 1
    33   16   21 1
    34   17   18 1
    35   17   47 1
    36   17   48 1
    37   18   19 2
    38   20   49 1
    39   20   50 1
    40   20   51 1
    41   21   52 1
    42   21   53 1
    43   21   54 1
    44   22   23 am
    45   22   25 1
    46   23   24 2
    47   25   30 ar
    48   25   26 ar
    49   26   27 ar
    50   26   55 1
    51   27   28 ar
    52   27   56 1
    53   28   29 ar
    54   28   31 1
    55   29   30 ar
    56   29   57 1
    57   30   58 1
    58   31   32 1
    59   32   59 1
    60   32   60 1
    61   32   61 1
    62   33   34 1
    63   33   35 1
    64   33   36 1
@<TRIPOS>MOLECULE
ZINC02782758
   56    59     0     0     0
SMALL
USER_CHARGES
3-[(4-bromo-3,5-dimethyl-pyrazol-1-yl)methyl]-N-(2-methyl-4-oxo-6-propyl-thieno[2,3-d]pyrimidin-3-yl)benzamide
@<TRIPOS>ATOM
      1 C1         -0.7527    1.5927   -1.2315 C.3       1 <0>        -0.1555
      2 C2         -0.0127    1.0858    0.0080 C.3       1 <0>        -0.1226
      3 C3         -0.7288    1.5792    1.2668 C.3       1 <0>        -0.0376
      4 C4          0.0000    1.0800    2.4877 C.2       1 <0>        -0.1490
      5 C5          0.9991    1.6728    3.1609 C.2       1 <0>        -0.0907
      6 C6          1.5622    1.0092    4.3219 C.2       1 <0>        -0.2401
      7 C7          0.9832   -0.2336    4.6359 C.2       1 <0>         0.1020
      8 S1         -0.2628   -0.4356    3.3890 S.3       1 <0>         0.1540
      9 N1          1.3935   -0.9590    5.6721 N.2       1 <0>        -0.4774
     10 C8          2.3596   -0.5412    6.4454 C.2       1 <0>         0.4161
     11 N2          2.9775    0.6465    6.2188 N.am      1 <0>        -0.3211
     12 C9          2.6188    1.4372    5.1903 C.2       1 <0>         0.5598
     13 O1          3.1834    2.5007    5.0008 O.2       1 <0>        -0.5047
     14 N3          4.0091    1.0574    7.0730 N.am      1 <0>        -0.5394
     15 C10         3.7849    2.0258    7.9831 C.2       1 <0>         0.5734
     16 O2          2.6877    2.5427    8.0628 O.2       1 <0>        -0.5052
     17 C11         4.8736    2.4594    8.8846 C.ar      1 <0>        -0.1269
     18 C12         6.1332    1.8638    8.7996 C.ar      1 <0>        -0.0717
     19 C13         7.1462    2.2770    9.6398 C.ar      1 <0>        -0.1219
     20 C14         6.9125    3.2713   10.5735 C.ar      1 <0>        -0.0553
     21 C15         5.6649    3.8616   10.6667 C.ar      1 <0>        -0.1222
     22 C16         4.6447    3.4619    9.8281 C.ar      1 <0>        -0.0362
     23 C17         5.4196    4.9440   11.6862 C.3       1 <0>         0.1713
     24 N4          4.9568    4.3400   12.9381 N.pl3     1 <0>        -0.3607
     25 C18         3.6717    4.1039   13.2785 C.2       1 <0>         0.1320
     26 C19         3.6685    3.5359   14.5072 C.2       1 <0>        -0.2445
     27 C20         4.9962    3.4293   14.9355 C.2       1 <0>         0.1096
     28 N5          5.7689    3.9109   13.9957 N.2       1 <0>        -0.2833
     29 C21         5.4569    2.8587   16.2520 C.3       1 <0>        -0.0815
     30 Br1         2.1394    2.9894   15.4764 Br        1 <0>        -0.0186
     31 C22         2.4588    4.4146   12.4399 C.3       1 <0>        -0.1117
     32 C23         2.7965   -1.3926    7.6096 C.3       1 <0>        -0.1126
     33 H1         -0.2378    1.2380   -2.1365 H         1 <0>         0.0589
     34 H2         -0.7676    2.6926   -1.2254 H         1 <0>         0.0572
     35 H3         -1.7847    1.2120   -1.2237 H         1 <0>         0.0573
     36 H4          0.0022   -0.0141    0.0019 H         1 <0>         0.0671
     37 H5          1.0193    1.4665    0.0002 H         1 <0>         0.0674
     38 H6         -0.7437    2.6791    1.2728 H         1 <0>         0.0923
     39 H7         -1.7608    1.1985    1.2746 H         1 <0>         0.0853
     40 H8          1.3793    2.6320    2.8419 H         1 <0>         0.1440
     41 H9          5.0021    0.5896    7.0009 H         1 <0>         0.4503
     42 H10         6.3155    1.0844    8.0746 H         1 <0>         0.1293
     43 H11         8.1225    1.8204    9.5718 H         1 <0>         0.1387
     44 H12         7.7077    3.5880   11.2320 H         1 <0>         0.1360
     45 H13         3.6714    3.9241    9.9015 H         1 <0>         0.1395
     46 H14         6.3542    5.4947   11.8684 H         1 <0>         0.1147
     47 H15         4.6534    5.6369   11.3082 H         1 <0>         0.1094
     48 H16         6.5544    2.9066   16.3084 H         1 <0>         0.0780
     49 H17         5.1310    1.8111   16.3317 H         1 <0>         0.0842
     50 H18         5.0216    3.4419   17.0768 H         1 <0>         0.0846
     51 H19         1.5510    4.1095   12.9810 H         1 <0>         0.0959
     52 H20         2.5205    3.8659   11.4885 H         1 <0>         0.0847
     53 H21         2.4196    5.4952   12.2380 H         1 <0>         0.0859
     54 H22         3.6139   -0.8886    8.1461 H         1 <0>         0.0885
     55 H23         3.1469   -2.3675    7.2398 H         1 <0>         0.1123
     56 H24         1.9476   -1.5431    8.2927 H         1 <0>         0.1109
@<TRIPOS>BOND
     1    1    2 1
     2    1   33 1
     3    1   34 1
     4    1   35 1
     5    2    3 1
     6    2   36 1
     7    2   37 1
     8    3    4 1
     9    3   38 1
    10    3   39 1
    11    4    8 1
    12    4    5 2
    13    5    6 1
    14    5   40 1
    15    6   12 1
    16    6    7 2
    17    7    8 1
    18    7    9 1
    19    9   10 2
    20   10   11 1
    21   10   32 1
    22   11   12 am
    23   11   14 1
    24   12   13 2
    25   14   15 am
    26   14   41 1
    27   15   16 2
    28   15   17 1
    29   17   22 ar
    30   17   18 ar
    31   18   19 ar
    32   18   42 1
    33   19   20 ar
    34   19   43 1
    35   20   21 ar
    36   20   44 1
    37   21   22 ar
    38   21   23 1
    39   22   45 1
    40   23   24 1
    41   23   46 1
    42   23   47 1
    43   24   28 1
    44   24   25 1
    45   25   26 2
    46   25   31 1
    47   26   27 1
    48   26   30 1
    49   27   28 2
    50   27   29 1
    51   29   48 1
    52   29   49 1
    53   29   50 1
    54   31   51 1
    55   31   52 1
    56   31   53 1
    57   32   54 1
    58   32   55 1
    59   32   56 1
@<TRIPOS>MOLECULE
ZINC16661818
   63    66     0     0     0
SMALL
USER_CHARGES

@<TRIPOS>ATOM
      1 C1          1.1717    2.1240    3.0299 C.3       1 <0>        -0.1157
      2 C2          0.8801    0.6771    2.7259 C.ar      1 <0>        -0.0970
      3 C3          1.7641   -0.3052    3.1332 C.ar      1 <0>        -0.1014
      4 C4          1.4997   -1.6321    2.8561 C.ar      1 <0>        -0.1139
      5 C5          0.3445   -1.9795    2.1681 C.ar      1 <0>         0.1340
      6 C6         -0.5414   -0.9907    1.7608 C.ar      1 <0>        -0.1382
      7 C7         -0.2737    0.3341    2.0452 C.ar      1 <0>        -0.1020
      8 N1          0.0740   -3.3229    1.8854 N.am      1 <0>        -0.6671
      9 C8          0.4608   -4.2841    2.7474 C.2       1 <0>         0.5175
     10 O1          0.9688   -3.9805    3.8061 O.2       1 <0>        -0.5079
     11 C9          0.2621   -5.7360    2.3958 C.3       1 <0>        -0.1217
     12 C10         0.7826   -6.6128    3.5364 C.3       1 <0>        -0.0931
     13 H1          0.3242   -6.3347    4.4854 H         1 <0>         0.1769
     14 C11         0.5749   -8.0884    3.2357 C.2       1 <0>         0.5318
     15 O2         -0.5296   -8.5661    3.0868 O.2       1 <0>        -0.4424
     16 N2          1.6734   -8.8184    3.1462 N.am      1 <0>        -0.5873
     17 C12         2.9348   -8.2810    3.3142 C.2       1 <0>         0.5221
     18 N3          4.0842   -8.8911    3.2508 N.2       1 <0>        -0.9279
     19 S1          4.1622  -10.5332    3.4499 S.o2      1 <0>         2.6338
     20 O3          3.5134  -10.8244    4.6802 O.2       1 <0>        -0.9636
     21 O4          3.7540  -11.1115    2.2178 O.2       1 <0>        -0.9542
     22 C13         5.8602  -10.9519    3.6647 C.ar      1 <0>        -0.6524
     23 C14         6.6433  -11.2486    2.5649 C.ar      1 <0>        -0.0102
     24 C15         7.9755  -11.5771    2.7334 C.ar      1 <0>        -0.1421
     25 C16         8.5246  -11.6084    4.0016 C.ar      1 <0>        -0.0232
     26 C17         7.7417  -11.3108    5.1013 C.ar      1 <0>        -0.1413
     27 C18         6.4106  -10.9781    4.9325 C.ar      1 <0>        -0.0133
     28 C19         9.9766  -11.9675    4.1853 C.3       1 <0>        -0.1268
     29 S2          2.6193   -6.5515    3.6398 S.3       1 <0>         0.0397
     30 C20         1.5484  -10.2495    2.8589 C.3       1 <0>         0.0968
     31 C21         1.4419  -10.4587    1.3470 C.3       1 <0>        -0.1079
     32 C22         1.3113  -11.9533    1.0470 C.3       1 <0>        -0.1114
     33 C23         0.0559  -12.5024    1.7276 C.3       1 <0>        -0.1254
     34 C24         0.1625  -12.2932    3.2394 C.3       1 <0>        -0.1166
     35 C25         0.2930  -10.7986    3.5395 C.3       1 <0>        -0.1495
     36 H2          0.7409    2.3862    3.9962 H         1 <0>         0.0709
     37 H3          2.2502    2.2790    3.0588 H         1 <0>         0.0670
     38 H4          0.7348    2.7534    2.2546 H         1 <0>         0.0666
     39 H5          2.6623   -0.0344    3.6682 H         1 <0>         0.1266
     40 H6          2.1908   -2.3988    3.1739 H         1 <0>         0.1362
     41 H7         -1.4405   -1.2576    1.2252 H         1 <0>         0.1262
     42 H8         -0.9643    1.1032    1.7323 H         1 <0>         0.1268
     43 H9         -0.3919   -3.5625    1.0690 H         1 <0>         0.4140
     44 H10        -0.7994   -5.9308    2.2431 H         1 <0>         0.1339
     45 H11         0.8090   -5.9666    1.4816 H         1 <0>         0.1193
     46 H12         6.2143  -11.2242    1.5741 H         1 <0>         0.1428
     47 H13         8.5871  -11.8097    1.8742 H         1 <0>         0.1368
     48 H14         8.1706  -11.3356    6.0922 H         1 <0>         0.1370
     49 H15         5.7999  -10.7420    5.7913 H         1 <0>         0.1409
     50 H16        10.5828  -11.0626    4.1432 H         1 <0>         0.0821
     51 H17        10.1118  -12.4506    5.1530 H         1 <0>         0.0748
     52 H18        10.2855  -12.6490    3.3927 H         1 <0>         0.0748
     53 H19         2.4258  -10.7741    3.2373 H         1 <0>         0.0688
     54 H20         0.5645   -9.9342    0.9686 H         1 <0>         0.0668
     55 H21         2.3363  -10.0676    0.8622 H         1 <0>         0.0790
     56 H22         1.2354  -12.1024   -0.0301 H         1 <0>         0.0681
     57 H23         2.1887  -12.4779    1.4254 H         1 <0>         0.0832
     58 H24        -0.8215  -11.9779    1.3491 H         1 <0>         0.0641
     59 H25        -0.0371  -13.5672    1.5138 H         1 <0>         0.0665
     60 H26        -0.7320  -12.6844    3.7243 H         1 <0>         0.0727
     61 H27         1.0398  -12.8177    3.6179 H         1 <0>         0.0616
     62 H28         0.3689  -10.6496    4.6166 H         1 <0>         0.0684
     63 H29        -0.5844  -10.2741    3.1611 H         1 <0>         0.1251
@<TRIPOS>BOND
     1    1    2 1
     2    1   36 1
     3    1   37 1
     4    1   38 1
     5    2    7 ar
     6    2    3 ar
     7    3    4 ar
     8    3   39 1
     9    4    5 ar
    10    4   40 1
    11    5    6 ar
    12    5    8 1
    13    6    7 ar
    14    6   41 1
    15    7   42 1
    16    8    9 am
    17    8   43 1
    18    9   10 2
    19    9   11 1
    20   11   12 1
    21   11   44 1
    22   11   45 1
    23   12   13 1
    24   12   29 1
    25   12   14 1
    26   14   15 2
    27   14   16 am
    28   16   17 1
    29   16   30 1
    30   17   18 2
    31   17   29 1
    32   18   19 1
    33   19   20 2
    34   19   21 2
    35   19   22 1
    36   22   27 ar
    37   22   23 ar
    38   23   24 ar
    39   23   46 1
    40   24   25 ar
    41   24   47 1
    42   25   26 ar
    43   25   28 1
    44   26   27 ar
    45   26   48 1
    46   27   49 1
    47   28   50 1
    48   28   51 1
    49   28   52 1
    50   30   35 1
    51   30   31 1
    52   30   53 1
    53   31   32 1
    54   31   54 1
    55   31   55 1
    56   32   33 1
    57   32   56 1
    58   32   57 1
    59   33   34 1
    60   33   58 1
    61   33   59 1
    62   34   35 1
    63   34   60 1
    64   34   61 1
    65   35   62 1
    66   35   63 1
@<TRIPOS>MOLECULE
ZINC14740758
   56    58     0     0     0
SMALL
USER_CHARGES
(5R)-5-[(2,6-difluorophenyl)methylamino]-1-isobutyl-N,N-dimethyl-4,5,6,7-tetrahydroindazole-3-carboxamide
@<TRIPOS>ATOM
      1 C1          0.1954    2.3370   -1.6021 C.3       1 <0>        -0.1478
      2 C2          0.8095    1.7793   -0.3165 C.3       1 <0>        -0.1103
      3 C3          0.2005    2.4941    0.8914 C.3       1 <0>        -0.1607
      4 C4          2.3225    2.0062   -0.3339 C.3       1 <0>         0.1181
      5 N1          2.9255    1.3678    0.8387 N.pl3     1 <0>        -0.2677
      6 C5          3.1145    1.9634    2.0277 C.2       1 <0>         0.0118
      7 C6          3.6938    1.0507    2.8461 C.2       1 <0>        -0.1412
      8 C7          3.8440   -0.1161    2.0781 C.2       1 <0>        -0.0090
      9 N2          3.3573    0.1545    0.8790 N.2       1 <0>        -0.2603
     10 C8          4.4314   -1.3961    2.5236 C.2       1 <0>         0.6008
     11 O1          4.9267   -1.4851    3.6302 O.2       1 <0>        -0.5254
     12 N3          4.4182   -2.4653    1.7032 N.am      1 <0>        -0.6133
     13 C9          4.9460   -3.7509    2.1668 C.3       1 <0>         0.0875
     14 C10         3.8762   -2.3420    0.3477 C.3       1 <0>         0.0886
     15 C11         4.0786    1.3086    4.2767 C.3       1 <0>        -0.0247
     16 C12         4.0965    2.8286    4.5028 C.3       1 <0>         0.0833
     17 H1          4.9622    3.2896    4.0047 H         1 <0>         0.0801
     18 C13         2.7908    3.4338    3.9802 C.3       1 <0>        -0.1419
     19 C14         2.7694    3.3690    2.4477 C.3       1 <0>        -0.0552
     20 N4          4.2243    3.1066    5.9396 N.3       1 <0>        -0.6583
     21 C15         4.8194    4.4299    6.1689 C.3       1 <0>         0.0888
     22 C16         4.9343    4.6791    7.6507 C.ar      1 <0>        -0.1543
     23 C17         3.8963    5.2900    8.3329 C.ar      1 <0>         0.1324
     24 C18         4.0009    5.5137    9.6954 C.ar      1 <0>        -0.1653
     25 C19         5.1456    5.1372   10.3722 C.ar      1 <0>        -0.0594
     26 C20         6.1850    4.5323    9.6910 C.ar      1 <0>        -0.1656
     27 C21         6.0803    4.3024    8.3295 C.ar      1 <0>         0.1512
     28 F1          7.0964    3.7111    7.6640 F         1 <0>        -0.1234
     29 F2          2.7795    5.6631    7.6705 F         1 <0>        -0.1309
     30 H2          0.6332    1.8231   -2.4705 H         1 <0>         0.0615
     31 H3          0.4038    3.4149   -1.6704 H         1 <0>         0.0606
     32 H4         -0.8924    2.1739   -1.5896 H         1 <0>         0.0659
     33 H5          0.6011    0.7014   -0.2481 H         1 <0>         0.0824
     34 H6          0.6420    2.0931    1.8157 H         1 <0>         0.0619
     35 H7         -0.8873    2.3310    0.9039 H         1 <0>         0.0636
     36 H8          0.4089    3.5720    0.8230 H         1 <0>         0.0616
     37 H9          2.7483    1.5690   -1.2490 H         1 <0>         0.1045
     38 H10         2.5316    3.0859   -0.3118 H         1 <0>         0.1011
     39 H11         4.8506   -4.4972    1.3644 H         1 <0>         0.0773
     40 H12         4.3775   -4.0846    3.0474 H         1 <0>         0.0629
     41 H13         6.0062   -3.6361    2.4367 H         1 <0>         0.0637
     42 H14         3.9504   -3.3116   -0.1664 H         1 <0>         0.0714
     43 H15         4.4500   -1.5867   -0.2093 H         1 <0>         0.0674
     44 H16         2.8212   -2.0351    0.4012 H         1 <0>         0.0666
     45 H17         3.3439    0.8357    4.9450 H         1 <0>         0.0783
     46 H18         5.0756    0.8859    4.4702 H         1 <0>         0.0903
     47 H19         1.9376    2.8672    4.3815 H         1 <0>         0.0749
     48 H20         2.7182    4.4831    4.3023 H         1 <0>         0.0731
     49 H21         3.5090    4.0683    2.0306 H         1 <0>         0.0808
     50 H22         1.7680    3.6281    2.0735 H         1 <0>         0.0900
     51 H23         3.2293    3.0814    6.4078 H         1 <0>         0.3409
     52 H24         5.8195    4.4663    5.7123 H         1 <0>         0.0897
     53 H25         4.1811    5.2026    5.7155 H         1 <0>         0.0507
     54 H26         3.1893    5.9863   10.2287 H         1 <0>         0.1428
     55 H27         5.2281    5.3161   11.4341 H         1 <0>         0.1445
     56 H28         7.0790    4.2385   10.2209 H         1 <0>         0.1438
@<TRIPOS>BOND
     1    1    2 1
     2    1   30 1
     3    1   31 1
     4    1   32 1
     5    2    3 1
     6    2    4 1
     7    2   33 1
     8    3   34 1
     9    3   35 1
    10    3   36 1
    11    4    5 1
    12    4   37 1
    13    4   38 1
    14    5    9 1
    15    5    6 1
    16    6   19 1
    17    6    7 2
    18    7    8 1
    19    7   15 1
    20    8    9 2
    21    8   10 1
    22   10   11 2
    23   10   12 am
    24   12   13 1
    25   12   14 1
    26   13   39 1
    27   13   40 1
    28   13   41 1
    29   14   42 1
    30   14   43 1
    31   14   44 1
    32   15   16 1
    33   15   45 1
    34   15   46 1
    35   16   17 1
    36   16   18 1
    37   16   20 1
    38   18   19 1
    39   18   47 1
    40   18   48 1
    41   19   49 1
    42   19   50 1
    43   20   21 1
    44   20   51 1
    45   21   22 1
    46   21   52 1
    47   21   53 1
    48   22   27 ar
    49   22   23 ar
    50   23   24 ar
    51   23   29 1
    52   24   25 ar
    53   24   54 1
    54   25   26 ar
    55   25   55 1
    56   26   27 ar
    57   26   56 1
    58   27   28 1
@<TRIPOS>MOLECULE
ZINC35196206
   53    55     0     0     0
SMALL
USER_CHARGES

@<TRIPOS>ATOM
      1 C1         -3.1571    0.6565   -0.8607 C.3       1 <0>        -0.1210
      2 C2         -2.5780   -0.7286   -0.7296 C.ar      1 <0>        -0.0558
      3 C3         -2.4142   -1.5161   -1.8553 C.ar      1 <0>        -0.1333
      4 C4         -1.8846   -2.7849   -1.7422 C.ar      1 <0>        -0.0501
      5 C5         -1.5137   -3.2737   -0.4886 C.ar      1 <0>        -0.1420
      6 C6         -1.6815   -2.4741    0.6431 C.ar      1 <0>        -0.1310
      7 C7         -2.2071   -1.2050    0.5153 C.ar      1 <0>        -0.1285
      8 C8         -0.9459   -4.6327   -0.3598 C.2       1 <0>         0.5823
      9 O1         -0.9271   -5.3771   -1.3206 O.2       1 <0>        -0.5015
     10 N1         -0.4493   -5.0463    0.8228 N.am      1 <0>        -0.6071
     11 C9          0.2486   -6.3210    0.9650 C.3       1 <0>         0.1155
     12 H1         -0.4701   -7.0956    1.2327 H         1 <0>         0.1038
     13 C10         1.3426   -6.2331    2.0697 C.3       1 <0>        -0.0674
     14 S1          0.4215   -5.1796    3.2786 S.3       1 <0>        -0.2457
     15 C11        -0.5732   -4.2350    2.0488 C.3       1 <0>         0.2522
     16 H2         -0.1551   -3.2401    1.8960 H         1 <0>         0.1352
     17 C12        -2.0127   -4.1477    2.4861 C.2       1 <0>        -0.1994
     18 C13        -2.6245   -3.0657    3.1599 C.2       1 <0>        -0.2006
     19 C14        -3.9113   -3.4054    3.3548 C.2       1 <0>        -0.0235
     20 O2         -4.1103   -4.6289    2.8378 O.3       1 <0>        -0.1678
     21 C15        -2.9636   -5.0818    2.3052 C.2       1 <0>         0.0120
     22 C16         0.8984   -6.6797   -0.3465 C.2       1 <0>         0.5265
     23 O3          1.3291   -5.8058   -1.0689 O.2       1 <0>        -0.5099
     24 N2          1.0009   -7.9715   -0.7168 N.am      1 <0>        -0.7254
     25 C17         1.6326   -8.3202   -1.9918 C.3       1 <0>         0.1212
     26 C18         1.6200   -9.8399   -2.1684 C.3       1 <0>        -0.1270
     27 C19         2.2797  -10.2041   -3.5000 C.3       1 <0>        -0.0929
     28 C20         2.3797  -11.7261   -3.6202 C.3       1 <0>        -0.1479
     29 C21         1.4373   -9.6556   -4.6534 C.3       1 <0>        -0.1535
     30 H3         -2.3524    1.3725   -1.0275 H         1 <0>         0.0755
     31 H4         -3.8477    0.6832   -1.7036 H         1 <0>         0.0695
     32 H5         -3.6902    0.9155    0.0541 H         1 <0>         0.0696
     33 H6         -2.7020   -1.1368   -2.8247 H         1 <0>         0.1290
     34 H7         -1.7576   -3.3988   -2.6217 H         1 <0>         0.1334
     35 H8         -1.3965   -2.8465    1.6160 H         1 <0>         0.1823
     36 H9         -2.3334   -0.5836    1.3896 H         1 <0>         0.1267
     37 H10         1.5725   -7.2139    2.4857 H         1 <0>         0.1353
     38 H11         2.2410   -5.7345    1.7059 H         1 <0>         0.1108
     39 H12        -2.1496   -2.1436    3.4608 H         1 <0>         0.1565
     40 H13        -4.6578   -2.7976    3.8444 H         1 <0>         0.2080
     41 H14        -2.8274   -6.0353    1.8167 H         1 <0>         0.1986
     42 H15         0.6564   -8.6704   -0.1391 H         1 <0>         0.3987
     43 H16         1.0819   -7.8549   -2.8093 H         1 <0>         0.0732
     44 H17         2.6621   -7.9623   -1.9971 H         1 <0>         0.0662
     45 H18         2.1707  -10.3053   -1.3509 H         1 <0>         0.0694
     46 H19         0.5905  -10.1978   -2.1631 H         1 <0>         0.0701
     47 H20         3.2787   -9.7700   -3.5412 H         1 <0>         0.0729
     48 H21         1.3807  -12.1602   -3.5790 H         1 <0>         0.0552
     49 H22         2.8497  -11.9855   -4.5689 H         1 <0>         0.0570
     50 H23         2.9799  -12.1168   -2.7985 H         1 <0>         0.0548
     51 H24         1.3661   -8.5713   -4.5677 H         1 <0>         0.0584
     52 H25         1.9073   -9.9150   -5.6020 H         1 <0>         0.0562
     53 H26         0.4383  -10.0897   -4.6121 H         1 <0>         0.0554
@<TRIPOS>BOND
     1    1    2 1
     2    1   30 1
     3    1   31 1
     4    1   32 1
     5    2    7 ar
     6    2    3 ar
     7    3    4 ar
     8    3   33 1
     9    4    5 ar
    10    4   34 1
    11    5    6 ar
    12    5    8 1
    13    6    7 ar
    14    6   35 1
    15    7   36 1
    16    8    9 2
    17    8   10 am
    18   10   15 1
    19   10   11 1
    20   11   12 1
    21   11   13 1
    22   11   22 1
    23   13   14 1
    24   13   37 1
    25   13   38 1
    26   14   15 1
    27   15   16 1
    28   15   17 1
    29   17   21 2
    30   17   18 1
    31   18   19 2
    32   18   39 1
    33   19   20 1
    34   19   40 1
    35   20   21 1
    36   21   41 1
    37   22   23 2
    38   22   24 am
    39   24   25 1
    40   24   42 1
    41   25   26 1
    42   25   43 1
    43   25   44 1
    44   26   27 1
    45   26   45 1
    46   26   46 1
    47   27   28 1
    48   27   29 1
    49   27   47 1
    50   28   48 1
    51   28   49 1
    52   28   50 1
    53   29   51 1
    54   29   52 1
    55   29   53 1
@<TRIPOS>MOLECULE
ZINC48374036
   52    55     0     0     0
SMALL
USER_CHARGES

@<TRIPOS>ATOM
      1 C1          0.5585    2.4409   -1.7608 C.3       1 <0>        -0.1435
      2 C2          0.2104    1.3230   -0.7758 C.3       1 <0>         0.0519
      3 N1          0.5293    0.0221   -1.3789 N.3       1 <0>        -0.4962
      4 C3         -0.0834   -1.0752   -0.6183 C.3       1 <0>         0.0871
      5 C4         -1.5565   -1.1405   -0.9291 C.2       1 <0>         0.4043
      6 N2         -2.3233   -2.0852   -0.3261 N.am      1 <0>        -0.6371
      7 H1         -1.9120   -2.7046    0.2968 H         1 <0>         0.4186
      8 C5         -3.6434   -2.1791   -0.5753 C.2       1 <0>         0.5563
      9 O1         -4.3196   -3.0321   -0.0266 O.2       1 <0>        -0.5225
     10 C6         -4.2382   -1.2574   -1.4969 C.2       1 <0>        -0.2412
     11 C7         -5.6455   -1.1747   -1.9156 C.2       1 <0>        -0.0742
     12 C8         -5.9600   -0.2143   -2.8017 C.2       1 <0>        -0.1995
     13 S1         -4.4291    0.6294   -3.1276 S.3       1 <0>         0.1875
     14 C9         -3.3692   -0.3190   -2.0687 C.2       1 <0>         0.1034
     15 N3         -2.0729   -0.2839   -1.7694 N.2       1 <0>        -0.4506
     16 C10        -7.4218   -0.2282   -3.1597 C.3       1 <0>        -0.0325
     17 C11        -7.9206   -1.6155   -2.6991 C.3       1 <0>        -0.1175
     18 C12        -6.9210   -1.9505   -1.5747 C.3       1 <0>        -0.0629
     19 C13         1.9821   -0.1633   -1.4929 C.3       1 <0>         0.1182
     20 H2          2.4144    0.6780   -2.0345 H         1 <0>         0.1045
     21 C14         2.2728   -1.4607   -2.2500 C.3       1 <0>        -0.1458
     22 C15         2.5885   -0.2389   -0.1154 C.ar      1 <0>        -0.0784
     23 C16         2.2899   -1.3050    0.7133 C.ar      1 <0>        -0.1643
     24 C17         2.8446   -1.3773    1.9775 C.ar      1 <0>        -0.0761
     25 C18         3.6985   -0.3837    2.4164 C.ar      1 <0>        -0.2082
     26 C19         3.9995    0.6867    1.5871 C.ar      1 <0>         0.1316
     27 C20         3.4464    0.7537    0.3163 C.ar      1 <0>        -0.1385
     28 O2          4.8393    1.6652    2.0164 O.3       1 <0>        -0.3167
     29 C21         5.3761    1.5276    3.3336 C.3       1 <0>         0.0266
     30 H3          1.6367    2.4625   -1.9196 H         1 <0>         0.0512
     31 H4          0.0550    2.2585   -2.7101 H         1 <0>         0.0691
     32 H5          0.2319    3.3981   -1.3543 H         1 <0>         0.0578
     33 H6          0.7893    1.4512    0.1388 H         1 <0>         0.0383
     34 H7         -0.8533    1.3637   -0.5412 H         1 <0>         0.0779
     35 H8          0.3887   -2.0177   -0.8960 H         1 <0>         0.1193
     36 H9          0.0555   -0.8997    0.4485 H         1 <0>         0.0850
     37 H10        -7.9513    0.5622   -2.6277 H         1 <0>         0.0880
     38 H11        -7.5509   -0.1158   -4.2362 H         1 <0>         0.0824
     39 H12        -8.9377   -1.5557   -2.3118 H         1 <0>         0.0860
     40 H13        -7.8550   -2.3423   -3.5088 H         1 <0>         0.0778
     41 H14        -6.7178   -3.0212   -1.5576 H         1 <0>         0.0792
     42 H15        -7.3140   -1.6252   -0.6115 H         1 <0>         0.0818
     43 H16         1.8342   -1.4061   -3.2464 H         1 <0>         0.0732
     44 H17         3.3508   -1.5983   -2.3346 H         1 <0>         0.0671
     45 H18         1.8405   -2.3021   -1.7084 H         1 <0>         0.0561
     46 H19         1.6221   -2.0823    0.3724 H         1 <0>         0.1254
     47 H20         2.6099   -2.2109    2.6228 H         1 <0>         0.1261
     48 H21         4.1310   -0.4403    3.4044 H         1 <0>         0.1280
     49 H22         3.6829    1.5837   -0.3330 H         1 <0>         0.1312
     50 H23         4.5613    1.5025    4.0572 H         1 <0>         0.0560
     51 H24         5.9479    0.6019    3.3980 H         1 <0>         0.0565
     52 H25         6.0285    2.3735    3.5502 H         1 <0>         0.1022
@<TRIPOS>BOND
     1    1    2 1
     2    1   30 1
     3    1   31 1
     4    1   32 1
     5    2    3 1
     6    2   33 1
     7    2   34 1
     8    3    4 1
     9    3   19 1
    10    4    5 1
    11    4   35 1
    12    4   36 1
    13    5   15 2
    14    5    6 1
    15    6    7 1
    16    6    8 am
    17    8    9 2
    18    8   10 1
    19   10   14 2
    20   10   11 1
    21   11   18 1
    22   11   12 2
    23   12   13 1
    24   12   16 1
    25   13   14 1
    26   14   15 1
    27   16   17 1
    28   16   37 1
    29   16   38 1
    30   17   18 1
    31   17   39 1
    32   17   40 1
    33   18   41 1
    34   18   42 1
    35   19   20 1
    36   19   21 1
    37   19   22 1
    38   21   43 1
    39   21   44 1
    40   21   45 1
    41   22   27 ar
    42   22   23 ar
    43   23   24 ar
    44   23   46 1
    45   24   25 ar
    46   24   47 1
    47   25   26 ar
    48   25   48 1
    49   26   27 ar
    50   26   28 1
    51   27   49 1
    52   28   29 1
    53   29   50 1
    54   29   51 1
    55   29   52 1
@<TRIPOS>MOLECULE
ZINC60832381
   48    51     0     0     0
SMALL
USER_CHARGES

@<TRIPOS>ATOM
      1 C1         -0.0187    1.5258    0.0104 C.3       1 <0>        -0.1590
      2 C2          0.0021   -0.0041    0.0020 C.3       1 <0>        -0.1127
      3 C3          0.7182   -0.4975   -1.2568 C.3       1 <0>         0.1235
      4 N1         -0.0549   -0.1139   -2.4405 N.am      1 <0>        -0.7199
      5 C4          0.3867   -0.4447   -3.6702 C.2       1 <0>         0.5830
      6 O1          1.4277   -1.0621   -3.7971 O.2       1 <0>        -0.5237
      7 C5         -0.3877   -0.0605   -4.8558 C.2       1 <0>        -0.2153
      8 C6         -0.1509    1.2144   -5.5338 C.2       1 <0>        -0.0452
      9 C7         -0.9408    1.4095   -6.6029 C.2       1 <0>        -0.1885
     10 S1         -1.9588   -0.0433   -6.6898 S.3       1 <0>         0.2271
     11 C8         -1.3602   -0.8915   -5.3730 C.2       1 <0>         0.0481
     12 N2         -1.7541   -2.1419   -4.9087 N.pl3     1 <0>        -0.3644
     13 C9         -1.2364   -2.7879   -3.8209 C.2       1 <0>        -0.0071
     14 C10        -1.8719   -3.9698   -3.6915 C.2       1 <0>        -0.1792
     15 C11        -2.8160   -4.0599   -4.7348 C.2       1 <0>        -0.1702
     16 C12        -2.7274   -2.9272   -5.4605 C.2       1 <0>        -0.0198
     17 C13        -0.9976    2.5676   -7.5605 C.3       1 <0>        -0.0040
     18 S2         -0.1142    3.9712   -6.8100 S.3       1 <0>        -0.2234
     19 C14         1.3515    3.1563   -6.1022 C.3       1 <0>        -0.0832
     20 C15         0.8974    2.1857   -5.0187 C.3       1 <0>        -0.0631
     21 C16         0.7421   -0.5109    1.2415 C.3       1 <0>         0.1405
     22 N3         -0.0083   -0.1401    2.4439 N.pl3     1 <0>        -0.3718
     23 C17        -0.4280   -0.9841    3.4096 C.2       1 <0>         0.0536
     24 C18        -1.0810   -0.2522    4.3418 C.2       1 <0>        -0.2728
     25 C19        -1.0596    1.0848    3.9318 C.2       1 <0>         0.0440
     26 N4         -0.4116    1.1541    2.7973 N.2       1 <0>        -0.2920
     27 H1          1.0039    1.9031    0.0027 H         1 <0>         0.0565
     28 H2         -0.5459    1.8868   -0.8726 H         1 <0>         0.0505
     29 H3         -0.5289    1.8773    0.9072 H         1 <0>         0.0937
     30 H4         -1.0205   -0.3814    0.0098 H         1 <0>         0.0833
     31 H5          1.7103   -0.0491   -1.3098 H         1 <0>         0.0771
     32 H6          0.8116   -1.5829   -1.2198 H         1 <0>         0.0720
     33 H7         -0.8847    0.3783   -2.3394 H         1 <0>         0.4045
     34 H8         -0.4535   -2.4159   -3.1767 H         1 <0>         0.1658
     35 H9         -1.6906   -4.7122   -2.9283 H         1 <0>         0.1480
     36 H10        -3.4903   -4.8838   -4.9166 H         1 <0>         0.1504
     37 H11        -3.3210   -2.6835   -6.3293 H         1 <0>         0.1709
     38 H12        -0.5186    2.2917   -8.4999 H         1 <0>         0.1094
     39 H13        -2.0363    2.8426   -7.7437 H         1 <0>         0.1249
     40 H14         1.8793    2.6103   -6.8840 H         1 <0>         0.0922
     41 H15         2.0123    3.9062   -5.6674 H         1 <0>         0.1190
     42 H16         0.4784    2.7525   -4.1873 H         1 <0>         0.0947
     43 H17         1.7598    1.6218   -4.6632 H         1 <0>         0.0897
     44 H18         0.8346   -1.5958    1.1912 H         1 <0>         0.0998
     45 H19         1.7350   -0.0630    1.2804 H         1 <0>         0.0899
     46 H20        -0.2712   -2.0524    3.4338 H         1 <0>         0.1733
     47 H21        -1.5385   -0.6333    5.2429 H         1 <0>         0.1475
     48 H22        -1.4979    1.9171    4.4625 H         1 <0>         0.1827
@<TRIPOS>BOND
     1    1    2 1
     2    1   27 1
     3    1   28 1
     4    1   29 1
     5    2    3 1
     6    2   21 1
     7    2   30 1
     8    3    4 1
     9    3   31 1
    10    3   32 1
    11    4    5 am
    12    4   33 1
    13    5    6 2
    14    5    7 1
    15    7   11 2
    16    7    8 1
    17    8   20 1
    18    8    9 2
    19    9   10 1
    20    9   17 1
    21   10   11 1
    22   11   12 1
    23   12   16 1
    24   12   13 1
    25   13   14 2
    26   13   34 1
    27   14   15 1
    28   14   35 1
    29   15   16 2
    30   15   36 1
    31   16   37 1
    32   17   18 1
    33   17   38 1
    34   17   39 1
    35   18   19 1
    36   19   20 1
    37   19   40 1
    38   19   41 1
    39   20   42 1
    40   20   43 1
    41   21   22 1
    42   21   44 1
    43   21   45 1
    44   22   26 1
    45   22   23 1
    46   23   24 2
    47   23   46 1
    48   24   25 1
    49   24   47 1
    50   25   26 2
    51   25   48 1
@<TRIPOS>MOLECULE
ZINC67002625
   43    44     0     0     0
SMALL
USER_CHARGES

@<TRIPOS>ATOM
      1 C1          2.9847    0.3463    1.5172 C.3       1 <0>        -0.0860
      2 C2          2.3043   -0.9668    1.2275 C.2       1 <0>        -0.0826
      3 C3          0.9956   -1.2963    1.3541 C.2       1 <0>        -0.2054
      4 C4          0.5919   -2.5767    1.0253 C.2       1 <0>         0.0149
      5 C5          1.5166   -3.4651    0.5859 C.2       1 <0>        -0.7927
      6 S1          3.0115   -2.4897    0.6210 S.3       1 <0>         0.1699
      7 S2          1.2987   -5.1447    0.0999 S.o2      1 <0>         2.7027
      8 O1          2.5008   -5.8239    0.4358 O.2       1 <0>        -0.9143
      9 O2          0.0305   -5.5499    0.5965 O.2       1 <0>        -0.9119
     10 N1          1.1889   -5.1660   -1.5523 N.am      1 <0>        -0.8857
     11 C6          2.3518   -5.1187   -2.3324 C.ar      1 <0>         0.1185
     12 C7          3.5019   -4.5253   -1.8294 C.ar      1 <0>        -0.1189
     13 C8          4.6477   -4.4790   -2.5987 C.ar      1 <0>        -0.1144
     14 C9          4.6498   -5.0252   -3.8739 C.ar      1 <0>         0.1075
     15 C10         3.5010   -5.6179   -4.3772 C.ar      1 <0>        -0.1231
     16 C11         2.3563   -5.6703   -3.6066 C.ar      1 <0>        -0.0876
     17 O3          5.7784   -4.9793   -4.6309 O.3       1 <0>        -0.4956
     18 C12        -0.0191   -5.2288   -2.1466 C.2       1 <0>         0.5277
     19 O4         -0.1090   -5.1175   -3.3511 O.2       1 <0>        -0.4663
     20 C13        -1.2582   -5.4374   -1.3147 C.3       1 <0>        -0.1237
     21 H1         -1.0509   -6.1653   -0.5303 H         1 <0>         0.1694
     22 C14        -1.6763   -4.1093   -0.6806 C.3       1 <0>        -0.1448
     23 C15        -2.3892   -5.9557   -2.2053 C.3       1 <0>        -0.0760
     24 S3         -3.8345   -6.3468   -1.1812 S.3       1 <0>        -0.2419
     25 C16        -5.0683   -6.9397   -2.3715 C.3       1 <0>        -0.1248
     26 H2          4.0490    0.2601    1.2982 H         1 <0>         0.0815
     27 H3          2.5477    1.1270    0.8948 H         1 <0>         0.0943
     28 H4          2.8495    0.6014    2.5683 H         1 <0>         0.0947
     29 H5          0.2791   -0.5694    1.7070 H         1 <0>         0.1503
     30 H6         -0.4448   -2.8652    1.1174 H         1 <0>         0.1600
     31 H7          3.5002   -4.0997   -0.8368 H         1 <0>         0.1192
     32 H8          5.5422   -4.0171   -2.2077 H         1 <0>         0.1428
     33 H9          3.5033   -6.0426   -5.3702 H         1 <0>         0.1407
     34 H10         1.4634   -6.1360   -3.9967 H         1 <0>         0.1507
     35 H11         6.3601   -5.7432   -4.5165 H         1 <0>         0.3948
     36 H12        -0.8191   -3.6605   -0.1786 H         1 <0>         0.0526
     37 H13        -2.0376   -3.4341   -1.4563 H         1 <0>         0.0662
     38 H14        -2.4701   -4.2870    0.0449 H         1 <0>         0.0962
     39 H15        -2.6568   -5.1911   -2.9346 H         1 <0>         0.0930
     40 H16        -2.0588   -6.8546   -2.7259 H         1 <0>         0.0883
     41 H17        -5.9850   -7.2031   -1.8438 H         1 <0>         0.1047
     42 H18        -5.2796   -6.1544   -3.0973 H         1 <0>         0.0776
     43 H19        -4.6816   -7.8179   -2.8886 H         1 <0>         0.0774
@<TRIPOS>BOND
     1    1    2 1
     2    1   26 1
     3    1   27 1
     4    1   28 1
     5    2    6 1
     6    2    3 2
     7    3    4 1
     8    3   29 1
     9    4    5 2
    10    4   30 1
    11    5    6 1
    12    5    7 1
    13    7    8 2
    14    7    9 2
    15    7   10 1
    16   10   11 1
    17   10   18 am
    18   11   16 ar
    19   11   12 ar
    20   12   13 ar
    21   12   31 1
    22   13   14 ar
    23   13   32 1
    24   14   15 ar
    25   14   17 1
    26   15   16 ar
    27   15   33 1
    28   16   34 1
    29   17   35 1
    30   18   19 2
    31   18   20 1
    32   20   21 1
    33   20   22 1
    34   20   23 1
    35   22   36 1
    36   22   37 1
    37   22   38 1
    38   23   24 1
    39   23   39 1
    40   23   40 1
    41   24   25 1
    42   25   41 1
    43   25   42 1
    44   25   43 1
@<TRIPOS>MOLECULE
ZINC13427032
   46    48     0     0     0
SMALL
USER_CHARGES
(4S,5R,6S)-4-hydroxy-6-(4-hydroxyphenyl)-5-(4-methoxybenzoyl)-4-(trifluoromethyl)hexahydropyrimidin-2-one
@<TRIPOS>ATOM
      1 C1          4.5066   -4.1928    5.6732 C.3       1 <0>         0.0226
      2 O1          3.9544   -4.9301    4.5807 O.3       1 <0>        -0.3098
      3 C2          3.3274   -4.2178    3.6113 C.ar      1 <0>         0.1663
      4 C3          2.7682   -4.8749    2.5204 C.ar      1 <0>        -0.1630
      5 C4          2.1333   -4.1596    1.5379 C.ar      1 <0>        -0.0132
      6 C5          2.0489   -2.7651    1.6339 C.ar      1 <0>        -0.2015
      7 C6          2.6191   -2.1078    2.7312 C.ar      1 <0>        -0.0518
      8 C7          3.2464   -2.8330    3.7114 C.ar      1 <0>        -0.2160
      9 C8          1.3701   -1.9940    0.5845 C.2       1 <0>         0.4172
     10 O2          0.8812   -2.5649   -0.3676 O.2       1 <0>        -0.4141
     11 C9          1.2808   -0.4933    0.6904 C.3       1 <0>        -0.1298
     12 H1          1.2691   -0.2273    1.6543 H         1 <0>         0.1176
     13 C10         0.0021   -0.0041    0.0020 C.3       1 <0>         0.2061
     14 H2         -0.0179   -0.3630   -1.0270 H         1 <0>         0.1135
     15 N1         -0.0178    1.4596    0.0101 N.am      1 <0>        -0.7219
     16 C11         1.1183    2.1728    0.0031 C.2       1 <0>         0.7248
     17 O3          1.0456    3.3865   -0.0008 O.2       1 <0>        -0.5687
     18 N2          2.3312    1.6001   -0.0003 N.am      1 <0>        -0.7363
     19 C12         2.4859    0.1445   -0.0089 C.3       1 <0>         0.3248
     20 C13         3.7686   -0.2378    0.7323 C.3       1 <0>         0.4214
     21 F1          3.9115   -1.6295    0.7298 F         1 <0>        -0.1472
     22 F2          4.8680    0.3451    0.0930 F         1 <0>        -0.1695
     23 F3          3.6991    0.2215    2.0520 F         1 <0>        -0.1629
     24 O4          2.5561   -0.3203   -1.3584 O.3       1 <0>        -0.5200
     25 C14        -1.2009   -0.5282    0.7430 C.ar      1 <0>        -0.1297
     26 C15        -1.6182    0.0908    1.9069 C.ar      1 <0>        -0.0843
     27 C16        -2.7241   -0.3843    2.5850 C.ar      1 <0>        -0.1456
     28 C17        -3.4096   -1.4900    2.1031 C.ar      1 <0>         0.1209
     29 C18        -2.9855   -2.1126    0.9382 C.ar      1 <0>        -0.1443
     30 C19        -1.8822   -1.6305    0.2610 C.ar      1 <0>        -0.0702
     31 O5         -4.4945   -1.9626    2.7714 O.3       1 <0>        -0.4986
     32 H3          5.2508   -3.4902    5.2982 H         1 <0>         0.0599
     33 H4          3.7123   -3.6446    6.1799 H         1 <0>         0.0601
     34 H5          4.9777   -4.8811    6.3749 H         1 <0>         0.1054
     35 H6          2.8338   -5.9504    2.4474 H         1 <0>         0.1407
     36 H7          1.6987   -4.6708    0.6916 H         1 <0>         0.1438
     37 H8          2.5610   -1.0321    2.8074 H         1 <0>         0.1377
     38 H9          3.6822   -2.3275    4.5605 H         1 <0>         0.1363
     39 H10        -0.8698    1.9232    0.0166 H         1 <0>         0.4262
     40 H11         3.1219    2.1619    0.0027 H         1 <0>         0.4244
     41 H12         3.2972    0.0438   -1.8618 H         1 <0>         0.3983
     42 H13        -1.0815    0.9488    2.2840 H         1 <0>         0.1293
     43 H14        -3.0520    0.1019    3.4919 H         1 <0>         0.1332
     44 H15        -3.5173   -2.9737    0.5612 H         1 <0>         0.1344
     45 H16        -1.5517   -2.1149   -0.6460 H         1 <0>         0.1385
     46 H17        -4.2852   -2.6301    3.4389 H         1 <0>         0.3946
@<TRIPOS>BOND
     1    1    2 1
     2    1   32 1
     3    1   33 1
     4    1   34 1
     5    2    3 1
     6    3    8 ar
     7    3    4 ar
     8    4    5 ar
     9    4   35 1
    10    5    6 ar
    11    5   36 1
    12    6    7 ar
    13    6    9 1
    14    7    8 ar
    15    7   37 1
    16    8   38 1
    17    9   10 2
    18    9   11 1
    19   11   12 1
    20   11   19 1
    21   11   13 1
    22   13   14 1
    23   13   15 1
    24   13   25 1
    25   15   16 am
    26   15   39 1
    27   16   17 2
    28   16   18 am
    29   18   19 1
    30   18   40 1
    31   19   20 1
    32   19   24 1
    33   20   21 1
    34   20   22 1
    35   20   23 1
    36   24   41 1
    37   25   30 ar
    38   25   26 ar
    39   26   27 ar
    40   26   42 1
    41   27   28 ar
    42   27   43 1
    43   28   29 ar
    44   28   31 1
    45   29   30 ar
    46   29   44 1
    47   30   45 1
    48   31   46 1
@<TRIPOS>MOLECULE
ZINC38994959
   48    51     0     0     0
SMALL
USER_CHARGES

@<TRIPOS>ATOM
      1 C1         -0.0184    1.5028    0.0103 C.3       1 <0>        -0.1173
      2 C2          0.0021   -0.0041    0.0020 C.ar      1 <0>        -0.0805
      3 C3          0.0057   -0.6887   -1.1989 C.ar      1 <0>        -0.1212
      4 C4          0.0245   -2.0709   -1.2065 C.ar      1 <0>        -0.0956
      5 C5          0.0400   -2.7685   -0.0132 C.ar      1 <0>        -0.0828
      6 C6          0.0373   -2.0839    1.1877 C.ar      1 <0>        -0.0966
      7 C7          0.0229   -0.7016    1.1953 C.ar      1 <0>        -0.1218
      8 C8          0.0595   -4.2753   -0.0215 C.3       1 <0>        -0.0317
      9 S1          1.7773   -4.8578   -0.0342 S.3       1 <0>        -0.1700
     10 C9          1.6277   -6.6656   -0.0432 C.3       1 <0>         0.2370
     11 H1          2.6122   -7.1329   -0.0636 H         1 <0>         0.0951
     12 N1          0.8053   -7.1200   -1.1948 N.3       1 <0>        -0.4972
     13 N2          0.2828   -8.4248   -0.7804 N.3       1 <0>        -0.5212
     14 C10         0.2984   -8.4430    0.6964 C.3       1 <0>         0.2580
     15 H2          0.9384   -9.2500    1.0533 H         1 <0>         0.1091
     16 N3          0.8462   -7.1352    1.1315 N.3       1 <0>        -0.3441
     17 N4          1.6998   -7.2856    2.2989 N.3       1 <0>        -0.6943
     18 C11        -1.1226   -8.6248    1.2335 C.3       1 <0>        -0.0511
     19 H3         -1.1400   -8.5137    2.3177 H         1 <0>         0.1578
     20 C12        -1.6818   -9.9758    0.8241 C.2       1 <0>        -0.1380
     21 C13        -2.7555   -9.6660    0.0719 C.2       1 <0>         0.0054
     22 N5         -2.9009   -8.3177   -0.0147 N.2       1 <0>        -0.1581
     23 N6         -2.0448   -7.6691    0.5982 N.2       1 <0>        -0.1245
     24 C14        -3.6525  -10.6571   -0.5718 C.ar      1 <0>        -0.0278
     25 C15        -3.4148  -12.0213   -0.4140 C.ar      1 <0>        -0.0883
     26 C16        -4.2519  -12.9391   -1.0147 C.ar      1 <0>        -0.1097
     27 C17        -5.3262  -12.5069   -1.7734 C.ar      1 <0>        -0.0249
     28 C18        -5.5666  -11.1528   -1.9332 C.ar      1 <0>        -0.1101
     29 C19        -4.7389  -10.2271   -1.3315 C.ar      1 <0>        -0.0737
     30 Cl1        -6.3751  -13.6666   -2.5275 Cl        1 <0>        -0.0627
     31 H4          1.0042    1.8801    0.0026 H         1 <0>         0.0715
     32 H5         -0.5455    1.8639   -0.8728 H         1 <0>         0.0671
     33 H6         -0.5286    1.8543    0.9071 H         1 <0>         0.0668
     34 H7         -0.0064   -0.1436   -2.1312 H         1 <0>         0.1235
     35 H8          0.0266   -2.6057   -2.1448 H         1 <0>         0.1243
     36 H9          0.0491   -2.6289    2.1200 H         1 <0>         0.1220
     37 H10         0.0245   -0.1667    2.1335 H         1 <0>         0.1228
     38 H11        -0.4447   -4.6501    0.8693 H         1 <0>         0.0963
     39 H12        -0.4546   -4.6404   -0.9106 H         1 <0>         0.0979
     40 H13         1.3664   -7.2037   -2.0292 H         1 <0>         0.3677
     41 H14        -0.6511   -8.5692   -1.1339 H         1 <0>         0.3574
     42 H15         2.1349   -6.4088    2.5441 H         1 <0>         0.3686
     43 H16         1.1828   -7.6633    3.0787 H         1 <0>         0.3586
     44 H17        -1.3062  -10.9563    1.0766 H         1 <0>         0.1782
     45 H18        -2.5766  -12.3594    0.1772 H         1 <0>         0.1341
     46 H19        -4.0686  -13.9965   -0.8930 H         1 <0>         0.1396
     47 H20        -6.4057  -10.8205   -2.5264 H         1 <0>         0.1401
     48 H21        -4.9300   -9.1711   -1.4527 H         1 <0>         0.1444
@<TRIPOS>BOND
     1    1    2 1
     2    1   31 1
     3    1   32 1
     4    1   33 1
     5    2    7 ar
     6    2    3 ar
     7    3    4 ar
     8    3   34 1
     9    4    5 ar
    10    4   35 1
    11    5    6 ar
    12    5    8 1
    13    6    7 ar
    14    6   36 1
    15    7   37 1
    16    8    9 1
    17    8   38 1
    18    8   39 1
    19    9   10 1
    20   10   11 1
    21   10   16 1
    22   10   12 1
    23   12   13 1
    24   12   40 1
    25   13   14 1
    26   13   41 1
    27   14   15 1
    28   14   16 1
    29   14   18 1
    30   16   17 1
    31   17   42 1
    32   17   43 1
    33   18   19 1
    34   18   23 1
    35   18   20 1
    36   20   21 2
    37   20   44 1
    38   21   22 1
    39   21   24 1
    40   22   23 2
    41   24   29 ar
    42   24   25 ar
    43   25   26 ar
    44   25   45 1
    45   26   27 ar
    46   26   46 1
    47   27   28 ar
    48   27   30 1
    49   28   29 ar
    50   28   47 1
    51   29   48 1
@<TRIPOS>MOLECULE
ZINC49121986
   31    33     0     0     0
SMALL
USER_CHARGES

@<TRIPOS>ATOM
      1 C1         -0.0093    1.2751   -0.8210 C.ar      1 <0>        -0.0661
      2 C2          0.8404    1.6976    0.1848 C.ar      1 <0>        -0.0730
      3 C3          2.0457    1.0534    0.3889 C.ar      1 <0>        -0.0648
      4 C4          2.4036   -0.0200   -0.4178 C.ar      1 <0>         0.1584
      5 C5          1.5486   -0.4418   -1.4264 C.ar      1 <0>        -0.0599
      6 C6          0.3442    0.2067   -1.6258 C.ar      1 <0>        -0.0715
      7 Br1        -0.8215   -0.3671   -2.9998 Br        1 <0>        -0.0129
      8 N1          3.6257   -0.6751   -0.2135 N.pl3     1 <0>        -0.3442
      9 C7          3.8238   -1.9998    0.0446 C.2       1 <0>         0.3121
     10 N2          5.1233   -2.1760    0.1649 N.2       1 <0>        -0.3104
     11 N3          5.7454   -1.0648    0.0016 N.2       1 <0>        -0.0292
     12 N4          4.9130   -0.1102   -0.2364 N.2       1 <0>        -0.0521
     13 C8          2.7783   -3.0399    0.1670 C.ar      1 <0>         0.0440
     14 C9          1.4557   -2.6751    0.4149 C.ar      1 <0>        -0.2304
     15 C10         0.4777   -3.6524    0.5286 C.ar      1 <0>         0.2674
     16 C11         0.8151   -4.9929    0.3962 C.ar      1 <0>        -0.2493
     17 C12         2.1316   -5.3594    0.1497 C.ar      1 <0>         0.2622
     18 C13         3.1130   -4.3863    0.0288 C.ar      1 <0>        -0.1903
     19 N5          2.4671   -6.7090    0.0175 N.pl3     1 <0>        -0.8707
     20 N6         -0.8477   -3.2877    0.7771 N.pl3     1 <0>        -0.8710
     21 Br2         3.2073    1.6324    1.7641 Br        1 <0>        -0.0031
     22 H1         -0.9529    1.7773   -0.9757 H         1 <0>         0.1561
     23 H2          0.5619    2.5321    0.8112 H         1 <0>         0.1589
     24 H3          1.8242   -1.2755   -2.0552 H         1 <0>         0.1532
     25 H4          1.1928   -1.6327    0.5187 H         1 <0>         0.1199
     26 H5          0.0521   -5.7520    0.4855 H         1 <0>         0.1261
     27 H6          4.1359   -4.6717   -0.1674 H         1 <0>         0.1358
     28 H7          1.7806   -7.3895    0.0980 H         1 <0>         0.4012
     29 H8          3.3866   -6.9655   -0.1547 H         1 <0>         0.4030
     30 H9         -1.0971   -2.3506    0.7975 H         1 <0>         0.3990
     31 H10        -1.5185   -3.9716    0.9292 H         1 <0>         0.4017
@<TRIPOS>BOND
     1    1    6 ar
     2    1    2 ar
     3    1   22 1
     4    2    3 ar
     5    2   23 1
     6    3    4 ar
     7    3   21 1
     8    4    5 ar
     9    4    8 1
    10    5    6 ar
    11    5   24 1
    12    6    7 1
    13    8   12 1
    14    8    9 1
    15    9   10 2
    16    9   13 1
    17   10   11 1
    18   11   12 2
    19   13   18 ar
    20   13   14 ar
    21   14   15 ar
    22   14   25 1
    23   15   16 ar
    24   15   20 1
    25   16   17 ar
    26   16   26 1
    27   17   18 ar
    28   17   19 1
    29   18   27 1
    30   19   28 1
    31   19   29 1
    32   20   30 1
    33   20   31 1
@<TRIPOS>MOLECULE
ZINC58236513
   42    44     0     0     0
SMALL
USER_CHARGES

@<TRIPOS>ATOM
      1 C1          0.1692    1.4932   -0.1212 C.3       1 <0>        -0.1594
      2 C2          0.0119   -0.0248   -0.0122 C.3       1 <0>         0.1869
      3 C3          0.7382   -0.5185    1.2124 C.ar      1 <0>        -0.1110
      4 C4          2.1096   -0.6918    1.1782 C.ar      1 <0>        -0.0929
      5 C5          2.7782   -1.1441    2.2989 C.ar      1 <0>        -0.1152
      6 C6          2.0716   -1.4249    3.4609 C.ar      1 <0>         0.1669
      7 C7          0.6944   -1.2498    3.4921 C.ar      1 <0>        -0.1427
      8 C8          0.0324   -0.7918    2.3698 C.ar      1 <0>        -0.0846
      9 N1          2.7460   -1.8839    4.5981 N.am      1 <0>        -0.6865
     10 C9          3.9983   -1.4578    4.8567 C.2       1 <0>         0.7049
     11 O1          4.5061   -0.6027    4.1572 O.2       1 <0>        -0.5734
     12 N2          4.6876   -1.9797    5.8906 N.am      1 <0>        -0.8606
     13 N3          0.5769   -0.6611   -1.2047 N.am      1 <0>        -0.7191
     14 C10        -0.1724   -0.7930   -2.3172 C.2       1 <0>         0.5529
     15 O2         -1.3199   -0.3829   -2.3312 O.2       1 <0>        -0.5418
     16 C11         0.3709   -1.4049   -3.4640 C.2       1 <0>        -0.1798
     17 C12        -0.3864   -1.5382   -4.5885 C.2       1 <0>         0.0023
     18 C13         0.1564   -2.1497   -5.7343 C.2       1 <0>         0.0104
     19 C14         1.3703   -1.8522   -6.3320 C.2       1 <0>         0.1225
     20 N4          1.5141   -2.6494   -7.3852 N.2       1 <0>        -0.4308
     21 C15         0.4688   -3.4312   -7.4909 C.2       1 <0>         0.1888
     22 N5         -0.4269   -3.1841   -6.4885 N.pl3     1 <0>        -0.4121
     23 C16        -1.5742   -3.9414   -6.4725 C.2       1 <0>         0.0245
     24 C17        -1.7885   -4.8758   -7.3995 C.2       1 <0>        -0.1645
     25 S1         -0.3220   -4.7331   -8.4091 S.3       1 <0>         0.1594
     26 Cl1         2.5033   -0.6497   -5.7993 Cl        1 <0>         0.0278
     27 H1          1.2270    1.7441   -0.2002 H         1 <0>         0.0601
     28 H2         -0.3561    1.8503   -1.0069 H         1 <0>         0.0658
     29 H3         -0.2511    1.9667    0.7661 H         1 <0>         0.0691
     30 H4         -1.0459   -0.2757    0.0668 H         1 <0>         0.0984
     31 H5          2.6585   -0.4736    0.2741 H         1 <0>         0.1242
     32 H6          3.8493   -1.2797    2.2714 H         1 <0>         0.1379
     33 H7          0.1420   -1.4677    4.3942 H         1 <0>         0.1282
     34 H8         -1.0381   -0.6512    2.3947 H         1 <0>         0.1300
     35 H9          2.3122   -2.5086    5.2001 H         1 <0>         0.4083
     36 H10         4.2824   -2.6619    6.4486 H         1 <0>         0.3996
     37 H11         5.5888   -1.6731    6.0767 H         1 <0>         0.4202
     38 H12         1.4903   -0.9875   -1.1937 H         1 <0>         0.4018
     39 H13         1.3879   -1.7683   -3.4517 H         1 <0>         0.1318
     40 H14        -1.4034   -1.1748   -4.6009 H         1 <0>         0.1461
     41 H15        -2.3107   -3.7778   -5.6996 H         1 <0>         0.1814
     42 H16        -2.6319   -5.5406   -7.5140 H         1 <0>         0.2245
@<TRIPOS>BOND
     1    1    2 1
     2    1   27 1
     3    1   28 1
     4    1   29 1
     5    2    3 1
     6    2   13 1
     7    2   30 1
     8    3    8 ar
     9    3    4 ar
    10    4    5 ar
    11    4   31 1
    12    5    6 ar
    13    5   32 1
    14    6    7 ar
    15    6    9 1
    16    7    8 ar
    17    7   33 1
    18    8   34 1
    19    9   10 am
    20    9   35 1
    21   10   11 2
    22   10   12 am
    23   12   36 1
    24   12   37 1
    25   13   14 am
    26   13   38 1
    27   14   15 2
    28   14   16 1
    29   16   17 2
    30   16   39 1
    31   17   18 1
    32   17   40 1
    33   18   22 1
    34   18   19 2
    35   19   20 1
    36   19   26 1
    37   20   21 2
    38   21   25 1
    39   21   22 1
    40   22   23 1
    41   23   24 2
    42   23   41 1
    43   24   25 1
    44   24   42 1
@<TRIPOS>MOLECULE
ZINC63456238
   53    55     0     0     0
SMALL
USER_CHARGES

@<TRIPOS>ATOM
      1 C1         -0.0815    1.4603   -0.0059 C.3       1 <0>        -0.1355
      2 C2         -0.0553   -0.0693   -0.0264 C.3       1 <0>         0.0236
      3 C3          0.6770   -0.5835    1.2147 C.3       1 <0>        -0.1356
      4 C4         -1.4889   -0.6039   -0.0308 C.3       1 <0>        -0.1531
      5 C5          0.6612   -0.5429   -1.2647 C.2       1 <0>         0.0733
      6 N1          1.8971   -0.3086   -1.6294 N.2       1 <0>        -0.5094
      7 C6          2.3852   -0.7969   -2.7522 C.2       1 <0>         0.0615
      8 C7          1.5489   -1.5516   -3.5099 C.2       1 <0>        -0.2106
      9 S1          0.0696   -1.5073   -2.5108 S.3       1 <0>         0.0998
     10 C8          3.8065   -0.5292   -3.1757 C.3       1 <0>         0.1629
     11 O1          4.0617   -1.1769   -4.4237 O.3       1 <0>        -0.2466
     12 N2          5.3768   -0.9870   -4.9128 N.2       1 <0>        -0.4702
     13 C9          5.7360   -1.5271   -6.0435 C.2       1 <0>         0.4844
     14 C10         7.1063   -1.3292   -6.5531 C.2       1 <0>        -0.3133
     15 C11         8.0548   -0.5213   -5.9859 C.2       1 <0>         0.2907
     16 C12         9.2750   -0.6459   -6.8519 C.3       1 <0>         0.1765
     17 C13        10.4897   -1.1327   -6.0425 C.3       1 <0>        -0.1222
     18 C14        11.7065   -0.6442   -6.8586 C.3       1 <0>        -0.1260
     19 C15        11.2160    0.5344   -7.7191 C.3       1 <0>        -0.1273
     20 C16         9.7172    0.7232   -7.3975 C.3       1 <0>        -0.1235
     21 N3          8.9440   -1.5698   -7.9290 N.am      1 <0>        -0.6069
     22 C17         7.6700   -1.9704   -7.7422 C.2       1 <0>         0.5801
     23 O2          7.0732   -2.7502   -8.4612 O.2       1 <0>        -0.5373
     24 C18         9.8345   -1.9911   -9.0133 C.3       1 <0>         0.1037
     25 N4          7.9193    0.2394   -4.8666 N.pl3     1 <0>        -0.7898
     26 N5          4.8314   -2.2866   -6.7663 N.pl3     1 <0>        -0.8634
     27 H1          0.9398    1.8412   -0.0028 H         1 <0>         0.0665
     28 H2         -0.6032    1.8267   -0.8900 H         1 <0>         0.0571
     29 H3         -0.5998    1.8028    0.8898 H         1 <0>         0.0688
     30 H4          0.1587   -0.2410    2.1103 H         1 <0>         0.0688
     31 H5          0.6956   -1.6733    1.2000 H         1 <0>         0.0571
     32 H6          1.6983   -0.2027    1.2178 H         1 <0>         0.0666
     33 H7         -2.0106   -0.2376   -0.9149 H         1 <0>         0.0640
     34 H8         -1.4702   -1.6937   -0.0454 H         1 <0>         0.0639
     35 H9         -2.0071   -0.2614    0.8649 H         1 <0>         0.0770
     36 H10         1.7294   -2.0451   -4.4534 H         1 <0>         0.1958
     37 H11         3.9565    0.5447   -3.2864 H         1 <0>         0.0684
     38 H12         4.4898   -0.9155   -2.4195 H         1 <0>         0.0688
     39 H13        10.4913   -0.6839   -5.0492 H         1 <0>         0.0831
     40 H14        10.4898   -2.2204   -5.9710 H         1 <0>         0.0833
     41 H15        12.4976   -0.3117   -6.1865 H         1 <0>         0.0741
     42 H16        12.0730   -1.4466   -7.4989 H         1 <0>         0.0715
     43 H17        11.7691    1.4383   -7.4641 H         1 <0>         0.0744
     44 H18        11.3446    0.3034   -8.7765 H         1 <0>         0.0726
     45 H19         9.1611    0.9715   -8.3015 H         1 <0>         0.0840
     46 H20         9.5835    1.4968   -6.6414 H         1 <0>         0.0828
     47 H21        10.3825   -2.8824   -8.7079 H         1 <0>         0.0585
     48 H22         9.2443   -2.2143   -9.9021 H         1 <0>         0.0798
     49 H23        10.5391   -1.1901   -9.2367 H         1 <0>         0.0792
     50 H24         7.1057    0.1882   -4.3409 H         1 <0>         0.4298
     51 H25         8.6362    0.8332   -4.5940 H         1 <0>         0.4065
     52 H26         3.9106   -2.3567   -6.4694 H         1 <0>         0.4023
     53 H27         5.1185   -2.7485   -7.5694 H         1 <0>         0.4095
@<TRIPOS>BOND
     1    1    2 1
     2    1   27 1
     3    1   28 1
     4    1   29 1
     5    2    3 1
     6    2    4 1
     7    2    5 1
     8    3   30 1
     9    3   31 1
    10    3   32 1
    11    4   33 1
    12    4   34 1
    13    4   35 1
    14    5    9 1
    15    5    6 2
    16    6    7 1
    17    7    8 2
    18    7   10 1
    19    8    9 1
    20    8   36 1
    21   10   11 1
    22   10   37 1
    23   10   38 1
    24   11   12 1
    25   12   13 2
    26   13   14 1
    27   13   26 1
    28   14   22 1
    29   14   15 2
    30   15   16 1
    31   15   25 1
    32   16   20 1
    33   16   17 1
    34   16   21 1
    35   17   18 1
    36   17   39 1
    37   17   40 1
    38   18   19 1
    39   18   41 1
    40   18   42 1
    41   19   20 1
    42   19   43 1
    43   19   44 1
    44   20   45 1
    45   20   46 1
    46   21   22 am
    47   21   24 1
    48   22   23 2
    49   24   47 1
    50   24   48 1
    51   24   49 1
    52   25   50 1
    53   25   51 1
    54   26   52 1
    55   26   53 1
@<TRIPOS>MOLECULE
ZINC01125039
   42    45     0     0     0
SMALL
USER_CHARGES
1-(4-fluorophenyl)-4-[[1-(3-nitrophenyl)pyrrol-2-yl]methylene]pyrazolidine-3,5-dione
@<TRIPOS>ATOM
      1 C1         -3.6037    2.0382   -4.0033 C.ar      1 <0>        -0.1010
      2 C2         -2.7092    1.6671   -3.0183 C.ar      1 <0>        -0.0697
      3 C3         -1.8614    2.6142   -2.4599 C.ar      1 <0>         0.1219
      4 C4         -1.9089    3.9304   -2.9008 C.ar      1 <0>        -0.0327
      5 C5         -2.8023    4.2941   -3.8889 C.ar      1 <0>        -0.0317
      6 C6         -3.6489    3.3493   -4.4398 C.ar      1 <0>        -0.0509
      7 N1         -2.8536    5.6966   -4.3594 N.pl3     1 <0>         0.0266
      8 O1         -2.1081    6.5291   -3.8750 O.2       1 <0>        -0.1454
      9 O2         -3.6414    6.0182   -5.2310 O.3       1 <0>        -0.1509
     10 N2         -0.9561    2.2420   -1.4582 N.pl3     1 <0>        -0.3707
     11 C7          0.3861    2.4375   -1.4907 C.2       1 <0>         0.0346
     12 C8          0.9324    1.9478   -0.3479 C.2       1 <0>        -0.1908
     13 C9         -0.0972    1.4252    0.4336 C.2       1 <0>        -0.1101
     14 C10        -1.2791    1.6090   -0.2732 C.2       1 <0>        -0.0266
     15 C11        -2.5660    1.2249    0.1418 C.2       1 <0>         0.1446
     16 C12        -3.5817    2.1677    0.2148 C.2       1 <0>        -0.2869
     17 C13        -5.0096    1.9260    0.4826 C.2       1 <0>         0.5740
     18 O3         -5.5365    0.8480    0.6860 O.2       1 <0>        -0.4895
     19 N3         -5.6201    3.1260    0.4628 N.am      1 <0>        -0.5181
     20 N4         -4.6995    4.1384    0.1923 N.am      1 <0>        -0.3552
     21 C14        -3.4651    3.6243    0.0349 C.2       1 <0>         0.5617
     22 O4         -2.4471    4.2452   -0.2089 O.2       1 <0>        -0.4716
     23 C15        -5.0151    5.4986    0.0974 C.ar      1 <0>         0.1466
     24 C16        -4.0013    6.4419   -0.0070 C.ar      1 <0>        -0.1145
     25 C17        -4.3150    7.7833   -0.1064 C.ar      1 <0>        -0.1146
     26 C18        -5.6390    8.1886   -0.0909 C.ar      1 <0>         0.0863
     27 C19        -6.6513    7.2501    0.0193 C.ar      1 <0>        -0.1196
     28 C20        -6.3421    5.9074    0.1132 C.ar      1 <0>        -0.1268
     29 F1         -5.9436    9.5016   -0.1830 F         1 <0>        -0.1332
     30 H1         -4.2656    1.3025   -4.4360 H         1 <0>         0.1598
     31 H2         -2.6715    0.6419   -2.6807 H         1 <0>         0.1498
     32 H3         -1.2476    4.6685   -2.4715 H         1 <0>         0.1647
     33 H4         -4.3465    3.6362   -5.2128 H         1 <0>         0.1614
     34 H5          0.9321    2.9066   -2.2958 H         1 <0>         0.1716
     35 H6          1.9810    1.9606   -0.0898 H         1 <0>         0.1517
     36 H7          0.0052    0.9610    1.4034 H         1 <0>         0.1538
     37 H8         -2.7643    0.1961    0.4039 H         1 <0>         0.1683
     38 H9         -6.5683    3.2663    0.6117 H         1 <0>         0.4397
     39 H10        -2.9684    6.1266   -0.0146 H         1 <0>         0.1640
     40 H11        -3.5270    8.5169   -0.1917 H         1 <0>         0.1492
     41 H12        -7.6832    7.5684    0.0316 H         1 <0>         0.1464
     42 H13        -7.1319    5.1757    0.1984 H         1 <0>         0.1337
@<TRIPOS>BOND
     1    1    6 ar
     2    1    2 ar
     3    1   30 1
     4    2    3 ar
     5    2   31 1
     6    3    4 ar
     7    3   10 1
     8    4    5 ar
     9    4   32 1
    10    5    6 ar
    11    5    7 1
    12    6   33 1
    13    7    8 2
    14    7    9 1
    15   10   14 1
    16   10   11 1
    17   11   12 2
    18   11   34 1
    19   12   13 1
    20   12   35 1
    21   13   14 2
    22   13   36 1
    23   14   15 1
    24   15   16 2
    25   15   37 1
    26   16   21 1
    27   16   17 1
    28   17   18 2
    29   17   19 am
    30   19   20 1
    31   19   38 1
    32   20   21 am
    33   20   23 1
    34   21   22 2
    35   23   28 ar
    36   23   24 ar
    37   24   25 ar
    38   24   39 1
    39   25   26 ar
    40   25   40 1
    41   26   27 ar
    42   26   29 1
    43   27   28 ar
    44   27   41 1
    45   28   42 1
@<TRIPOS>MOLECULE
ZINC09667274
   37    39     0     0     0
SMALL
USER_CHARGES
N-[4-[5-[(3,4-dichlorophenyl)methylsulfanyl]-4-methyl-1,2,4-triazol-3-yl]-1,2,5-oxadiazol-3-yl]acetamide
@<TRIPOS>ATOM
      1 C1         11.0671    6.6121    1.8776 C.3       1 <0>        -0.1653
      2 C2         10.9423    6.5439    0.3774 C.2       1 <0>         0.5066
      3 O1         11.7887    7.0543   -0.3253 O.2       1 <0>        -0.4842
      4 N1          9.8900    5.9158   -0.1834 N.am      1 <0>        -0.6279
      5 C3          9.7745    5.8528   -1.5704 C.2       1 <0>         0.3232
      6 C4          8.6869    5.2042   -2.3140 C.2       1 <0>         0.1594
      7 N2          8.9189    5.3566   -3.5939 N.2       1 <0>        -0.2523
      8 O2         10.1290    6.0803   -3.7310 O.3       1 <0>         0.0500
      9 N3         10.6152    6.3563   -2.4297 N.2       1 <0>        -0.2578
     10 C5          7.5281    4.5062   -1.7208 C.2       1 <0>         0.2206
     11 N4          7.2846    4.3470   -0.4402 N.2       1 <0>        -0.2381
     12 N5          6.1879    3.6964   -0.2802 N.2       1 <0>        -0.2728
     13 C6          5.6685    3.3926   -1.4504 C.2       1 <0>         0.1759
     14 N6          6.5000    3.8995   -2.4061 N.pl3     1 <0>        -0.4377
     15 C7          6.3334    3.8152   -3.8592 C.3       1 <0>         0.0610
     16 S1          4.1734    2.5032   -1.7309 S.3       1 <0>         0.0378
     17 C8          3.6717    2.1848   -0.0212 C.3       1 <0>        -0.0676
     18 C9          2.3777    1.4123   -0.0130 C.ar      1 <0>        -0.0716
     19 C10         1.1707    2.0865    0.0021 C.ar      1 <0>        -0.0803
     20 C11        -0.0167    1.3793    0.0096 C.ar      1 <0>        -0.0967
     21 C12         0.0021   -0.0041    0.0020 C.ar      1 <0>        -0.0218
     22 C13         1.2107   -0.6791   -0.0131 C.ar      1 <0>        -0.0321
     23 C14         2.3983    0.0305   -0.0206 C.ar      1 <0>        -0.0775
     24 Cl1         1.2360   -2.4149   -0.0221 Cl        1 <0>        -0.0392
     25 Cl2        -1.4891   -0.8929    0.0109 Cl        1 <0>        -0.0397
     26 H1         10.2199    6.1023    2.3363 H         1 <0>         0.0868
     27 H2         11.9934    6.1282    2.1875 H         1 <0>         0.1079
     28 H3         11.0784    7.6550    2.1943 H         1 <0>         0.1078
     29 H4          9.2130    5.5075    0.3786 H         1 <0>         0.4382
     30 H5          5.7653    4.6766   -4.2104 H         1 <0>         0.0981
     31 H6          7.3130    3.8065   -4.3373 H         1 <0>         0.1080
     32 H7          5.7981    2.8997   -4.1110 H         1 <0>         0.1040
     33 H8          3.5324    3.1325    0.4991 H         1 <0>         0.1181
     34 H9          4.4447    1.6042    0.4822 H         1 <0>         0.1165
     35 H10         1.1557    3.1664    0.0077 H         1 <0>         0.1453
     36 H11        -0.9592    1.9065    0.0169 H         1 <0>         0.1491
     37 H12         3.3415   -0.4955   -0.0321 H         1 <0>         0.1482
@<TRIPOS>BOND
     1    1    2 1
     2    1   26 1
     3    1   27 1
     4    1   28 1
     5    2    3 2
     6    2    4 am
     7    4    5 1
     8    4   29 1
     9    5    9 2
    10    5    6 1
    11    6    7 2
    12    6   10 1
    13    7    8 1
    14    8    9 1
    15   10   14 1
    16   10   11 2
    17   11   12 1
    18   12   13 2
    19   13   14 1
    20   13   16 1
    21   14   15 1
    22   15   30 1
    23   15   31 1
    24   15   32 1
    25   16   17 1
    26   17   18 1
    27   17   33 1
    28   17   34 1
    29   18   23 ar
    30   18   19 ar
    31   19   20 ar
    32   19   35 1
    33   20   21 ar
    34   20   36 1
    35   21   22 ar
    36   21   25 1
    37   22   23 ar
    38   22   24 1
    39   23   37 1
@<TRIPOS>MOLECULE
ZINC14121662
   46    48     0     0     0
SMALL
USER_CHARGES

@<TRIPOS>ATOM
      1 C1         -0.0187    1.5258    0.0104 C.3       1 <0>        -0.1458
      2 C2          0.0021   -0.0041    0.0020 C.3       1 <0>         0.0868
      3 H1         -1.0203   -0.3820    0.0097 H         1 <0>         0.0702
      4 C3          0.7204   -0.4987   -1.2562 C.3       1 <0>         0.0238
      5 N1          0.8053   -1.9659   -1.2210 N.3       1 <0>        -0.5291
      6 C4          1.5233   -2.4175   -0.0203 C.3       1 <0>         0.0281
      7 C5          0.7969   -1.9037    1.2256 C.3       1 <0>         0.0892
      8 H2          1.3570   -2.1876    2.1166 H         1 <0>         0.1028
      9 O1          0.6954   -0.4786    1.1594 O.3       1 <0>        -0.3768
     10 C6         -0.6050   -2.5134    1.2875 C.3       1 <0>        -0.1737
     11 C7          1.4389   -2.4860   -2.4400 C.3       1 <0>         0.1295
     12 C8          1.2893   -3.9850   -2.4836 C.2       1 <0>         0.0904
     13 C9          0.2758   -4.5759   -3.1630 C.2       1 <0>        -0.2502
     14 S1          0.6258   -6.2986   -2.8509 S.3       1 <0>         0.2286
     15 C10         2.0018   -6.0888   -1.9047 C.2       1 <0>         0.2374
     16 N2          2.1424   -4.7812   -1.8664 N.2       1 <0>        -0.5434
     17 N3          2.7984   -7.0603   -1.3124 N.am      1 <0>        -0.6036
     18 C11         2.4982   -8.3649   -1.4683 C.2       1 <0>         0.5550
     19 O2          1.5301   -8.6914   -2.1273 O.2       1 <0>        -0.4612
     20 C12         3.3454   -9.3982   -0.8384 C.ar      1 <0>        -0.0809
     21 C13         4.4549   -9.0267   -0.0760 C.ar      1 <0>        -0.0693
     22 C14         5.2416   -9.9962    0.5092 C.ar      1 <0>        -0.0564
     23 C15         4.9348  -11.3357    0.3425 C.ar      1 <0>        -0.0077
     24 C16         3.8383  -11.7121   -0.4112 C.ar      1 <0>        -0.0543
     25 C17         3.0372  -10.7516   -0.9978 C.ar      1 <0>         0.0145
     26 Cl1         1.6561  -11.2251   -1.9370 Cl        1 <0>         0.0124
     27 N4          5.7848  -12.3701    0.9737 N.pl3     1 <0>         0.0258
     28 O3          6.7444  -12.0442    1.6329 O.2       1 <0>        -0.1375
     29 O4          5.5195  -13.5408    0.8300 O.3       1 <0>        -0.1385
     30 H3          1.0039    1.9031    0.0027 H         1 <0>         0.0625
     31 H4         -0.5459    1.8868   -0.8726 H         1 <0>         0.0728
     32 H5         -0.5289    1.8773    0.9072 H         1 <0>         0.0670
     33 H6          0.1630   -0.1875   -2.1397 H         1 <0>         0.0872
     34 H7          1.7248   -0.0767   -1.2915 H         1 <0>         0.0447
     35 H8          1.5520   -3.5070   -0.0015 H         1 <0>         0.0916
     36 H9          2.5406   -2.0263   -0.0358 H         1 <0>         0.0422
     37 H10        -0.5270   -3.5996    1.3349 H         1 <0>         0.0604
     38 H11        -1.1216   -2.1472    2.1747 H         1 <0>         0.0582
     39 H12        -1.1650   -2.2278    0.3971 H         1 <0>         0.0711
     40 H13         0.9586   -2.0474   -3.3147 H         1 <0>         0.0951
     41 H14         2.4975   -2.2265   -2.4384 H         1 <0>         0.0526
     42 H15        -0.5235   -4.1280   -3.7349 H         1 <0>         0.1971
     43 H16         3.5708   -6.7998   -0.7867 H         1 <0>         0.4229
     44 H17         4.6964   -7.9822    0.0546 H         1 <0>         0.1612
     45 H18         6.0998   -9.7097    1.0989 H         1 <0>         0.1719
     46 H19         3.6051  -12.7590   -0.5377 H         1 <0>         0.1755
@<TRIPOS>BOND
     1    1    2 1
     2    1   30 1
     3    1   31 1
     4    1   32 1
     5    2    3 1
     6    2    9 1
     7    2    4 1
     8    4    5 1
     9    4   33 1
    10    4   34 1
    11    5    6 1
    12    5   11 1
    13    6    7 1
    14    6   35 1
    15    6   36 1
    16    7    8 1
    17    7    9 1
    18    7   10 1
    19   10   37 1
    20   10   38 1
    21   10   39 1
    22   11   12 1
    23   11   40 1
    24   11   41 1
    25   12   16 1
    26   12   13 2
    27   13   14 1
    28   13   42 1
    29   14   15 1
    30   15   16 2
    31   15   17 1
    32   17   18 am
    33   17   43 1
    34   18   19 2
    35   18   20 1
    36   20   25 ar
    37   20   21 ar
    38   21   22 ar
    39   21   44 1
    40   22   23 ar
    41   22   45 1
    42   23   24 ar
    43   23   27 1
    44   24   25 ar
    45   24   46 1
    46   25   26 1
    47   27   28 2
    48   27   29 1
@<TRIPOS>MOLECULE
ZINC39794012
   43    45     0     0     0
SMALL
USER_CHARGES

@<TRIPOS>ATOM
      1 C1         -1.1250    0.7827   -1.5934 C.3       1 <0>        -0.1232
      2 C2         -0.8225   -0.6790   -1.3858 C.ar      1 <0>        -0.0552
      3 C3         -0.3483   -1.4403   -2.4400 C.ar      1 <0>        -0.1257
      4 C4         -0.0696   -2.7782   -2.2585 C.ar      1 <0>        -0.0720
      5 C5         -0.2668   -3.3660   -1.0041 C.ar      1 <0>        -0.1073
      6 C6         -0.7460   -2.5893    0.0565 C.ar      1 <0>        -0.0839
      7 C7         -1.0150   -1.2515   -0.1403 C.ar      1 <0>        -0.1202
      8 C8          0.0273   -4.7921   -0.8017 C.2       1 <0>         0.0836
      9 C9          0.1716   -5.2831    0.4538 C.2       1 <0>        -0.2192
     10 C10         0.3079   -6.6832    0.9084 C.2       1 <0>         0.5659
     11 O1          0.3032   -7.6136    0.1244 O.2       1 <0>        -0.4692
     12 N1          0.4355   -6.8724    2.2110 N.am      1 <0>        -0.5641
     13 C11         0.4402   -5.8383    3.0764 C.2       1 <0>         0.5370
     14 O2          0.5483   -5.8677    4.2875 O.2       1 <0>        -0.4143
     15 S1          0.2572   -4.4148    2.0141 S.3       1 <0>        -0.0223
     16 C12         0.5746   -8.2369    2.7257 C.3       1 <0>         0.0760
     17 C13         2.0344   -8.6078    2.7779 C.2       1 <0>         0.5041
     18 O3          2.8757   -7.8107    2.4204 O.2       1 <0>        -0.4979
     19 N2          2.4049   -9.8251    3.2219 N.am      1 <0>        -0.6669
     20 C14         3.7622  -10.1363    3.3598 C.ar      1 <0>         0.1504
     21 C15         4.2105  -11.4251    3.1011 C.ar      1 <0>        -0.0917
     22 C16         5.5505  -11.7290    3.2382 C.ar      1 <0>        -0.0943
     23 C17         6.4460  -10.7515    3.6326 C.ar      1 <0>        -0.0690
     24 C18         6.0028   -9.4677    3.8913 C.ar      1 <0>        -0.0277
     25 C19         4.6645   -9.1558    3.7501 C.ar      1 <0>        -0.0616
     26 N3          6.9643   -8.4248    4.3141 N.pl3     1 <0>         0.0314
     27 O4          8.1365   -8.6959    4.4330 O.2       1 <0>        -0.1516
     28 O5          6.5775   -7.3020    4.5405 O.3       1 <0>        -0.1512
     29 H1         -0.2318    1.3717   -1.3854 H         1 <0>         0.0777
     30 H2         -1.4360    0.9463   -2.6252 H         1 <0>         0.0714
     31 H3         -1.9261    1.0872   -0.9199 H         1 <0>         0.0715
     32 H4         -0.1966   -0.9850   -3.4076 H         1 <0>         0.1316
     33 H5          0.2996   -3.3711   -3.0822 H         1 <0>         0.1343
     34 H6         -0.9009   -3.0355    1.0277 H         1 <0>         0.1363
     35 H7         -1.3808   -0.6495    0.6784 H         1 <0>         0.1320
     36 H8          0.1285   -5.4487   -1.6532 H         1 <0>         0.1635
     37 H9          0.1496   -8.2923    3.7279 H         1 <0>         0.1373
     38 H10         0.0473   -8.9286    2.0687 H         1 <0>         0.1391
     39 H11         1.7308  -10.4856    3.4459 H         1 <0>         0.4213
     40 H12         3.5117  -12.1890    2.7935 H         1 <0>         0.1490
     41 H13         5.8997  -12.7311    3.0375 H         1 <0>         0.1554
     42 H14         7.4935  -10.9917    3.7391 H         1 <0>         0.1574
     43 H15         4.3198   -8.1514    3.9473 H         1 <0>         0.1624
@<TRIPOS>BOND
     1    1    2 1
     2    1   29 1
     3    1   30 1
     4    1   31 1
     5    2    7 ar
     6    2    3 ar
     7    3    4 ar
     8    3   32 1
     9    4    5 ar
    10    4   33 1
    11    5    6 ar
    12    5    8 1
    13    6    7 ar
    14    6   34 1
    15    7   35 1
    16    8    9 2
    17    8   36 1
    18    9   15 1
    19    9   10 1
    20   10   11 2
    21   10   12 am
    22   12   13 am
    23   12   16 1
    24   13   14 2
    25   13   15 1
    26   16   17 1
    27   16   37 1
    28   16   38 1
    29   17   18 2
    30   17   19 am
    31   19   20 1
    32   19   39 1
    33   20   25 ar
    34   20   21 ar
    35   21   22 ar
    36   21   40 1
    37   22   23 ar
    38   22   41 1
    39   23   24 ar
    40   23   42 1
    41   24   25 ar
    42   24   26 1
    43   25   43 1
    44   26   27 2
    45   26   28 1
@<TRIPOS>MOLECULE
ZINC16037772
   39    42     0     0     0
SMALL
USER_CHARGES

@<TRIPOS>ATOM
      1 C1         -0.0167    1.3784    0.0096 C.ar      1 <0>        -0.1016
      2 C2          1.1698    2.0889    0.0021 C.ar      1 <0>        -0.0759
      3 C3          2.3774    1.4191   -0.0134 C.ar      1 <0>        -0.0970
      4 C4          2.3995    0.0306   -0.0211 C.ar      1 <0>         0.1626
      5 C5          1.2068   -0.6798   -0.0130 C.ar      1 <0>        -0.1652
      6 C6          0.0021   -0.0041    0.0020 C.ar      1 <0>        -0.0637
      7 C7          1.2264   -2.1867   -0.0217 C.3       1 <0>         0.5042
      8 F1         -0.0864   -2.6701   -0.0112 F         1 <0>        -0.1709
      9 F2          1.8803   -2.6379   -1.1733 F         1 <0>        -0.1722
     10 F3          1.9034   -2.6508    1.1111 F         1 <0>        -0.1696
     11 N1          3.6231   -0.6519   -0.0373 N.am      1 <0>        -0.5384
     12 C8          4.2648   -1.0037   -1.1653 C.2       1 <0>         0.6239
     13 O1          3.9405   -0.6564   -2.2869 O.2       1 <0>        -0.4702
     14 C9          5.3557   -1.8227   -0.8690 C.2       1 <0>        -0.3748
     15 H1          7.6668   -3.7585    0.0657 H         1 <0>         0.4594
     16 C10         5.6172   -1.5388    0.6171 C.3       1 <0>         0.0473
     17 H2          6.4208   -0.8191    0.7740 H         1 <0>         0.1431
     18 C11         4.2886   -1.0227    1.0796 C.2       1 <0>         0.5507
     19 O2          3.8908   -0.9543    2.2229 O.2       1 <0>        -0.4272
     20 O3          5.9706   -2.8552    1.0666 O.3       1 <0>        -0.0887
     21 N2          6.8403   -3.2568   -0.0120 N.pl3     1 <0>        -0.5773
     22 C12         6.2634   -2.7851   -1.1821 C.2       1 <0>         0.3463
     23 C13         6.5833   -3.2524   -2.5463 C.ar      1 <0>        -0.0288
     24 C14         5.9353   -2.6927   -3.6495 C.ar      1 <0>        -0.0665
     25 C15         6.2389   -3.1339   -4.9206 C.ar      1 <0>        -0.0525
     26 C16         7.1828   -4.1290   -5.1040 C.ar      1 <0>        -0.0239
     27 C17         7.8286   -4.6880   -4.0154 C.ar      1 <0>        -0.0578
     28 C18         7.5393   -4.2520   -2.7391 C.ar      1 <0>        -0.0863
     29 N3          7.5026   -4.5981   -6.4710 N.pl3     1 <0>         0.0268
     30 O4          6.9397   -4.1119   -7.4241 O.2       1 <0>        -0.1451
     31 O5          8.3268   -5.4674   -6.6345 O.3       1 <0>        -0.1484
     32 H3         -0.9597    1.9044    0.0260 H         1 <0>         0.1460
     33 H4          1.1520    3.1688    0.0080 H         1 <0>         0.1458
     34 H5          3.3036    1.9745   -0.0200 H         1 <0>         0.1417
     35 H6         -0.9261   -0.5562    0.0079 H         1 <0>         0.1497
     36 H7          5.1979   -1.9164   -3.5077 H         1 <0>         0.1724
     37 H8          5.7386   -2.7019   -5.7747 H         1 <0>         0.1664
     38 H9          8.5640   -5.4646   -4.1657 H         1 <0>         0.1644
     39 H10         8.0476   -4.6857   -1.8907 H         1 <0>         0.1511
@<TRIPOS>BOND
     1    1    6 ar
     2    1    2 ar
     3    1   32 1
     4    2    3 ar
     5    2   33 1
     6    3    4 ar
     7    3   34 1
     8    4    5 ar
     9    4   11 1
    10    5    6 ar
    11    5    7 1
    12    6   35 1
    13    7    8 1
    14    7    9 1
    15    7   10 1
    16   11   18 am
    17   11   12 am
    18   12   13 2
    19   12   14 1
    20   14   16 1
    21   14   22 2
    22   15   21 1
    23   16   17 1
    24   16   18 1
    25   16   20 1
    26   18   19 2
    27   20   21 1
    28   21   22 1
    29   22   23 1
    30   23   28 ar
    31   23   24 ar
    32   24   25 ar
    33   24   36 1
    34   25   26 ar
    35   25   37 1
    36   26   27 ar
    37   26   29 1
    38   27   28 ar
    39   27   38 1
    40   28   39 1
    41   29   30 2
    42   29   31 1
@<TRIPOS>MOLECULE
ZINC08921904
   57    59     0     0     0
SMALL
USER_CHARGES
3-[[4-(2,5-dimethylphenyl)sulfonyloxy-3-methoxy-phenyl]methyleneamino]-5-ethyl-5-methyl-imidazolidine-2,4-dione
@<TRIPOS>ATOM
      1 C1        -10.9144    0.5052   -6.1419 C.3       1 <0>        -0.1541
      2 C2         -9.6281    0.8609   -5.3937 C.3       1 <0>        -0.1192
      3 C3         -9.5361    0.0285   -4.1133 C.3       1 <0>         0.1222
      4 C4         -8.2689    0.3612   -3.3509 C.2       1 <0>         0.5071
      5 O1         -7.9564    1.4352   -2.8828 O.2       1 <0>        -0.4583
      6 N1         -7.5623   -0.7852   -3.3007 N.am      1 <0>        -0.4339
      7 C5         -8.1979   -1.7844   -3.9234 C.2       1 <0>         0.7221
      8 O2         -7.7566   -2.9132   -4.0143 O.2       1 <0>        -0.5096
      9 N2         -9.3818   -1.4009   -4.4344 N.am      1 <0>        -0.7122
     10 N3         -6.3135   -0.9135   -2.6787 N.2       1 <0>        -0.2198
     11 C6         -5.8101    0.0861   -2.0217 C.2       1 <0>         0.1316
     12 C7         -4.5525   -0.0834   -1.2716 C.ar      1 <0>        -0.0033
     13 C8         -3.9010   -1.3194   -1.2667 C.ar      1 <0>        -0.0967
     14 C9         -2.7250   -1.4759   -0.5640 C.ar      1 <0>        -0.0850
     15 C10        -2.1859   -0.4083    0.1392 C.ar      1 <0>         0.0465
     16 C11        -2.8330    0.8256    0.1435 C.ar      1 <0>         0.1602
     17 C12        -4.0092    0.9916   -0.5632 C.ar      1 <0>        -0.1587
     18 O3         -2.3046    1.8681    0.8388 O.3       1 <0>        -0.2985
     19 C13        -3.0734    3.0717    0.8874 C.3       1 <0>         0.0206
     20 O4         -1.0264   -0.5680    0.8302 O.3       1 <0>        -0.6464
     21 S1          0.2141   -0.1220    0.0694 S.o2      1 <0>         2.6756
     22 O5          1.2838   -0.1156    1.0048 O.2       1 <0>        -0.9237
     23 O6         -0.1570    1.0325   -0.6714 O.2       1 <0>        -0.9398
     24 C14         0.5828   -1.3793   -1.1087 C.ar      1 <0>        -0.6873
     25 C15         0.0530   -2.6471   -0.9554 C.ar      1 <0>        -0.0421
     26 C16         0.3383   -3.6320   -1.8822 C.ar      1 <0>        -0.1038
     27 C17         1.1620   -3.3523   -2.9568 C.ar      1 <0>        -0.0603
     28 C18         1.6960   -2.0863   -3.1071 C.ar      1 <0>        -0.1311
     29 C19         1.4063   -1.0997   -2.1829 C.ar      1 <0>         0.0219
     30 C20         1.9889    0.2805   -2.3466 C.3       1 <0>        -0.1794
     31 C21        -0.2435   -5.0124   -1.7180 C.3       1 <0>        -0.1189
     32 C22       -10.7682    0.2564   -3.2353 C.3       1 <0>        -0.1514
     33 H1        -11.7747    0.7184   -5.5074 H         1 <0>         0.0667
     34 H2        -10.9800    1.0983   -7.0541 H         1 <0>         0.0687
     35 H3        -10.9050   -0.5544   -6.3973 H         1 <0>         0.0581
     36 H4         -9.6376    1.9206   -5.1383 H         1 <0>         0.0926
     37 H5         -8.7679    0.6478   -6.0283 H         1 <0>         0.0756
     38 H6        -10.0100   -1.9565   -4.9218 H         1 <0>         0.4462
     39 H7         -6.3126    1.0421   -2.0246 H         1 <0>         0.1644
     40 H8         -4.3186   -2.1522   -1.8129 H         1 <0>         0.1555
     41 H9         -2.2226   -2.4319   -0.5608 H         1 <0>         0.1539
     42 H10        -4.5095    1.9488   -0.5643 H         1 <0>         0.1553
     43 H11        -2.5092    3.8422    1.4128 H         1 <0>         0.1099
     44 H12        -3.2881    3.4068   -0.1274 H         1 <0>         0.0655
     45 H13        -4.0093    2.8840    1.4137 H         1 <0>         0.0635
     46 H14        -0.5869   -2.8668   -0.1136 H         1 <0>         0.1352
     47 H15         1.3886   -4.1231   -3.6785 H         1 <0>         0.1334
     48 H16         2.3397   -1.8679   -3.9463 H         1 <0>         0.1356
     49 H17         2.9493    0.3326   -1.8337 H         1 <0>         0.0883
     50 H18         2.1310    0.4915   -3.4065 H         1 <0>         0.0886
     51 H19         1.3077    1.0156   -1.9179 H         1 <0>         0.1039
     52 H20         0.3903   -5.5968   -1.0509 H         1 <0>         0.0760
     53 H21        -1.2448   -4.9367   -1.2940 H         1 <0>         0.0712
     54 H22        -0.2967   -5.5023   -2.6902 H         1 <0>         0.0719
     55 H23       -10.8127    1.3037   -2.9365 H         1 <0>         0.0876
     56 H24       -11.6667    0.0002   -3.7965 H         1 <0>         0.0888
     57 H25       -10.7028   -0.3723   -2.3473 H         1 <0>         0.0693
@<TRIPOS>BOND
     1    1    2 1
     2    1   33 1
     3    1   34 1
     4    1   35 1
     5    2    3 1
     6    2   36 1
     7    2   37 1
     8    3    9 1
     9    3    4 1
    10    3   32 1
    11    4    5 2
    12    4    6 am
    13    6    7 am
    14    6   10 1
    15    7    8 2
    16    7    9 am
    17    9   38 1
    18   10   11 2
    19   11   12 1
    20   11   39 1
    21   12   17 ar
    22   12   13 ar
    23   13   14 ar
    24   13   40 1
    25   14   15 ar
    26   14   41 1
    27   15   16 ar
    28   15   20 1
    29   16   17 ar
    30   16   18 1
    31   17   42 1
    32   18   19 1
    33   19   43 1
    34   19   44 1
    35   19   45 1
    36   20   21 1
    37   21   22 2
    38   21   23 2
    39   21   24 1
    40   24   29 ar
    41   24   25 ar
    42   25   26 ar
    43   25   46 1
    44   26   27 ar
    45   26   31 1
    46   27   28 ar
    47   27   47 1
    48   28   29 ar
    49   28   48 1
    50   29   30 1
    51   30   49 1
    52   30   50 1
    53   30   51 1
    54   31   52 1
    55   31   53 1
    56   31   54 1
    57   32   55 1
    58   32   56 1
    59   32   57 1
@<TRIPOS>MOLECULE
ZINC14922913
   36    37     0     0     0
SMALL
USER_CHARGES
2-(2,4-dibromo-6-methoxy-phenoxy)-N-[(5-nitro-2-furyl)methyleneamino]acetamide
@<TRIPOS>ATOM
      1 C1          8.8269    7.8465    3.5384 C.3       1 <0>         0.0189
      2 O1          8.2668    7.2971    2.3441 O.3       1 <0>        -0.2958
      3 C2          8.7309    7.7858    1.1629 C.ar      1 <0>         0.1336
      4 C3          9.7037    8.7728    1.1542 C.ar      1 <0>        -0.1583
      5 C4         10.1745    9.2694   -0.0478 C.ar      1 <0>        -0.0482
      6 C5          9.6764    8.7827   -1.2431 C.ar      1 <0>        -0.0883
      7 C6          8.7095    7.7937   -1.2408 C.ar      1 <0>        -0.0680
      8 C7          8.2297    7.2963   -0.0390 C.ar      1 <0>         0.0979
      9 O2          7.2748    6.3275   -0.0350 O.3       1 <0>        -0.2831
     10 C8          5.9127    6.7593   -0.0191 C.3       1 <0>         0.0545
     11 C9          5.0045    5.5567   -0.0169 C.2       1 <0>         0.5335
     12 O3          5.4772    4.4398   -0.0278 O.2       1 <0>        -0.4572
     13 N1          3.6671    5.7223   -0.0027 N.am      1 <0>        -0.5759
     14 N2          2.8227    4.6043   -0.0006 N.2       1 <0>        -0.1793
     15 C10         1.5260    4.7649    0.0131 C.2       1 <0>         0.1067
     16 C11         0.6723    3.6345    0.0152 C.2       1 <0>         0.0911
     17 C12        -0.7127    3.6573    0.0285 C.2       1 <0>        -0.1606
     18 C13        -1.1332    2.3213    0.0195 C.2       1 <0>        -0.0921
     19 C14        -0.0190    1.5499    0.0106 C.2       1 <0>         0.0343
     20 O4          1.0627    2.3432    0.0045 O.3       1 <0>        -0.1269
     21 N3          0.0021   -0.0041    0.0020 N.pl3     1 <0>         0.0423
     22 O5         -1.0443   -0.6274    0.0082 O.2       1 <0>        -0.1059
     23 O6          1.0650   -0.5986   -0.0109 O.3       1 <0>        -0.1095
     24 Br1         8.0366    7.1254   -2.8768 Br        1 <0>        -0.0063
     25 Br2        11.5024   10.6157   -0.0573 Br        1 <0>        -0.0205
     26 H1          8.6352    8.9191    3.5696 H         1 <0>         0.0613
     27 H2          8.3705    7.3704    4.4062 H         1 <0>         0.1096
     28 H3          9.9023    7.6692    3.5504 H         1 <0>         0.0630
     29 H4         10.0944    9.1541    2.0860 H         1 <0>         0.1530
     30 H5         10.0463    9.1727   -2.1798 H         1 <0>         0.1532
     31 H6          5.7129    7.3639   -0.9037 H         1 <0>         0.0940
     32 H7          5.7305    7.3539    0.8761 H         1 <0>         0.0967
     33 H8          3.2890    6.6156    0.0061 H         1 <0>         0.3942
     34 H9          1.1051    5.7595    0.0229 H         1 <0>         0.1667
     35 H10        -1.3442    4.5333    0.0392 H         1 <0>         0.1858
     36 H11        -2.1549    1.9712    0.0213 H         1 <0>         0.1855
@<TRIPOS>BOND
     1    1    2 1
     2    1   26 1
     3    1   27 1
     4    1   28 1
     5    2    3 1
     6    3    8 ar
     7    3    4 ar
     8    4    5 ar
     9    4   29 1
    10    5    6 ar
    11    5   25 1
    12    6    7 ar
    13    6   30 1
    14    7    8 ar
    15    7   24 1
    16    8    9 1
    17    9   10 1
    18   10   11 1
    19   10   31 1
    20   10   32 1
    21   11   12 2
    22   11   13 am
    23   13   14 1
    24   13   33 1
    25   14   15 2
    26   15   16 1
    27   15   34 1
    28   16   20 1
    29   16   17 2
    30   17   18 1
    31   17   35 1
    32   18   19 2
    33   18   36 1
    34   19   20 1
    35   19   21 1
    36   21   22 2
    37   21   23 1
@<TRIPOS>MOLECULE
ZINC24799443
   58    60     0     0     0
SMALL
USER_CHARGES
(E)-N-[(1R)-2-[4-(4-chloro-2-nitro-phenyl)piperazin-1-yl]-1-methyl-2-oxo-ethyl]-3-(4-methoxyphenyl)prop-2-enamide
@<TRIPOS>ATOM
      1 C1          5.9490   -2.2984   -2.2555 C.3       1 <0>        -0.1607
      2 C2          4.8630   -2.9931   -1.4316 C.3       1 <0>         0.1290
      3 H1          3.9086   -3.0192   -1.9780 H         1 <0>         0.1089
      4 C3          4.6827   -2.2665   -0.1237 C.2       1 <0>         0.5192
      5 O1          5.2696   -2.6468    0.8672 O.2       1 <0>        -0.5332
      6 N1          3.8694   -1.1940   -0.0552 N.am      1 <0>        -0.6095
      7 C4          3.5904   -0.5392    1.2319 C.3       1 <0>         0.1173
      8 C5          2.0722   -0.4049    1.3908 C.3       1 <0>         0.0468
      9 N2          1.5184    0.2776    0.2137 N.pl3     1 <0>        -0.4932
     10 C6          1.7326   -0.5091   -1.0082 C.3       1 <0>         0.0461
     11 C7          3.2369   -0.6476   -1.2654 C.3       1 <0>         0.1058
     12 C8          0.1626    0.5648    0.3932 C.ar      1 <0>         0.1590
     13 C9         -0.7438   -0.4649    0.6118 C.ar      1 <0>        -0.1378
     14 C10        -2.0838   -0.1786    0.7831 C.ar      1 <0>        -0.0488
     15 C11        -2.5224    1.1336    0.7476 C.ar      1 <0>        -0.0406
     16 C12        -1.6218    2.1611    0.5300 C.ar      1 <0>        -0.0444
     17 C13        -0.2811    1.8802    0.3528 C.ar      1 <0>        -0.0132
     18 N3          0.6818    2.9799    0.1205 N.pl3     1 <0>         0.0263
     19 O2          0.2920    4.1333    0.0852 O.2       1 <0>        -0.1868
     20 O3          1.8640    2.7316   -0.0353 O.3       1 <0>        -0.0904
     21 Cl1        -4.2068    1.4904    0.9700 Cl        1 <0>        -0.0319
     22 N4          5.2600   -4.3788   -1.1698 N.am      1 <0>        -0.7270
     23 C14         5.0008   -5.3376   -2.0808 C.2       1 <0>         0.5561
     24 O4          4.4370   -5.0523   -3.1211 O.2       1 <0>        -0.5514
     25 C15         5.3972   -6.7210   -1.8194 C.2       1 <0>        -0.2278
     26 C16         5.1377   -7.6813   -2.7317 C.2       1 <0>        -0.0056
     27 C17         5.5360   -9.0717   -2.4690 C.ar      1 <0>        -0.1201
     28 C18         6.1897   -9.4014   -1.2760 C.ar      1 <0>        -0.0567
     29 C19         6.5550  -10.7061   -1.0320 C.ar      1 <0>        -0.2126
     30 C20         6.2866  -11.6932   -1.9734 C.ar      1 <0>         0.1429
     31 C21         5.6431  -11.3699   -3.1625 C.ar      1 <0>        -0.1555
     32 C22         5.2681  -10.0694   -3.4134 C.ar      1 <0>        -0.0513
     33 O5          6.6544  -12.9771   -1.7307 O.3       1 <0>        -0.3140
     34 C23         7.3116  -13.2401   -0.4894 C.3       1 <0>         0.0214
     35 H2          6.0806   -2.8288   -3.2102 H         1 <0>         0.0776
     36 H3          6.8963   -2.3090   -1.6966 H         1 <0>         0.0687
     37 H4          5.6508   -1.2580   -2.4521 H         1 <0>         0.0729
     38 H5          4.0008   -1.1492    2.0501 H         1 <0>         0.1033
     39 H6          4.0586    0.4561    1.2461 H         1 <0>         0.0888
     40 H7          1.6231   -1.4050    1.4814 H         1 <0>         0.0497
     41 H8          1.8485    0.1807    2.2947 H         1 <0>         0.0938
     42 H9          1.2871   -1.5072   -0.8844 H         1 <0>         0.0510
     43 H10         1.2591    0.0007   -1.8602 H         1 <0>         0.0948
     44 H11         3.6709    0.3372   -1.4932 H         1 <0>         0.0956
     45 H12         3.4119   -1.3297   -2.1105 H         1 <0>         0.0992
     46 H13        -0.4015   -1.4887    0.6433 H         1 <0>         0.1528
     47 H14        -2.7896   -0.9791    0.9487 H         1 <0>         0.1548
     48 H15        -1.9675    3.1838    0.4984 H         1 <0>         0.1673
     49 H16         5.7696   -4.6367   -0.2297 H         1 <0>         0.4334
     50 H17         5.9068   -6.9788   -0.8793 H         1 <0>         0.1311
     51 H18         4.6281   -7.4235   -3.6718 H         1 <0>         0.1393
     52 H19         6.4030   -8.6344   -0.5462 H         1 <0>         0.1312
     53 H20         7.0548  -10.9624   -0.1096 H         1 <0>         0.1327
     54 H21         5.4369  -12.1405   -3.8906 H         1 <0>         0.1361
     55 H22         4.7683   -9.8192   -4.3376 H         1 <0>         0.1368
     56 H23         7.5526  -14.3113   -0.4219 H         1 <0>         0.1047
     57 H24         6.6490  -12.9601    0.3428 H         1 <0>         0.0588
     58 H25         8.2391  -12.6514   -0.4337 H         1 <0>         0.0590
@<TRIPOS>BOND
     1    1    2 1
     2    1   35 1
     3    1   36 1
     4    1   37 1
     5    2    3 1
     6    2    4 1
     7    2   22 1
     8    4    5 2
     9    4    6 am
    10    6   11 1
    11    6    7 1
    12    7    8 1
    13    7   38 1
    14    7   39 1
    15    8    9 1
    16    8   40 1
    17    8   41 1
    18    9   10 1
    19    9   12 1
    20   10   11 1
    21   10   42 1
    22   10   43 1
    23   11   44 1
    24   11   45 1
    25   12   17 ar
    26   12   13 ar
    27   13   14 ar
    28   13   46 1
    29   14   15 ar
    30   14   47 1
    31   15   16 ar
    32   15   21 1
    33   16   17 ar
    34   16   48 1
    35   17   18 1
    36   18   19 2
    37   18   20 1
    38   22   23 am
    39   22   49 1
    40   23   24 2
    41   23   25 1
    42   25   26 2
    43   25   50 1
    44   26   27 1
    45   26   51 1
    46   27   32 ar
    47   27   28 ar
    48   28   29 ar
    49   28   52 1
    50   29   30 ar
    51   29   53 1
    52   30   31 ar
    53   30   33 1
    54   31   32 ar
    55   31   54 1
    56   32   55 1
    57   33   34 1
    58   34   56 1
    59   34   57 1
    60   34   58 1
@<TRIPOS>MOLECULE
ZINC39441507
   56    60     0     0     0
SMALL
USER_CHARGES

@<TRIPOS>ATOM
      1 C1         -0.6216    2.2476    0.5639 C.3       1 <0>        -0.1521
      2 C2         -0.8908    0.7420    0.6014 C.3       1 <0>        -0.1265
      3 H1         -0.4037    0.2645   -0.2487 H         1 <0>         0.1419
      4 C3         -2.3759    0.4954    0.5330 C.2       1 <0>         0.5487
      5 O1         -3.0128    0.3416    1.5537 O.2       1 <0>        -0.4063
      6 N1         -2.9965    0.4458   -0.6624 N.am      1 <0>        -0.6223
      7 C4         -3.7028   -0.6173   -0.9952 C.2       1 <0>         0.3616
      8 C5         -3.7183   -1.7929   -0.1164 C.2       1 <0>        -0.1506
      9 C6         -4.4378   -2.8821   -0.4494 C.2       1 <0>         0.0273
     10 C7         -5.2115   -2.8998   -1.6946 C.2       1 <0>         0.1573
     11 N2         -5.9908   -3.7880   -2.2811 N.2       1 <0>        -0.4403
     12 C8         -6.4569   -3.2771   -3.4330 C.2       1 <0>         0.5522
     13 O2         -7.2867   -3.9343   -4.2779 O.3       1 <0>        -0.4411
     14 N3         -6.0073   -2.0606   -3.6363 N.2       1 <0>        -0.5888
     15 C9         -5.2037   -1.7238   -2.5862 C.2       1 <0>         0.2513
     16 C10        -4.4842   -0.6226   -2.2507 C.2       1 <0>        -0.2575
     17 S1         -0.2331    0.0483    2.1431 S.3       1 <0>         0.0783
     18 C11         1.5081    0.2814    2.0067 C.2       1 <0>         0.1884
     19 N4          2.1344    0.8414    1.0004 N.2       1 <0>        -0.2941
     20 N5          3.5064    0.8317    1.2835 N.2       1 <0>        -0.3620
     21 C12         3.6762    0.2666    2.4533 C.2       1 <0>         0.5088
     22 N6          2.4447   -0.0850    2.9357 N.pl3     1 <0>        -0.4603
     23 C13         2.1877   -0.7123    4.1636 C.ar      1 <0>         0.1014
     24 C14         2.3315   -0.0051    5.3493 C.ar      1 <0>        -0.1021
     25 C15         2.0773   -0.6254    6.5570 C.ar      1 <0>        -0.1047
     26 C16         1.6799   -1.9495    6.5856 C.ar      1 <0>        -0.0985
     27 C17         1.5358   -2.6565    5.4060 C.ar      1 <0>        -0.1026
     28 C18         1.7835   -2.0399    4.1950 C.ar      1 <0>        -0.1041
     29 N7          4.8921    0.0639    3.0934 N.pl3     1 <0>        -0.5878
     30 C19         4.9633   -0.7188    4.3348 C.3       1 <0>         0.1021
     31 C20         6.0038   -1.8292    4.1586 C.3       1 <0>        -0.1342
     32 C21         7.3359   -1.2109    3.7281 C.3       1 <0>        -0.1208
     33 C22         7.1590   -0.4974    2.3859 C.3       1 <0>        -0.1372
     34 C23         6.1325    0.6230    2.5387 C.3       1 <0>         0.1369
     35 H2          0.4526    2.4260    0.6134 H         1 <0>         0.0998
     36 H3         -1.0168    2.6645   -0.3624 H         1 <0>         0.0786
     37 H4         -1.1087    2.7251    1.4141 H         1 <0>         0.0802
     38 H5         -2.9236    1.1918   -1.2780 H         1 <0>         0.4434
     39 H6         -3.1497   -1.7848    0.8018 H         1 <0>         0.1685
     40 H7         -4.4443   -3.7438    0.2017 H         1 <0>         0.1744
     41 H8         -4.4793    0.2418   -2.8981 H         1 <0>         0.1650
     42 H9          2.6422    1.0290    5.3276 H         1 <0>         0.1298
     43 H10         2.1894   -0.0758    7.4799 H         1 <0>         0.1372
     44 H11         1.4820   -2.4325    7.5310 H         1 <0>         0.1353
     45 H12         1.2256   -3.6907    5.4313 H         1 <0>         0.1377
     46 H13         1.6669   -2.5914    3.2738 H         1 <0>         0.1316
     47 H14         5.2576   -0.0698    5.1596 H         1 <0>         0.0701
     48 H15         3.9892   -1.1607    4.5445 H         1 <0>         0.0945
     49 H16         6.1360   -2.3571    5.1030 H         1 <0>         0.0777
     50 H17         5.6637   -2.5286    3.3949 H         1 <0>         0.0660
     51 H18         7.6632   -0.4933    4.4805 H         1 <0>         0.0660
     52 H19         8.0847   -1.9965    3.6259 H         1 <0>         0.0684
     53 H20         8.1135   -0.0773    2.0686 H         1 <0>         0.0810
     54 H21         6.8080   -1.2093    1.6389 H         1 <0>         0.0681
     55 H22         5.9295    1.0662    1.5638 H         1 <0>         0.0954
     56 H23         6.5242    1.3839    3.2138 H         1 <0>         0.0689
@<TRIPOS>BOND
     1    1    2 1
     2    1   35 1
     3    1   36 1
     4    1   37 1
     5    2    3 1
     6    2    4 1
     7    2   17 1
     8    4    5 2
     9    4    6 am
    10    6    7 2
    11    6   38 1
    12    7   16 1
    13    7    8 1
    14    8    9 2
    15    8   39 1
    16    9   10 1
    17    9   40 1
    18   10   15 1
    19   10   11 2
    20   11   12 1
    21   12   13 1
    22   12   14 2
    23   14   15 1
    24   15   16 2
    25   16   41 1
    26   17   18 1
    27   18   22 1
    28   18   19 2
    29   19   20 1
    30   20   21 2
    31   21   22 1
    32   21   29 1
    33   22   23 1
    34   23   28 ar
    35   23   24 ar
    36   24   25 ar
    37   24   42 1
    38   25   26 ar
    39   25   43 1
    40   26   27 ar
    41   26   44 1
    42   27   28 ar
    43   27   45 1
    44   28   46 1
    45   29   34 1
    46   29   30 1
    47   30   31 1
    48   30   47 1
    49   30   48 1
    50   31   32 1
    51   31   49 1
    52   31   50 1
    53   32   33 1
    54   32   51 1
    55   32   52 1
    56   33   34 1
    57   33   53 1
    58   33   54 1
    59   34   55 1
    60   34   56 1
@<TRIPOS>MOLECULE
ZINC23618250
   49    52     0     0     0
SMALL
USER_CHARGES

@<TRIPOS>ATOM
      1 C1          9.2605    6.2566   -0.4811 C.2       1 <0>        -0.1589
      2 C2          8.8330    6.6389    0.7766 C.2       1 <0>        -0.1413
      3 C3          9.5023    6.1852    1.8645 C.2       1 <0>        -0.1462
      4 S1         10.7806    5.1850    1.1210 S.3       1 <0>         0.0498
      5 C4         10.3365    5.4393   -0.5894 C.2       1 <0>        -0.1712
      6 C5          9.2367    6.4553    3.3231 C.3       1 <0>         0.0587
      7 C6          8.2924    5.4125    3.8632 C.2       1 <0>         0.2436
      8 N1          6.9622    5.5013    3.8655 N.2       1 <0>        -0.5333
      9 C7          6.4461    4.4194    4.4095 C.2       1 <0>         0.2511
     10 N2          7.4662    3.6101    4.7684 N.pl3     1 <0>        -0.4500
     11 H1          7.3972    2.7408    5.1932 H         1 <0>         0.4484
     12 N3          8.6465    4.2751    4.3987 N.2       1 <0>        -0.2843
     13 S2          4.7300    4.0865    4.6306 S.3       1 <0>         0.1718
     14 C8          3.9370    5.5702    4.1070 C.ar      1 <0>        -0.0420
     15 C9          3.3203    5.6287    2.8631 C.ar      1 <0>        -0.0684
     16 C10         2.6999    6.7929    2.4559 C.ar      1 <0>         0.0202
     17 C11         2.6921    7.9006    3.2845 C.ar      1 <0>        -0.6538
     18 C12         3.3048    7.8460    4.5229 C.ar      1 <0>         0.0388
     19 C13         3.9220    6.6826    4.9391 C.ar      1 <0>        -0.0154
     20 N4          4.5719    6.6230    6.2678 N.pl3     1 <0>         0.0300
     21 O1          4.5583    7.5915    6.9913 O.2       1 <0>        -0.1455
     22 O2          5.1162    5.6059    6.6294 O.3       1 <0>        -0.1305
     23 S3          1.9001    9.3847    2.7603 S.o2      1 <0>         2.6889
     24 O3          2.5037   10.4458    3.4876 O.2       1 <0>        -0.9359
     25 O4          1.8755    9.3521    1.3399 O.2       1 <0>        -0.9369
     26 N5          0.3244    9.3027    3.2630 N.pl3     1 <0>        -0.9908
     27 C14        -0.7057    8.7050    2.4026 C.3       1 <0>         0.1157
     28 C15        -1.4389    7.6173    3.1939 C.3       1 <0>        -0.1376
     29 C16        -1.9767    8.2146    4.4962 C.3       1 <0>        -0.1195
     30 C17        -0.8104    8.7261    5.3448 C.3       1 <0>        -0.1381
     31 C18        -0.0690    9.8208    4.5804 C.3       1 <0>         0.1150
     32 H2          8.7423    6.6003   -1.3641 H         1 <0>         0.1346
     33 H3          7.9787    7.2896    0.8907 H         1 <0>         0.1333
     34 H4         10.8036    5.0441   -1.4793 H         1 <0>         0.1865
     35 H5         10.1750    6.4174    3.8764 H         1 <0>         0.1086
     36 H6          8.7891    7.4430    3.4340 H         1 <0>         0.1149
     37 H7          3.3266    4.7644    2.2154 H         1 <0>         0.1692
     38 H8          2.2204    6.8390    1.4893 H         1 <0>         0.1681
     39 H9          3.2972    8.7128    5.1671 H         1 <0>         0.1742
     40 H10        -1.4148    9.4731    2.0940 H         1 <0>         0.0833
     41 H11        -0.2364    8.2636    1.5233 H         1 <0>         0.0922
     42 H12        -2.2681    7.2322    2.6005 H         1 <0>         0.0802
     43 H13        -0.7478    6.8063    3.4237 H         1 <0>         0.0650
     44 H14        -2.6486    9.0415    4.2663 H         1 <0>         0.0687
     45 H15        -2.5201    7.4487    5.0498 H         1 <0>         0.0672
     46 H16        -1.1923    9.1300    6.2824 H         1 <0>         0.0814
     47 H17        -0.1253    7.9046    5.5544 H         1 <0>         0.0637
     48 H18         0.8203   10.1154    5.1376 H         1 <0>         0.0931
     49 H19        -0.7251   10.6819    4.4533 H         1 <0>         0.0837
@<TRIPOS>BOND
     1    1    5 2
     2    1    2 1
     3    1   32 1
     4    2    3 2
     5    2   33 1
     6    3    4 1
     7    3    6 1
     8    4    5 1
     9    5   34 1
    10    6    7 1
    11    6   35 1
    12    6   36 1
    13    7   12 2
    14    7    8 1
    15    8    9 2
    16    9   10 1
    17    9   13 1
    18   10   11 1
    19   10   12 1
    20   13   14 1
    21   14   19 ar
    22   14   15 ar
    23   15   16 ar
    24   15   37 1
    25   16   17 ar
    26   16   38 1
    27   17   18 ar
    28   17   23 1
    29   18   19 ar
    30   18   39 1
    31   19   20 1
    32   20   21 2
    33   20   22 1
    34   23   24 2
    35   23   25 2
    36   23   26 1
    37   26   31 1
    38   26   27 1
    39   27   28 1
    40   27   40 1
    41   27   41 1
    42   28   29 1
    43   28   42 1
    44   28   43 1
    45   29   30 1
    46   29   44 1
    47   29   45 1
    48   30   31 1
    49   30   46 1
    50   30   47 1
    51   31   48 1
    52   31   49 1
@<TRIPOS>MOLECULE
ZINC00783529
   59    62     0     0     0
SMALL
USER_CHARGES
hydroxy-[2-(2-methoxyphenyl)ethyl]BLAHthione
@<TRIPOS>ATOM
      1 C1         -0.5529    5.8756    0.6266 C.3       1 <0>         0.0266
      2 O1         -0.9959    4.7535   -0.1394 O.3       1 <0>        -0.3178
      3 C2         -2.1179    4.1179    0.2896 C.ar      1 <0>         0.1269
      4 C3         -2.7814    4.5677    1.4222 C.ar      1 <0>        -0.2090
      5 C4         -3.9183    3.9165    1.8594 C.ar      1 <0>        -0.0815
      6 C5         -4.3981    2.8200    1.1666 C.ar      1 <0>        -0.1539
      7 C6         -3.7418    2.3732    0.0349 C.ar      1 <0>        -0.0653
      8 C7         -2.6042    3.0211   -0.4065 C.ar      1 <0>        -0.1110
      9 C8         -1.8887    2.5328   -1.6397 C.3       1 <0>        -0.0772
     10 C9         -0.7527    1.5927   -1.2315 C.3       1 <0>         0.1027
     11 N1         -0.1363    1.0218   -2.4316 N.pl3     1 <0>        -0.5666
     12 C10        -0.6080   -0.1316   -2.9312 C.2       1 <0>         0.5862
     13 S1         -1.9304   -0.8873   -2.1494 S.2       1 <0>        -0.6672
     14 N2         -0.0828   -0.7152   -4.0192 N.pl3     1 <0>        -0.6572
     15 C11         1.0456   -0.1189   -4.7353 C.3       1 <0>         0.1596
     16 C12         0.5258    0.8056   -5.8370 C.3       1 <0>        -0.1360
     17 C13        -0.3166   -0.0027   -6.8261 C.3       1 <0>        -0.1218
     18 C14         0.5435   -1.1055   -7.4464 C.3       1 <0>        -0.1224
     19 C15         1.0611   -2.0306   -6.3431 C.3       1 <0>        -0.1226
     20 C16         1.9042   -1.2226   -5.3544 C.3       1 <0>        -0.1228
     21 C17         1.8934    0.6922   -3.7471 C.3       1 <0>        -0.0838
     22 H1          2.6967    1.2028   -4.2782 H         1 <0>         0.1119
     23 C18         0.9791    1.7209   -3.0694 C.3       1 <0>         0.3373
     24 C19         1.7688    2.4953   -2.0121 C.3       1 <0>        -0.1492
     25 C20         2.3511    1.5358   -0.9727 C.3       1 <0>        -0.1227
     26 C21         3.2788    0.5380   -1.6698 C.3       1 <0>        -0.1204
     27 C22         2.4810   -0.2596   -2.7023 C.3       1 <0>        -0.1194
     28 O2          0.4702    2.6265   -4.0507 O.3       1 <0>        -0.5448
     29 H2         -1.3332    6.6365    0.6411 H         1 <0>         0.0555
     30 H3         -0.3372    5.5569    1.6464 H         1 <0>         0.0555
     31 H4          0.3497    6.2892    0.1766 H         1 <0>         0.0991
     32 H5         -2.4069    5.4238    1.9637 H         1 <0>         0.1264
     33 H6         -4.4328    4.2637    2.7432 H         1 <0>         0.1237
     34 H7         -5.2868    2.3118    1.5105 H         1 <0>         0.1246
     35 H8         -4.1185    1.5166   -0.5044 H         1 <0>         0.1352
     36 H9         -1.4783    3.3842   -2.1827 H         1 <0>         0.0657
     37 H10        -2.5908    1.9980   -2.2793 H         1 <0>         0.0852
     38 H11        -0.0041    2.1502   -0.6687 H         1 <0>         0.0930
     39 H12        -1.1507    0.7900   -0.6106 H         1 <0>         0.1174
     40 H13        -0.4589   -1.5506   -4.3379 H         1 <0>         0.4273
     41 H14        -0.0875    1.5900   -5.3936 H         1 <0>         0.1075
     42 H15         1.3688    1.2560   -6.3610 H         1 <0>         0.0728
     43 H16        -0.6854    0.6561   -7.6123 H         1 <0>         0.0653
     44 H17        -1.1607   -0.4515   -6.3025 H         1 <0>         0.0608
     45 H18         1.3877   -0.6566   -7.9699 H         1 <0>         0.0642
     46 H19        -0.0565   -1.6810   -8.1513 H         1 <0>         0.0644
     47 H20         1.6734   -2.8164   -6.7854 H         1 <0>         0.0718
     48 H21         0.2170   -2.4790   -5.8193 H         1 <0>         0.0608
     49 H22         2.7490   -0.7751   -5.8781 H         1 <0>         0.0839
     50 H23         2.2721   -1.8812   -4.5676 H         1 <0>         0.0756
     51 H24         1.1073    3.2070   -1.5180 H         1 <0>         0.0862
     52 H25         2.5796    3.0342   -2.5024 H         1 <0>         0.0890
     53 H26         1.5413    0.9972   -0.4806 H         1 <0>         0.0702
     54 H27         2.9158    2.1007   -0.2310 H         1 <0>         0.0740
     55 H28         3.7011   -0.1433   -0.9311 H         1 <0>         0.0711
     56 H29         4.0834    1.0774   -2.1695 H         1 <0>         0.0678
     57 H30         1.6726   -0.7935   -2.2026 H         1 <0>         0.0681
     58 H31         3.1393   -0.9760   -3.1938 H         1 <0>         0.0808
     59 H32        -0.1239    3.3005   -3.6933 H         1 <0>         0.3786
@<TRIPOS>BOND
     1    1    2 1
     2    1   29 1
     3    1   30 1
     4    1   31 1
     5    2    3 1
     6    3    8 ar
     7    3    4 ar
     8    4    5 ar
     9    4   32 1
    10    5    6 ar
    11    5   33 1
    12    6    7 ar
    13    6   34 1
    14    7    8 ar
    15    7   35 1
    16    8    9 1
    17    9   10 1
    18    9   36 1
    19    9   37 1
    20   10   11 1
    21   10   38 1
    22   10   39 1
    23   11   23 1
    24   11   12 1
    25   12   13 2
    26   12   14 1
    27   14   15 1
    28   14   40 1
    29   15   20 1
    30   15   16 1
    31   15   21 1
    32   16   17 1
    33   16   41 1
    34   16   42 1
    35   17   18 1
    36   17   43 1
    37   17   44 1
    38   18   19 1
    39   18   45 1
    40   18   46 1
    41   19   20 1
    42   19   47 1
    43   19   48 1
    44   20   49 1
    45   20   50 1
    46   21   22 1
    47   21   27 1
    48   21   23 1
    49   23   24 1
    50   23   28 1
    51   24   25 1
    52   24   51 1
    53   24   52 1
    54   25   26 1
    55   25   53 1
    56   25   54 1
    57   26   27 1
    58   26   55 1
    59   26   56 1
    60   27   57 1
    61   27   58 1
    62   28   59 1
@<TRIPOS>MOLECULE
ZINC06659344
   42    44     0     0     0
SMALL
USER_CHARGES
2,4-dichloro-6-(10,10-diethyl-9-oxa-7-azabicyclo[4.4.0]deca-2,4,11-trien-8-yl)-phenol
@<TRIPOS>ATOM
      1 C1          3.6161    0.3287    4.4385 C.3       1 <0>        -0.1486
      2 C2          2.8784    1.6310    4.1213 C.3       1 <0>        -0.1058
      3 C3          1.3912    1.3374    3.9142 C.3       1 <0>         0.1711
      4 C4          0.8197    0.7431    5.1748 C.ar      1 <0>        -0.1731
      5 C5          1.1927    1.2513    6.4051 C.ar      1 <0>        -0.0665
      6 C6          0.6696    0.7121    7.5654 C.ar      1 <0>        -0.1680
      7 C7         -0.2291   -0.3374    7.5030 C.ar      1 <0>        -0.0738
      8 C8         -0.6062   -0.8513    6.2774 C.ar      1 <0>        -0.1840
      9 C9         -0.0808   -0.3118    5.1119 C.ar      1 <0>         0.2160
     10 N1         -0.4517   -0.8316    3.8655 N.pl3     1 <0>        -0.7636
     11 C10        -0.1042   -0.0557    2.6643 C.3       1 <0>         0.3687
     12 H1         -0.7887    0.7857    2.5568 H         1 <0>         0.0895
     13 O1          1.2358    0.4266    2.8249 O.3       1 <0>        -0.3612
     14 C11        -0.1858   -0.9385    1.4457 C.ar      1 <0>        -0.0981
     15 C12        -0.2708   -2.3102    1.5902 C.ar      1 <0>        -0.0727
     16 C13        -0.3454   -3.1215    0.4722 C.ar      1 <0>        -0.0338
     17 C14        -0.3355   -2.5616   -0.7934 C.ar      1 <0>        -0.0783
     18 C15        -0.2559   -1.1898   -0.9422 C.ar      1 <0>        -0.0537
     19 C16        -0.1752   -0.3748    0.1789 C.ar      1 <0>         0.1531
     20 O2         -0.0916    0.9745    0.0350 O.3       1 <0>        -0.4775
     21 Cl1        -0.2501   -0.4870   -2.5296 Cl        1 <0>        -0.0343
     22 Cl2        -0.4521   -4.8443    0.6570 Cl        1 <0>        -0.0452
     23 C17         0.6569    2.6409    3.5938 C.3       1 <0>        -0.1436
     24 C18         1.2615    3.2712    2.3376 C.3       1 <0>        -0.1483
     25 H2          4.6622    0.5468    4.6536 H         1 <0>         0.0530
     26 H3          3.1581   -0.1461    5.3062 H         1 <0>         0.0566
     27 H4          3.5535   -0.3423    3.5818 H         1 <0>         0.0583
     28 H5          3.2917    2.0708    3.2136 H         1 <0>         0.0764
     29 H6          2.9991    2.3283    4.9504 H         1 <0>         0.0792
     30 H7          1.8936    2.0712    6.4598 H         1 <0>         0.1235
     31 H8          0.9636    1.1120    8.5246 H         1 <0>         0.1209
     32 H9         -0.6356   -0.7552    8.4121 H         1 <0>         0.1230
     33 H10        -1.3080   -1.6706    6.2265 H         1 <0>         0.1219
     34 H11        -0.9233   -1.6764    3.7961 H         1 <0>         0.4055
     35 H12        -0.2787   -2.7493    2.5769 H         1 <0>         0.1453
     36 H13        -0.3944   -3.1966   -1.6650 H         1 <0>         0.1527
     37 H14         0.8140    1.3083   -0.0244 H         1 <0>         0.4000
     38 H15        -0.3988    2.4306    3.4228 H         1 <0>         0.0646
     39 H16         0.7589    3.3307    4.4316 H         1 <0>         0.0763
     40 H17         2.2865    3.5797    2.5431 H         1 <0>         0.0583
     41 H18         1.2570    2.5423    1.5272 H         1 <0>         0.0589
     42 H19         0.6716    4.1407    2.0475 H         1 <0>         0.0569
@<TRIPOS>BOND
     1    1    2 1
     2    1   25 1
     3    1   26 1
     4    1   27 1
     5    2    3 1
     6    2   28 1
     7    2   29 1
     8    3   13 1
     9    3    4 1
    10    3   23 1
    11    4    9 ar
    12    4    5 ar
    13    5    6 ar
    14    5   30 1
    15    6    7 ar
    16    6   31 1
    17    7    8 ar
    18    7   32 1
    19    8    9 ar
    20    8   33 1
    21    9   10 1
    22   10   11 1
    23   10   34 1
    24   11   12 1
    25   11   13 1
    26   11   14 1
    27   14   19 ar
    28   14   15 ar
    29   15   16 ar
    30   15   35 1
    31   16   17 ar
    32   16   22 1
    33   17   18 ar
    34   17   36 1
    35   18   19 ar
    36   18   21 1
    37   19   20 1
    38   20   37 1
    39   23   24 1
    40   23   38 1
    41   23   39 1
    42   24   40 1
    43   24   41 1
    44   24   42 1
@<TRIPOS>MOLECULE
ZINC20696397
   47    50     0     0     0
SMALL
USER_CHARGES
2-[(3aR,4S,9bR)-6-isopropoxy-3a,4,5,9b-tetrahydro-3H-cyclopenta[c]quinolin-4-yl]-4-bromo-phenol
@<TRIPOS>ATOM
      1 C1          6.4074    4.7889   -0.3308 C.3       1 <0>        -0.1493
      2 C2          5.6056    3.6281    0.2611 C.3       1 <0>         0.0826
      3 C3          5.9090    3.5085    1.7560 C.3       1 <0>        -0.1815
      4 O1          4.2094    3.8704    0.0763 O.3       1 <0>        -0.3219
      5 C4          3.3901    2.7848    0.0681 C.ar      1 <0>         0.0584
      6 C5          3.9085    1.5354    0.3474 C.ar      1 <0>        -0.1734
      7 C6          3.0857    0.4240    0.3414 C.ar      1 <0>        -0.1346
      8 C7          1.7403    0.5705    0.0628 C.ar      1 <0>        -0.1057
      9 C8          1.2109    1.8157   -0.2090 C.ar      1 <0>        -0.1186
     10 C9          2.0302    2.9457   -0.2233 C.ar      1 <0>         0.1961
     11 N1          1.5835    4.2315   -0.5332 N.pl3     1 <0>        -0.7428
     12 C10         0.1354    4.3983   -0.7354 C.3       1 <0>         0.2025
     13 H1         -0.0532    5.3273   -1.2934 H         1 <0>         0.0992
     14 C11        -0.3521    3.1805   -1.4925 C.3       1 <0>        -0.0841
     15 H2          0.2084    3.2317   -2.4376 H         1 <0>         0.1025
     16 C12        -0.2322    2.0070   -0.4710 C.3       1 <0>        -0.0184
     17 H3         -0.5923    2.0635    0.5669 H         1 <0>         0.1004
     18 C13        -1.0839    0.9508   -1.0706 C.2       1 <0>        -0.1631
     19 C14        -2.0333    1.5342   -1.7942 C.2       1 <0>        -0.1742
     20 C15        -1.8566    3.0543   -1.7584 C.3       1 <0>        -0.0823
     21 C16        -0.5623    4.4877    0.5974 C.ar      1 <0>        -0.1350
     22 C17         0.0107    3.9165    1.7173 C.ar      1 <0>        -0.0357
     23 C18        -0.6272    4.0021    2.9417 C.ar      1 <0>        -0.1352
     24 C19        -1.8446    4.6514    3.0458 C.ar      1 <0>        -0.0514
     25 C20        -2.4233    5.2192    1.9276 C.ar      1 <0>        -0.2107
     26 C21        -1.7828    5.1387    0.6995 C.ar      1 <0>         0.1794
     27 O2         -2.3509    5.6964   -0.4022 O.3       1 <0>        -0.5014
     28 Br1         0.1622    3.2244    4.4740 Br        1 <0>        -0.0522
     29 H4          6.1892    4.8748   -1.4055 H         1 <0>         0.0642
     30 H5          7.4821    4.6023   -0.1886 H         1 <0>         0.0766
     31 H6          6.1273    5.7241    0.1761 H         1 <0>         0.0671
     32 H7          5.8191    2.6864   -0.2658 H         1 <0>         0.0712
     33 H8          5.3325    2.6739    2.1815 H         1 <0>         0.0640
     34 H9          5.6289    4.4437    2.2629 H         1 <0>         0.0675
     35 H10         6.9837    3.3219    1.8982 H         1 <0>         0.0706
     36 H11         4.9594    1.4262    0.5714 H         1 <0>         0.1262
     37 H12         3.4926   -0.5537    0.5538 H         1 <0>         0.1202
     38 H13         1.0971   -0.2971    0.0580 H         1 <0>         0.1198
     39 H14         2.2555    5.0972   -0.6285 H         1 <0>         0.4383
     40 H15        -1.0396   -0.1462   -1.0033 H         1 <0>         0.1308
     41 H16        -2.7900    0.9211   -2.3055 H         1 <0>         0.1288
     42 H17        -2.4148    3.5382   -0.9434 H         1 <0>         0.0867
     43 H18        -2.1027    3.5436   -2.7124 H         1 <0>         0.0700
     44 H19         0.9589    3.4057    1.6374 H         1 <0>         0.1435
     45 H20        -2.3429    4.7139    4.0019 H         1 <0>         0.1326
     46 H21        -3.3736    5.7259    2.0093 H         1 <0>         0.1355
     47 H22        -3.3189    6.2125   -0.3204 H         1 <0>         0.4366
@<TRIPOS>BOND
     1    1    2 1
     2    1   29 1
     3    1   30 1
     4    1   31 1
     5    2    3 1
     6    2    4 1
     7    2   32 1
     8    3   33 1
     9    3   34 1
    10    3   35 1
    11    4    5 1
    12    5   10 ar
    13    5    6 ar
    14    6    7 ar
    15    6   36 1
    16    7    8 ar
    17    7   37 1
    18    8    9 ar
    19    8   38 1
    20    9   16 1
    21    9   10 ar
    22   10   11 1
    23   11   12 1
    24   11   39 1
    25   12   13 1
    26   12   14 1
    27   12   21 1
    28   14   15 1
    29   14   20 1
    30   14   16 1
    31   16   17 1
    32   16   18 1
    33   18   19 2
    34   18   40 1
    35   19   20 1
    36   19   41 1
    37   20   42 1
    38   20   43 1
    39   21   26 ar
    40   21   22 ar
    41   22   23 ar
    42   22   44 1
    43   23   24 ar
    44   23   28 1
    45   24   25 ar
    46   24   45 1
    47   25   26 ar
    48   25   46 1
    49   26   27 1
    50   27   47 1
@<TRIPOS>MOLECULE
ZINC39324458
   52    55     0     0     0
SMALL
USER_CHARGES

@<TRIPOS>ATOM
      1 C1         -0.4405    1.4215   -0.5148 C.3       1 <0>        -0.1562
      2 C2         -0.2386   -0.0813   -0.3106 C.3       1 <0>        -0.1185
      3 C3          0.6516   -0.6325   -1.4262 C.3       1 <0>        -0.0882
      4 H1          0.2210   -0.3807   -2.3954 H         1 <0>         0.0790
      5 C4          2.0565   -0.0224   -1.3128 C.3       1 <0>        -0.0832
      6 C5          2.8663   -0.5647   -2.4700 C.2       1 <0>        -0.0659
      7 C6          3.7005    0.2316   -3.1619 C.2       1 <0>        -0.0866
      8 C7          3.9647    1.6037   -2.6959 C.ar      1 <0>        -0.0703
      9 C8          3.9739    1.8907   -1.3278 C.ar      1 <0>        -0.0823
     10 C9          4.2218    3.1769   -0.8980 C.ar      1 <0>        -0.1545
     11 C10         4.4612    4.1847   -1.8193 C.ar      1 <0>         0.1034
     12 C11         4.4530    3.9066   -3.1773 C.ar      1 <0>        -0.1539
     13 C12         4.2130    2.6231   -3.6196 C.ar      1 <0>        -0.0742
     14 F1          4.7030    5.4432   -1.3918 F         1 <0>        -0.1378
     15 C13         2.7167   -1.9915   -2.8191 C.2       1 <0>         0.0984
     16 C14         1.7429   -2.7237   -2.2800 C.2       1 <0>        -0.1372
     17 C15         0.7592   -2.1481   -1.2928 C.3       1 <0>        -0.0671
     18 C16         1.5907   -4.1810   -2.6518 C.3       1 <0>         0.0816
     19 H2          0.5330   -4.4107   -2.7810 H         1 <0>         0.0970
     20 C17         2.3218   -4.4769   -3.9297 C.2       1 <0>        -0.2835
     21 C18         3.2842   -3.6360   -4.3849 C.2       1 <0>         0.4412
     22 O1          3.6015   -2.5232   -3.7015 O.3       1 <0>        -0.2487
     23 N1          3.9414   -3.9255   -5.5547 N.pl3     1 <0>        -0.8296
     24 C19         2.0006   -5.6573   -4.6742 C.1       1 <0>         0.2720
     25 N2          1.7458   -6.5937   -5.2647 N.1       1 <0>        -0.4460
     26 C20         2.1542   -5.0375   -1.5474 C.ar      1 <0>        -0.0843
     27 C21         3.4831   -4.9135   -1.1869 C.ar      1 <0>        -0.0735
     28 C22         4.0009   -5.6982   -0.1739 C.ar      1 <0>        -0.1516
     29 C23         3.1882   -6.6088    0.4799 C.ar      1 <0>         0.0966
     30 C24         1.8575   -6.7321    0.1180 C.ar      1 <0>        -0.1511
     31 C25         1.3406   -5.9426   -0.8917 C.ar      1 <0>        -0.0828
     32 F2          3.6935   -7.3767    1.4700 F         1 <0>        -0.1402
     33 H3          0.5262    1.9246   -0.4903 H         1 <0>         0.0562
     34 H4         -0.9168    1.5964   -1.4795 H         1 <0>         0.0545
     35 H5         -1.0747    1.8142    0.2800 H         1 <0>         0.0555
     36 H6          0.2377   -0.2562    0.6541 H         1 <0>         0.0657
     37 H7         -1.2052   -0.5844   -0.3350 H         1 <0>         0.0668
     38 H8          1.9967    1.0641   -1.3771 H         1 <0>         0.0971
     39 H9          2.5145   -0.3157   -0.3682 H         1 <0>         0.0852
     40 H10         4.1766   -0.1350   -4.0593 H         1 <0>         0.1306
     41 H11         3.7868    1.1066   -0.6091 H         1 <0>         0.1417
     42 H12         4.2291    3.4000    0.1587 H         1 <0>         0.1383
     43 H13         4.6399    4.6961   -3.8901 H         1 <0>         0.1377
     44 H14         4.2120    2.4066   -4.6777 H         1 <0>         0.1355
     45 H15         1.0869   -2.3940   -0.2828 H         1 <0>         0.0849
     46 H16        -0.2218   -2.5910   -1.4649 H         1 <0>         0.0826
     47 H17         3.7169   -4.7278   -6.0514 H         1 <0>         0.4255
     48 H18         4.6304   -3.3277   -5.8847 H         1 <0>         0.4112
     49 H19         4.1169   -4.2035   -1.6973 H         1 <0>         0.1264
     50 H20         5.0391   -5.6014    0.1073 H         1 <0>         0.1344
     51 H21         1.2227   -7.4422    0.6271 H         1 <0>         0.1357
     52 H22         0.3015   -6.0355   -1.1712 H         1 <0>         0.1324
@<TRIPOS>BOND
     1    1    2 1
     2    1   33 1
     3    1   34 1
     4    1   35 1
     5    2    3 1
     6    2   36 1
     7    2   37 1
     8    3    4 1
     9    3   17 1
    10    3    5 1
    11    5    6 1
    12    5   38 1
    13    5   39 1
    14    6    7 2
    15    6   15 1
    16    7    8 1
    17    7   40 1
    18    8   13 ar
    19    8    9 ar
    20    9   10 ar
    21    9   41 1
    22   10   11 ar
    23   10   42 1
    24   11   12 ar
    25   11   14 1
    26   12   13 ar
    27   12   43 1
    28   13   44 1
    29   15   22 1
    30   15   16 2
    31   16   17 1
    32   16   18 1
    33   17   45 1
    34   17   46 1
    35   18   19 1
    36   18   20 1
    37   18   26 1
    38   20   21 2
    39   20   24 1
    40   21   22 1
    41   21   23 1
    42   23   47 1
    43   23   48 1
    44   24   25 3
    45   26   31 ar
    46   26   27 ar
    47   27   28 ar
    48   27   49 1
    49   28   29 ar
    50   28   50 1
    51   29   30 ar
    52   29   32 1
    53   30   31 ar
    54   30   51 1
    55   31   52 1
@<TRIPOS>MOLECULE
ZINC05034745
   31    32     0     0     0
SMALL
USER_CHARGES

@<TRIPOS>ATOM
      1 C1         -0.0167    1.3807    0.0096 C.ar      1 <0>        -0.0733
      2 C2          1.1668    2.0959    0.0022 C.ar      1 <0>        -0.1382
      3 C3          2.3806    1.4302   -0.0129 C.ar      1 <0>         0.1554
      4 C4          2.4052    0.0287   -0.0207 C.ar      1 <0>        -0.0757
      5 C5          1.2041   -0.6832   -0.0130 C.ar      1 <0>        -0.0638
      6 C6          0.0021   -0.0041    0.0020 C.ar      1 <0>        -0.0509
      7 Cl1        -1.4913   -0.8892    0.0115 Cl        1 <0>        -0.0580
      8 C7          3.6920   -0.6896   -0.0372 C.2       1 <0>         0.1156
      9 N1          4.8071   -0.0240   -0.0447 N.2       1 <0>        -0.2084
     10 N2          6.0304   -0.7068   -0.0605 N.pl3     1 <0>        -0.5683
     11 C8          7.2305    0.0096   -0.0686 C.ar      1 <0>         0.2452
     12 C9          7.2293    1.3678   -0.3672 C.ar      1 <0>         0.0436
     13 C10         8.4199    2.0748   -0.3739 C.ar      1 <0>         0.1803
     14 C11         9.6110    1.4307   -0.0837 C.ar      1 <0>        -0.2645
     15 C12         9.6156    0.0783    0.2141 C.ar      1 <0>         0.1873
     16 C13         8.4277   -0.6332    0.2276 C.ar      1 <0>         0.0156
     17 F1          8.4323   -1.9513    0.5237 F         1 <0>        -0.1080
     18 F2         10.7796   -0.5464    0.4967 F         1 <0>        -0.0911
     19 C14        10.9050    2.2031   -0.0924 C.3       1 <0>         0.5258
     20 F3         11.1460    2.7236    1.1837 F         1 <0>        -0.1651
     21 F4         11.9541    1.3513   -0.4543 F         1 <0>        -0.1632
     22 F5         10.8161    3.2515   -1.0145 F         1 <0>        -0.1625
     23 F6          8.4196    3.3942   -0.6644 F         1 <0>        -0.0908
     24 F7          6.0678    1.9967   -0.6509 F         1 <0>        -0.0766
     25 O1          3.5434    2.1327   -0.0207 O.3       1 <0>        -0.4678
     26 H1         -0.9608    1.9048    0.0260 H         1 <0>         0.1424
     27 H2          1.1442    3.1756    0.0078 H         1 <0>         0.1452
     28 H3          1.2152   -1.7632   -0.0192 H         1 <0>         0.1442
     29 H4          3.7077   -1.7695   -0.0432 H         1 <0>         0.1289
     30 H5          6.0444   -1.6767   -0.0658 H         1 <0>         0.4032
     31 H6          3.8887    2.3316    0.8604 H         1 <0>         0.3936
@<TRIPOS>BOND
     1    1    6 ar
     2    1    2 ar
     3    1   26 1
     4    2    3 ar
     5    2   27 1
     6    3    4 ar
     7    3   25 1
     8    4    5 ar
     9    4    8 1
    10    5    6 ar
    11    5   28 1
    12    6    7 1
    13    8    9 2
    14    8   29 1
    15    9   10 1
    16   10   11 1
    17   10   30 1
    18   11   16 ar
    19   11   12 ar
    20   12   13 ar
    21   12   24 1
    22   13   14 ar
    23   13   23 1
    24   14   15 ar
    25   14   19 1
    26   15   16 ar
    27   15   18 1
    28   16   17 1
    29   19   20 1
    30   19   21 1
    31   19   22 1
    32   25   31 1
@<TRIPOS>MOLECULE
ZINC07380358
   37    39     0     0     0
SMALL
USER_CHARGES
N'-(3-chlorophenyl)sulfonyl-3-methyl-benzofuran-2-carbohydrazide
@<TRIPOS>ATOM
      1 C1         -3.3896   -0.7595    5.2828 C.3       1 <0>        -0.1013
      2 C2         -4.2179   -0.4447    4.0638 C.2       1 <0>        -0.0530
      3 C3         -5.6249   -0.7792    3.8463 C.ar      1 <0>        -0.1463
      4 C4         -6.5979   -1.4362    4.6035 C.ar      1 <0>        -0.0534
      5 C5         -7.8566   -1.5958    4.0969 C.ar      1 <0>        -0.1378
      6 C6         -8.1740   -1.1103    2.8355 C.ar      1 <0>        -0.0755
      7 C7         -7.2286   -0.4599    2.0726 C.ar      1 <0>        -0.1137
      8 C8         -5.9410   -0.2852    2.5671 C.ar      1 <0>         0.0791
      9 O1         -4.8317    0.2945    2.0688 O.3       1 <0>        -0.1868
     10 C9         -3.8095    0.2090    2.9456 C.2       1 <0>        -0.0464
     11 C10        -2.4566    0.7379    2.7217 C.2       1 <0>         0.6112
     12 O2         -1.6032    0.6080    3.5789 O.2       1 <0>        -0.4873
     13 N1         -2.1616    1.3669    1.5668 N.am      1 <0>        -0.5024
     14 N2         -0.8720    1.8711    1.3534 N.pl3     1 <0>        -0.9001
     15 S1         -0.0172    1.4168    0.0098 S.o2      1 <0>         2.6968
     16 O3          0.0021   -0.0041    0.0020 O.2       1 <0>        -0.9301
     17 O4          1.1718    2.1948    0.0027 O.2       1 <0>        -0.9281
     18 C11        -0.9538    1.9155   -1.3968 C.ar      1 <0>        -0.6736
     19 C12        -1.8795    1.0517   -1.9524 C.ar      1 <0>        -0.0198
     20 C13        -2.6181    1.4440   -3.0529 C.ar      1 <0>        -0.1220
     21 C14        -2.4240    2.6963   -3.6052 C.ar      1 <0>        -0.0489
     22 C15        -1.4942    3.5589   -3.0530 C.ar      1 <0>        -0.0565
     23 C16        -0.7589    3.1676   -1.9480 C.ar      1 <0>        -0.0073
     24 Cl1        -1.2495    5.1315   -3.7463 Cl        1 <0>        -0.0504
     25 H1         -3.4699    0.0592    5.9979 H         1 <0>         0.0829
     26 H2         -3.7529   -1.6793    5.7412 H         1 <0>         0.0744
     27 H3         -2.3471   -0.8861    4.9909 H         1 <0>         0.0938
     28 H4         -6.3563   -1.8158    5.5853 H         1 <0>         0.1328
     29 H5         -8.6098   -2.1032    4.6814 H         1 <0>         0.1347
     30 H6         -9.1730   -1.2444    2.4476 H         1 <0>         0.1401
     31 H7         -7.4872   -0.0870    1.0926 H         1 <0>         0.1370
     32 H8         -2.8421    1.4705    0.8834 H         1 <0>         0.4262
     33 H9         -0.4799    2.4864    1.9926 H         1 <0>         0.4335
     34 H10        -2.0283    0.0716   -1.5240 H         1 <0>         0.1502
     35 H11        -3.3437    0.7703   -3.4842 H         1 <0>         0.1478
     36 H12        -2.9980    3.0010   -4.4678 H         1 <0>         0.1461
     37 H13        -0.0331    3.8408   -1.5163 H         1 <0>         0.1542
@<TRIPOS>BOND
     1    1    2 1
     2    1   25 1
     3    1   26 1
     4    1   27 1
     5    2   10 2
     6    2    3 1
     7    3    8 ar
     8    3    4 ar
     9    4    5 ar
    10    4   28 1
    11    5    6 ar
    12    5   29 1
    13    6    7 ar
    14    6   30 1
    15    7    8 ar
    16    7   31 1
    17    8    9 1
    18    9   10 1
    19   10   11 1
    20   11   12 2
    21   11   13 am
    22   13   14 1
    23   13   32 1
    24   14   15 1
    25   14   33 1
    26   15   16 2
    27   15   17 2
    28   15   18 1
    29   18   23 ar
    30   18   19 ar
    31   19   20 ar
    32   19   34 1
    33   20   21 ar
    34   20   35 1
    35   21   22 ar
    36   21   36 1
    37   22   23 ar
    38   22   24 1
    39   23   37 1
@<TRIPOS>MOLECULE
ZINC06660268
   46    48     0     0     0
SMALL
USER_CHARGES
N-(3-acetylphenyl)-2-(5-hydroxy-4,7-dimethyl-2-oxo-chromen-3-yl)acetamide
@<TRIPOS>ATOM
      1 C1         -8.3859    6.1805    1.0415 C.3       1 <0>        -0.1220
      2 C2         -7.2509    5.1913    1.1061 C.ar      1 <0>        -0.0101
      3 C3         -6.6591    4.9072    2.3260 C.ar      1 <0>        -0.1696
      4 C4         -5.6162    4.0014    2.4012 C.ar      1 <0>         0.1790
      5 C5         -5.1621    3.3727    1.2310 C.ar      1 <0>        -0.1845
      6 C6         -4.0651    2.4047    1.2714 C.2       1 <0>         0.0574
      7 C7         -3.6687    1.8350    0.1034 C.2       1 <0>        -0.2198
      8 C8         -4.3206    2.1764   -1.0993 C.2       1 <0>         0.5229
      9 O1         -3.9588    1.6552   -2.1390 O.2       1 <0>        -0.4605
     10 O2         -5.3294    3.0612   -1.1279 O.3       1 <0>        -0.2657
     11 C9         -5.7679    3.6671   -0.0033 C.ar      1 <0>         0.1702
     12 C10        -6.8128    4.5794   -0.0509 C.ar      1 <0>        -0.1466
     13 C11        -2.5397    0.8368    0.0943 C.3       1 <0>        -0.0808
     14 C12        -1.2330    1.5581   -0.1139 C.2       1 <0>         0.5162
     15 O3         -1.2198    2.7641   -0.2422 O.2       1 <0>        -0.5052
     16 N1         -0.0791    0.8631   -0.1575 N.am      1 <0>        -0.6751
     17 C13         1.1418    1.5396   -0.2601 C.ar      1 <0>         0.1322
     18 C14         2.2666    1.0459    0.3910 C.ar      1 <0>        -0.1129
     19 C15         3.4771    1.7062    0.2891 C.ar      1 <0>        -0.1132
     20 C16         3.5756    2.8666   -0.4503 C.ar      1 <0>        -0.0887
     21 C17         2.4494    3.3756   -1.1049 C.ar      1 <0>        -0.1546
     22 C18         1.2276    2.7040   -1.0057 C.ar      1 <0>        -0.0637
     23 C19         2.5502    4.6137   -1.8944 C.2       1 <0>         0.3903
     24 O4          1.5721    5.0530   -2.4606 O.2       1 <0>        -0.4496
     25 C20         3.8691    5.3353   -1.9992 C.3       1 <0>        -0.1913
     26 C21        -3.3905    2.0533    2.5723 C.3       1 <0>        -0.1281
     27 O5         -5.0369    3.7229    3.5963 O.3       1 <0>        -0.4832
     28 H1         -9.3325    5.6566    1.1744 H         1 <0>         0.0832
     29 H2         -8.2671    6.9221    1.8315 H         1 <0>         0.0769
     30 H3         -8.3792    6.6784    0.0719 H         1 <0>         0.0773
     31 H4         -7.0136    5.3946    3.2222 H         1 <0>         0.1433
     32 H5         -7.2836    4.8111   -0.9948 H         1 <0>         0.1481
     33 H6         -2.6931    0.1222   -0.7143 H         1 <0>         0.1186
     34 H7         -2.5148    0.3077    1.0469 H         1 <0>         0.1168
     35 H8         -0.0950   -0.1061   -0.1218 H         1 <0>         0.4139
     36 H9          2.1956    0.1404    0.9752 H         1 <0>         0.1318
     37 H10         4.3476    1.3147    0.7943 H         1 <0>         0.1352
     38 H11         4.5219    3.3819   -0.5234 H         1 <0>         0.1365
     39 H12         0.3539    3.0911   -1.5088 H         1 <0>         0.1501
     40 H13         4.5626    4.8398   -1.4762 H         1 <0>         0.0753
     41 H14         4.1719    5.3887   -3.0449 H         1 <0>         0.0955
     42 H15         3.7642    6.3438   -1.5993 H         1 <0>         0.0953
     43 H16        -2.6317    2.8014    2.8018 H         1 <0>         0.0955
     44 H17        -4.1315    2.0304    3.3714 H         1 <0>         0.0905
     45 H18        -2.9203    1.0738    2.4848 H         1 <0>         0.0751
     46 H19        -5.4474    2.9868    4.0704 H         1 <0>         0.3980
@<TRIPOS>BOND
     1    1    2 1
     2    1   28 1
     3    1   29 1
     4    1   30 1
     5    2   12 ar
     6    2    3 ar
     7    3    4 ar
     8    3   31 1
     9    4    5 ar
    10    4   27 1
    11    5   11 ar
    12    5    6 1
    13    6    7 2
    14    6   26 1
    15    7    8 1
    16    7   13 1
    17    8    9 2
    18    8   10 1
    19   10   11 1
    20   11   12 ar
    21   12   32 1
    22   13   14 1
    23   13   33 1
    24   13   34 1
    25   14   15 2
    26   14   16 am
    27   16   17 1
    28   16   35 1
    29   17   22 ar
    30   17   18 ar
    31   18   19 ar
    32   18   36 1
    33   19   20 ar
    34   19   37 1
    35   20   21 ar
    36   20   38 1
    37   21   22 ar
    38   21   23 1
    39   22   39 1
    40   23   24 2
    41   23   25 1
    42   25   40 1
    43   25   41 1
    44   25   42 1
    45   26   43 1
    46   26   44 1
    47   26   45 1
    48   27   46 1
@<TRIPOS>MOLECULE
ZINC32104134
   44    47     0     0     0
SMALL
USER_CHARGES
(2R)-1-[[dimethyl(phenyl)BLAHyl]amino]propan-2-ol
@<TRIPOS>ATOM
      1 C1          3.7206    6.7047    0.0040 C.3       1 <0>        -0.0989
      2 C2          5.2104    6.4781   -0.0099 C.2       1 <0>        -0.0598
      3 C3          6.0562    7.5214   -0.0105 C.2       1 <0>        -0.1673
      4 S1          7.6628    6.7488   -0.0281 S.3       1 <0>         0.1377
      5 C4          7.1512    5.0496   -0.0341 C.2       1 <0>         0.1375
      6 C5          5.7473    5.1310   -0.0223 C.2       1 <0>        -0.1798
      7 C6          5.0437    3.8334   -0.0239 C.2       1 <0>         0.3774
      8 N1          3.7694    3.4973   -0.0148 N.2       1 <0>        -0.5203
      9 C7          3.6602    2.1644   -0.0209 C.2       1 <0>         0.3123
     10 N2          4.8642    1.6283   -0.0291 N.2       1 <0>        -0.3200
     11 N3          5.7849    2.6861   -0.0363 N.pl3     1 <0>        -0.3632
     12 C8          7.1493    2.7391   -0.0471 C.2       1 <0>         0.6624
     13 N4          7.7895    3.8855   -0.0458 N.2       1 <0>        -0.5263
     14 N5          7.8692    1.5654   -0.0591 N.pl3     1 <0>        -0.6877
     15 C9          9.3336    1.6043   -0.0702 C.3       1 <0>         0.1423
     16 C10         9.8817    0.1759   -0.0823 C.3       1 <0>         0.0998
     17 H1          9.4914   -0.3938   -0.9385 H         1 <0>         0.0602
     18 C11        11.4111    0.2165   -0.0939 C.3       1 <0>        -0.1833
     19 O1          9.4324   -0.5165    1.0843 O.3       1 <0>        -0.6006
     20 C12         2.3835    1.4076   -0.0132 C.ar      1 <0>        -0.0265
     21 C13         1.1676    2.0878    0.0021 C.ar      1 <0>        -0.0690
     22 C14        -0.0167    1.3790    0.0096 C.ar      1 <0>        -0.1250
     23 C15         0.0021   -0.0041    0.0020 C.ar      1 <0>        -0.0973
     24 C16         1.2063   -0.6844   -0.0132 C.ar      1 <0>        -0.1253
     25 C17         2.3965    0.0144   -0.0208 C.ar      1 <0>        -0.0784
     26 C18         5.7265    8.9918    0.0002 C.3       1 <0>        -0.0669
     27 H2          3.5141    7.7851    0.0121 H         1 <0>         0.0686
     28 H3          3.2877    6.2419    0.9032 H         1 <0>         0.0739
     29 H4          3.2726    6.2524   -0.8931 H         1 <0>         0.0739
     30 H5          7.3447    0.5985   -0.0604 H         1 <0>         0.4533
     31 H6          9.6794    2.1373   -0.9681 H         1 <0>         0.0915
     32 H7          9.6933    2.1275    0.8281 H         1 <0>         0.0846
     33 H8         11.8051   -0.8105   -0.1026 H         1 <0>         0.0669
     34 H9         11.7708    0.7396    0.8044 H         1 <0>         0.0701
     35 H10        11.7569    0.7495   -0.9918 H         1 <0>         0.0707
     36 H11         9.7273   -1.5631    1.2504 H         1 <0>         0.4139
     37 H12         1.1519    3.1676    0.0078 H         1 <0>         0.1371
     38 H13        -0.9598    1.9052    0.0170 H         1 <0>         0.1312
     39 H14        -0.9269   -0.5548    0.0083 H         1 <0>         0.1280
     40 H15         1.2153   -1.7643   -0.0194 H         1 <0>         0.1302
     41 H16         3.3362   -0.5178   -0.0331 H         1 <0>         0.1310
     42 H17         6.6582    9.5765   -0.0036 H         1 <0>         0.0753
     43 H18         5.1471    9.2311    0.9041 H         1 <0>         0.0830
     44 H19         5.1335    9.2411   -0.8921 H         1 <0>         0.0830
@<TRIPOS>BOND
     1    1    2 1
     2    1   27 1
     3    1   28 1
     4    1   29 1
     5    2    6 1
     6    2    3 2
     7    3    4 1
     8    3   26 1
     9    4    5 1
    10    5   13 1
    11    5    6 2
    12    6    7 1
    13    7   11 1
    14    7    8 2
    15    8    9 1
    16    9   10 2
    17    9   20 1
    18   10   11 1
    19   11   12 1
    20   12   13 2
    21   12   14 1
    22   14   15 1
    23   14   30 1
    24   15   16 1
    25   15   31 1
    26   15   32 1
    27   16   17 1
    28   16   18 1
    29   16   19 1
    30   18   33 1
    31   18   34 1
    32   18   35 1
    33   19   36 1
    34   20   25 ar
    35   20   21 ar
    36   21   22 ar
    37   21   37 1
    38   22   23 ar
    39   22   38 1
    40   23   24 ar
    41   23   39 1
    42   24   25 ar
    43   24   40 1
    44   25   41 1
    45   26   42 1
    46   26   43 1
    47   26   44 1
@<TRIPOS>MOLECULE
ZINC47713820
   45    47     0     0     0
SMALL
USER_CHARGES

@<TRIPOS>ATOM
      1 C1          0.4309    1.3303    0.2262 C.ar      1 <0>        -0.1225
      2 C2          1.4504    2.0865   -0.3218 C.ar      1 <0>        -0.1054
      3 C3          2.5140    1.4669   -0.9519 C.ar      1 <0>        -0.1416
      4 C4          2.5604    0.0852   -1.0356 C.ar      1 <0>         0.0992
      5 C5          1.5336   -0.6776   -0.4837 C.ar      1 <0>         0.1416
      6 C6          0.4697   -0.0491    0.1470 C.ar      1 <0>        -0.1102
      7 N1          1.5750   -2.0742   -0.5656 N.pl3     1 <0>        -0.6694
      8 C7          2.2166   -2.8669    0.4926 C.3       1 <0>         0.1304
      9 C8          1.2046   -3.8923    1.0186 C.3       1 <0>         0.1130
     10 N2          0.6068   -4.5924   -0.1270 N.am      1 <0>        -0.6189
     11 C9         -0.0348   -3.7997   -1.1852 C.3       1 <0>         0.0924
     12 C10         0.9723   -2.7746   -1.7085 C.3       1 <0>         0.1360
     13 C11         0.6467   -5.9373   -0.2059 C.2       1 <0>         0.7089
     14 O1          1.2646   -6.5769    0.6233 O.2       1 <0>        -0.5673
     15 N3          0.0017   -6.5732   -1.2039 N.am      1 <0>        -0.6847
     16 C12        -0.0823   -7.9721   -1.2046 C.ar      1 <0>         0.1761
     17 C13        -0.1755   -8.6627   -0.0038 C.ar      1 <0>        -0.0903
     18 C14        -0.2587  -10.0415   -0.0041 C.ar      1 <0>        -0.1397
     19 C15        -0.2492  -10.7371   -1.2034 C.ar      1 <0>         0.0556
     20 C16        -0.1555  -10.0478   -2.4057 C.ar      1 <0>         0.1113
     21 C17        -0.0779   -8.6672   -2.4063 C.ar      1 <0>        -0.1526
     22 F1         -0.1453  -10.7257   -3.5742 F         1 <0>        -0.1245
     23 O2         -0.3312  -12.0949   -1.2026 O.3       1 <0>        -0.3135
     24 C18        -0.4247  -12.7385    0.0698 C.3       1 <0>         0.4121
     25 F2          0.7066  -12.4298    0.8328 F         1 <0>        -0.1958
     26 F3         -1.5718  -12.2922    0.7349 F         1 <0>        -0.1969
     27 O3          3.6058   -0.5255   -1.6554 O.3       1 <0>        -0.4913
     28 H1         -0.3956    1.8184    0.7213 H         1 <0>         0.1261
     29 H2          1.4158    3.1640   -0.2578 H         1 <0>         0.1274
     30 H3          3.3086    2.0607   -1.3792 H         1 <0>         0.1289
     31 H4         -0.3278   -0.6375    0.5762 H         1 <0>         0.1249
     32 H5          3.0849   -3.3853    0.0859 H         1 <0>         0.0586
     33 H6          2.5271   -2.2096    1.3048 H         1 <0>         0.0820
     34 H7          1.7126   -4.6108    1.6619 H         1 <0>         0.1026
     35 H8          0.4246   -3.3805    1.5822 H         1 <0>         0.0712
     36 H9         -0.3453   -4.4571   -1.9974 H         1 <0>         0.0810
     37 H10        -0.9031   -3.2814   -0.7785 H         1 <0>         0.0770
     38 H11         0.4612   -2.0563   -2.3496 H         1 <0>         0.0828
     39 H12         1.7500   -3.2862   -2.2755 H         1 <0>         0.0584
     40 H13        -0.4045   -6.0625   -1.9217 H         1 <0>         0.4083
     41 H14        -0.1827   -8.1216    0.9309 H         1 <0>         0.1484
     42 H15        -0.3309  -10.5780    0.9304 H         1 <0>         0.1471
     43 H16        -0.0098   -8.1302   -3.3408 H         1 <0>         0.1496
     44 H17        -0.4837  -13.8176   -0.0722 H         1 <0>         0.1862
     45 H18         4.3446   -0.7339   -1.0673 H         1 <0>         0.3875
@<TRIPOS>BOND
     1    1    6 ar
     2    1    2 ar
     3    1   28 1
     4    2    3 ar
     5    2   29 1
     6    3    4 ar
     7    3   30 1
     8    4    5 ar
     9    4   27 1
    10    5    6 ar
    11    5    7 1
    12    6   31 1
    13    7   12 1
    14    7    8 1
    15    8    9 1
    16    8   32 1
    17    8   33 1
    18    9   10 1
    19    9   34 1
    20    9   35 1
    21   10   11 1
    22   10   13 am
    23   11   12 1
    24   11   36 1
    25   11   37 1
    26   12   38 1
    27   12   39 1
    28   13   14 2
    29   13   15 am
    30   15   16 1
    31   15   40 1
    32   16   21 ar
    33   16   17 ar
    34   17   18 ar
    35   17   41 1
    36   18   19 ar
    37   18   42 1
    38   19   20 ar
    39   19   23 1
    40   20   21 ar
    41   20   22 1
    42   21   43 1
    43   23   24 1
    44   24   25 1
    45   24   26 1
    46   24   44 1
    47   27   45 1
@<TRIPOS>MOLECULE
ZINC63803344
   44    45     0     0     0
SMALL
USER_CHARGES

@<TRIPOS>ATOM
      1 C1         -0.5509    0.4253   -0.4615 C.3       1 <0>        -0.1198
      2 C2         -0.4268   -1.0534   -0.1987 C.ar      1 <0>        -0.1109
      3 C3         -0.1727   -1.9191   -1.2427 C.ar      1 <0>        -0.0286
      4 C4         -0.0576   -3.2882   -0.9975 C.ar      1 <0>        -0.1605
      5 C5         -0.2006   -3.7725    0.3041 C.ar      1 <0>         0.0402
      6 C6         -0.4544   -2.8962    1.3387 C.ar      1 <0>        -0.6851
      7 C7         -0.5622   -1.5393    1.0895 C.ar      1 <0>         0.0512
      8 C8         -0.8339   -0.5872    2.2256 C.3       1 <0>        -0.1863
      9 S1         -0.6352   -3.5052    2.9822 S.o2      1 <0>         2.6947
     10 O1         -0.5308   -4.9202    2.9047 O.2       1 <0>        -0.9462
     11 O2          0.2211   -2.7218    3.8021 O.2       1 <0>        -0.9478
     12 N1         -2.1849   -3.1705    3.4606 N.pl3     1 <0>        -1.0025
     13 C9         -3.2824   -4.0540    3.0593 C.3       1 <0>         0.0903
     14 C10        -2.4583   -1.9909    4.2852 C.3       1 <0>         0.0724
     15 C11         0.2140   -4.2216   -2.1111 C.2       1 <0>         0.5616
     16 O3          0.3138   -5.4137   -1.8945 O.2       1 <0>        -0.5030
     17 N2          0.3511   -3.7509   -3.3665 N.am      1 <0>        -0.6609
     18 C12         0.4957   -4.6426   -4.4367 C.ar      1 <0>         0.1387
     19 C13         0.0024   -5.9355   -4.3362 C.ar      1 <0>        -0.1118
     20 C14         0.1466   -6.8140   -5.3944 C.ar      1 <0>        -0.0204
     21 C15         0.7825   -6.4067   -6.5540 C.ar      1 <0>        -0.1113
     22 C16         1.2766   -5.1199   -6.6602 C.ar      1 <0>        -0.1083
     23 C17         1.1302   -4.2320   -5.6070 C.ar      1 <0>         0.0787
     24 O4          1.6105   -2.9641   -5.7128 O.3       1 <0>        -0.4925
     25 Cl1        -0.4710   -8.4315   -5.2676 Cl        1 <0>        -0.0565
     26 H1          0.4300    0.8930   -0.3767 H         1 <0>         0.0790
     27 H2         -0.9436    0.5842   -1.4658 H         1 <0>         0.0733
     28 H3         -1.2289    0.8683    0.2680 H         1 <0>         0.0765
     29 H4         -0.0635   -1.5381   -2.2473 H         1 <0>         0.1354
     30 H5         -0.1130   -4.8309    0.5005 H         1 <0>         0.1594
     31 H6         -1.9102   -0.4796    2.3599 H         1 <0>         0.0971
     32 H7         -0.3907   -0.9784    3.1413 H         1 <0>         0.1066
     33 H8         -0.3973    0.3851    1.9971 H         1 <0>         0.0938
     34 H9         -3.3544   -4.8855    3.7604 H         1 <0>         0.0664
     35 H10        -4.2181   -3.4950    3.0613 H         1 <0>         0.0793
     36 H11        -3.0913   -4.4389    2.0576 H         1 <0>         0.0686
     37 H12        -2.7426   -1.1570    3.6435 H         1 <0>         0.0622
     38 H13        -3.2718   -2.2113    4.9764 H         1 <0>         0.0801
     39 H14        -1.5638   -1.7267    4.8493 H         1 <0>         0.0888
     40 H15         0.3495   -2.7946   -3.5289 H         1 <0>         0.4169
     41 H16        -0.4936   -6.2557   -3.4319 H         1 <0>         0.1620
     42 H17         0.8934   -7.0960   -7.3780 H         1 <0>         0.1416
     43 H18         1.7727   -4.8053   -7.5664 H         1 <0>         0.1452
     44 H19         2.5254   -2.8641   -5.4162 H         1 <0>         0.3924
@<TRIPOS>BOND
     1    1    2 1
     2    1   26 1
     3    1   27 1
     4    1   28 1
     5    2    7 ar
     6    2    3 ar
     7    3    4 ar
     8    3   29 1
     9    4    5 ar
    10    4   15 1
    11    5    6 ar
    12    5   30 1
    13    6    7 ar
    14    6    9 1
    15    7    8 1
    16    8   31 1
    17    8   32 1
    18    8   33 1
    19    9   10 2
    20    9   11 2
    21    9   12 1
    22   12   13 1
    23   12   14 1
    24   13   34 1
    25   13   35 1
    26   13   36 1
    27   14   37 1
    28   14   38 1
    29   14   39 1
    30   15   16 2
    31   15   17 am
    32   17   18 1
    33   17   40 1
    34   18   23 ar
    35   18   19 ar
    36   19   20 ar
    37   19   41 1
    38   20   21 ar
    39   20   25 1
    40   21   22 ar
    41   21   42 1
    42   22   23 ar
    43   22   43 1
    44   23   24 1
    45   24   44 1
@<TRIPOS>MOLECULE
ZINC01225210
   47    50     0     0     0
SMALL
USER_CHARGES
ethyl amino-(1-phenylethyl)BLAHcarboxylate
@<TRIPOS>ATOM
      1 C1          8.2011   -2.0800   -1.3531 C.3       1 <0>        -0.1519
      2 C2          7.7588   -1.4203   -0.0454 C.3       1 <0>         0.0574
      3 O1          6.9509   -0.2784   -0.3374 O.3       1 <0>        -0.3480
      4 C3          6.4762    0.4213    0.7143 C.2       1 <0>         0.5666
      5 O2          6.7420    0.0700    1.8488 O.2       1 <0>        -0.4947
      6 C4          5.6686    1.5644    0.4979 C.2       1 <0>        -0.3136
      7 C5          4.2015    1.5974    0.3787 C.ar      1 <0>         0.1789
      8 C6          3.8618    3.0065    0.1626 C.ar      1 <0>         0.3005
      9 N1          2.6006    3.3530    0.0178 N.ar      1 <0>        -0.4375
     10 C7          1.6422    2.4190    0.0686 C.ar      1 <0>         0.0968
     11 C8          0.2912    2.7812   -0.0855 C.ar      1 <0>        -0.0861
     12 C9         -0.6761    1.8261   -0.0330 C.ar      1 <0>        -0.1003
     13 C10        -0.3499    0.4857    0.1666 C.ar      1 <0>        -0.1031
     14 C11         0.9442    0.0978    0.3255 C.ar      1 <0>        -0.0814
     15 C12         1.9732    1.0570    0.2772 C.ar      1 <0>         0.0902
     16 N2          3.2507    0.6862    0.4263 N.ar      1 <0>        -0.4197
     17 N3          5.0479    3.7118    0.1607 N.pl3     1 <0>        -0.4781
     18 C13         6.1053    2.8783    0.3554 C.2       1 <0>         0.4949
     19 N4          7.4152    3.2762    0.4048 N.pl3     1 <0>        -0.8258
     20 C14         5.1540    5.1610   -0.0258 C.3       1 <0>         0.1823
     21 H1          6.2046    5.4417   -0.1009 H         1 <0>         0.1038
     22 C15         4.4253    5.5647   -1.3091 C.3       1 <0>        -0.1671
     23 C16         4.5285    5.8659    1.1501 C.ar      1 <0>        -0.1226
     24 C17         3.1583    5.8286    1.3293 C.ar      1 <0>        -0.0967
     25 C18         2.5849    6.4716    2.4104 C.ar      1 <0>        -0.1225
     26 C19         3.3808    7.1595    3.3072 C.ar      1 <0>        -0.1066
     27 C20         4.7505    7.2011    3.1251 C.ar      1 <0>        -0.1244
     28 C21         5.3243    6.5545    2.0464 C.ar      1 <0>        -0.1025
     29 H2          7.3226   -2.3914   -1.9183 H         1 <0>         0.0669
     30 H3          8.7784   -1.3675   -1.9424 H         1 <0>         0.0651
     31 H4          8.8174   -2.9510   -1.1304 H         1 <0>         0.0791
     32 H5          8.6373   -1.1089    0.5197 H         1 <0>         0.0665
     33 H6          7.1816   -2.1328    0.5438 H         1 <0>         0.0683
     34 H7          0.0228    3.8150   -0.2455 H         1 <0>         0.1369
     35 H8         -1.7113    2.1099   -0.1523 H         1 <0>         0.1347
     36 H9         -1.1357   -0.2544    0.1999 H         1 <0>         0.1348
     37 H10         1.1817   -0.9438    0.4838 H         1 <0>         0.1384
     38 H11         7.6370    4.2198    0.3705 H         1 <0>         0.4103
     39 H12         8.1208    2.6142    0.4741 H         1 <0>         0.4278
     40 H13         4.8778    5.0549   -2.1597 H         1 <0>         0.0673
     41 H14         3.3747    5.2840   -1.2341 H         1 <0>         0.0852
     42 H15         4.5043    6.6430   -1.4479 H         1 <0>         0.0835
     43 H16         2.5361    5.2944    0.6266 H         1 <0>         0.1532
     44 H17         1.5149    6.4388    2.5529 H         1 <0>         0.1242
     45 H18         2.9326    7.6640    4.1503 H         1 <0>         0.1238
     46 H19         5.3723    7.7385    3.8257 H         1 <0>         0.1249
     47 H20         6.3944    6.5871    1.9041 H         1 <0>         0.1205
@<TRIPOS>BOND
     1    1    2 1
     2    1   29 1
     3    1   30 1
     4    1   31 1
     5    2    3 1
     6    2   32 1
     7    2   33 1
     8    3    4 1
     9    4    5 2
    10    4    6 1
    11    6   18 2
    12    6    7 1
    13    7   16 ar
    14    7    8 ar
    15    8    9 ar
    16    8   17 1
    17    9   10 ar
    18   10   15 ar
    19   10   11 ar
    20   11   12 ar
    21   11   34 1
    22   12   13 ar
    23   12   35 1
    24   13   14 ar
    25   13   36 1
    26   14   15 ar
    27   14   37 1
    28   15   16 ar
    29   17   18 1
    30   17   20 1
    31   18   19 1
    32   19   38 1
    33   19   39 1
    34   20   21 1
    35   20   22 1
    36   20   23 1
    37   22   40 1
    38   22   41 1
    39   22   42 1
    40   23   28 ar
    41   23   24 ar
    42   24   25 ar
    43   24   43 1
    44   25   26 ar
    45   25   44 1
    46   26   27 ar
    47   26   45 1
    48   27   28 ar
    49   27   46 1
    50   28   47 1
@<TRIPOS>MOLECULE
ZINC12623286
   53    55     0     0     0
SMALL
USER_CHARGES
[(1R)-2-[[(1R,2R,3R)-2,3-dimethylcyclohexyl]amino]-1-methyl-2-oxo-ethyl] 1-oxo-2H-isoquinoline-3-carboxylate
@<TRIPOS>ATOM
      1 C1          4.1831   -7.4450    1.4690 C.3       1 <0>        -0.1581
      2 C2          5.5225   -6.8041    1.8381 C.3       1 <0>        -0.0822
      3 H1          6.3363   -7.4620    1.5331 H         1 <0>         0.0760
      4 C3          5.5833   -6.5853    3.3512 C.3       1 <0>        -0.1179
      5 C4          4.4410   -5.6619    3.7793 C.3       1 <0>        -0.1194
      6 C5          4.5771   -4.3166    3.0635 C.3       1 <0>        -0.1305
      7 C6          4.5162   -4.5354    1.5504 C.3       1 <0>         0.1496
      8 H2          3.5620   -4.9920    1.2875 H         1 <0>         0.0955
      9 C7          5.6586   -5.4588    1.1223 C.3       1 <0>        -0.0930
     10 H3          6.6128   -5.0022    1.3853 H         1 <0>         0.0763
     11 C8          5.5977   -5.6776   -0.3907 C.3       1 <0>        -0.1513
     12 N1          4.6465   -3.2472    0.8651 N.am      1 <0>        -0.7187
     13 C9          3.5590   -2.4761    0.6671 C.2       1 <0>         0.5183
     14 O1          2.4725   -2.8487    1.0564 O.2       1 <0>        -0.5119
     15 C10         3.6931   -1.1510   -0.0379 C.3       1 <0>         0.0730
     16 H4          4.4396   -0.5420    0.4720 H         1 <0>         0.1160
     17 C11         4.1287   -1.3854   -1.4858 C.3       1 <0>        -0.1676
     18 O2          2.4145   -0.4630   -0.0225 O.3       1 <0>        -0.3263
     19 C12         2.4448    0.8847   -0.0160 C.2       1 <0>         0.5107
     20 O3          3.5105    1.4686   -0.0231 O.2       1 <0>        -0.4797
     21 C13         1.1859    1.6496   -0.0004 C.2       1 <0>         0.1033
     22 C14         1.2405    3.0054    0.0063 C.2       1 <0>        -0.0894
     23 C15        -0.0038    3.7742    0.0218 C.ar      1 <0>        -0.0212
     24 C16        -0.0056    5.1703    0.0289 C.ar      1 <0>        -0.1058
     25 C17        -1.2052    5.8481    0.0439 C.ar      1 <0>        -0.0861
     26 C18        -2.4094    5.1574    0.0513 C.ar      1 <0>        -0.1194
     27 C19        -2.4310    3.7786    0.0441 C.ar      1 <0>        -0.0527
     28 C20        -1.2311    3.0718    0.0293 C.ar      1 <0>        -0.1329
     29 C21        -1.1987    1.6021    0.0165 C.2       1 <0>         0.5520
     30 O4         -2.2363    0.9652    0.0186 O.2       1 <0>        -0.5154
     31 N2         -0.0111    0.9658    0.0074 N.am      1 <0>        -0.6237
     32 H5          0.0021   -0.0041    0.0020 H         1 <0>         0.4254
     33 H6          3.3692   -6.7872    1.7740 H         1 <0>         0.0613
     34 H7          4.1397   -7.6009    0.3911 H         1 <0>         0.0584
     35 H8          4.0861   -8.4035    1.9790 H         1 <0>         0.0565
     36 H9          6.5375   -6.1287    3.6141 H         1 <0>         0.0631
     37 H10         5.4864   -7.5437    3.8611 H         1 <0>         0.0660
     38 H11         4.4843   -5.5060    4.8572 H         1 <0>         0.0657
     39 H12         3.4868   -6.1185    3.5163 H         1 <0>         0.0685
     40 H13         5.5313   -3.8600    3.3265 H         1 <0>         0.0645
     41 H14         3.7632   -3.6588    3.3685 H         1 <0>         0.0674
     42 H15         5.6947   -4.7192   -0.9007 H         1 <0>         0.0540
     43 H16         6.4116   -6.3355   -0.6957 H         1 <0>         0.0592
     44 H17         4.6435   -6.1342   -0.6537 H         1 <0>         0.0610
     45 H18         5.5156   -2.9492    0.5537 H         1 <0>         0.4010
     46 H19         5.0885   -1.9019   -1.4973 H         1 <0>         0.0853
     47 H20         3.3822   -1.9944   -1.9957 H         1 <0>         0.0769
     48 H21         4.2257   -0.4269   -1.9957 H         1 <0>         0.0788
     49 H22         2.1942    3.5123    0.0007 H         1 <0>         0.1670
     50 H23         0.9268    5.7152    0.0236 H         1 <0>         0.1396
     51 H24        -1.2086    6.9281    0.0497 H         1 <0>         0.1351
     52 H25        -3.3396    5.7061    0.0631 H         1 <0>         0.1357
     53 H26        -3.3728    3.2501    0.0503 H         1 <0>         0.1423
@<TRIPOS>BOND
     1    1    2 1
     2    1   33 1
     3    1   34 1
     4    1   35 1
     5    2    3 1
     6    2    9 1
     7    2    4 1
     8    4    5 1
     9    4   36 1
    10    4   37 1
    11    5    6 1
    12    5   38 1
    13    5   39 1
    14    6    7 1
    15    6   40 1
    16    6   41 1
    17    7    8 1
    18    7    9 1
    19    7   12 1
    20    9   10 1
    21    9   11 1
    22   11   42 1
    23   11   43 1
    24   11   44 1
    25   12   13 am
    26   12   45 1
    27   13   14 2
    28   13   15 1
    29   15   16 1
    30   15   17 1
    31   15   18 1
    32   17   46 1
    33   17   47 1
    34   17   48 1
    35   18   19 1
    36   19   20 2
    37   19   21 1
    38   21   31 1
    39   21   22 2
    40   22   23 1
    41   22   49 1
    42   23   28 ar
    43   23   24 ar
    44   24   25 ar
    45   24   50 1
    46   25   26 ar
    47   25   51 1
    48   26   27 ar
    49   26   52 1
    50   27   28 ar
    51   27   53 1
    52   28   29 1
    53   29   30 2
    54   29   31 am
    55   31   32 1
@<TRIPOS>MOLECULE
ZINC02309263
   45    47     0     0     0
SMALL
USER_CHARGES

@<TRIPOS>ATOM
      1 C1          0.1678    1.2155   -0.0724 C.3       1 <0>        -0.1442
      2 C2          0.1011   -0.3103   -0.1638 C.3       1 <0>        -0.0935
      3 H1          0.5483   -0.6380   -1.1023 H         1 <0>         0.1362
      4 C3          0.8561   -0.9163    0.9911 C.2       1 <0>         0.4834
      5 O1          0.2566   -1.3217    1.9586 O.2       1 <0>        -0.4845
      6 O2          2.1946   -1.0055    0.9449 O.3       1 <0>        -0.3436
      7 C4          2.8451   -1.5909    2.0746 C.3       1 <0>         0.0321
      8 S1         -1.6313   -0.8447   -0.1006 S.3       1 <0>         0.1018
      9 C5         -2.3350   -0.1850   -1.5752 C.ar      1 <0>         0.3528
     10 N1         -1.5703    0.5138   -2.4063 N.ar      1 <0>        -0.5963
     11 C6         -2.0418    1.0325   -3.5272 C.ar      1 <0>         0.5068
     12 C7         -3.4120    0.8402   -3.8613 C.ar      1 <0>        -0.2510
     13 C8         -4.1449    1.3131   -5.0344 C.2       1 <0>        -0.0671
     14 C9         -5.4534    0.9899   -5.1134 C.2       1 <0>        -0.2076
     15 S2         -5.7858    0.0500   -3.6506 S.3       1 <0>         0.1538
     16 C10        -4.1631    0.0900   -2.9334 C.ar      1 <0>         0.1606
     17 N2         -3.6172   -0.4000   -1.8373 N.ar      1 <0>        -0.4960
     18 C11        -6.3930    1.3627   -6.2182 C.3       1 <0>         0.1459
     19 O3         -5.6088    1.8402   -7.3229 O.3       1 <0>        -0.3591
     20 C12        -4.6261    2.8089   -6.9471 C.3       1 <0>         0.0957
     21 H2         -5.0944    3.5806   -6.3361 H         1 <0>         0.0675
     22 C13        -3.5046    2.1390   -6.1476 C.3       1 <0>        -0.1005
     23 C14        -4.0360    3.4474   -8.2060 C.3       1 <0>        -0.0892
     24 C15        -5.1500    4.1311   -9.0013 C.3       1 <0>        -0.1464
     25 C16        -2.9841    4.4844   -7.8069 C.3       1 <0>        -0.1508
     26 N3         -1.2127    1.7547   -4.3660 N.pl3     1 <0>        -0.8278
     27 H3          1.2087    1.5365   -0.1104 H         1 <0>         0.0784
     28 H4         -0.3783    1.6537   -0.9078 H         1 <0>         0.0916
     29 H5         -0.2795    1.5431    0.8660 H         1 <0>         0.0720
     30 H6          3.9223   -1.6020    1.9082 H         1 <0>         0.1074
     31 H7          2.6212   -1.0056    2.9664 H         1 <0>         0.0648
     32 H8          2.4881   -2.6117    2.2108 H         1 <0>         0.0651
     33 H9         -6.9675    0.4885   -6.5245 H         1 <0>         0.1172
     34 H10        -7.0683    2.1481   -5.8787 H         1 <0>         0.0809
     35 H11        -2.8560    2.9005   -5.7145 H         1 <0>         0.0896
     36 H12        -2.9239    1.4883   -6.8014 H         1 <0>         0.0923
     37 H13        -3.5712    2.6766   -8.8208 H         1 <0>         0.0813
     38 H14        -5.6147    4.9020   -8.3866 H         1 <0>         0.0535
     39 H15        -4.7296    4.5860   -9.8982 H         1 <0>         0.0573
     40 H16        -5.8994    3.3924   -9.2856 H         1 <0>         0.0653
     41 H17        -2.1904    3.9973   -7.2404 H         1 <0>         0.0554
     42 H18        -2.5637    4.9392   -8.7038 H         1 <0>         0.0657
     43 H19        -3.4488    5.2552   -7.1922 H         1 <0>         0.0588
     44 H20        -0.3256    2.0105   -4.0685 H         1 <0>         0.4105
     45 H21        -1.5183    2.0054   -5.2518 H         1 <0>         0.4139
@<TRIPOS>BOND
     1    1    2 1
     2    1   27 1
     3    1   28 1
     4    1   29 1
     5    2    3 1
     6    2    4 1
     7    2    8 1
     8    4    5 2
     9    4    6 1
    10    6    7 1
    11    7   30 1
    12    7   31 1
    13    7   32 1
    14    8    9 1
    15    9   17 ar
    16    9   10 ar
    17   10   11 ar
    18   11   12 ar
    19   11   26 1
    20   12   16 ar
    21   12   13 1
    22   13   22 1
    23   13   14 2
    24   14   15 1
    25   14   18 1
    26   15   16 1
    27   16   17 ar
    28   18   19 1
    29   18   33 1
    30   18   34 1
    31   19   20 1
    32   20   21 1
    33   20   22 1
    34   20   23 1
    35   22   35 1
    36   22   36 1
    37   23   24 1
    38   23   25 1
    39   23   37 1
    40   24   38 1
    41   24   39 1
    42   24   40 1
    43   25   41 1
    44   25   42 1
    45   25   43 1
    46   26   44 1
    47   26   45 1
@<TRIPOS>MOLECULE
ZINC40780425
   46    49     0     0     0
SMALL
USER_CHARGES

@<TRIPOS>ATOM
      1 C1          0.6208    0.2085   -1.0647 C.3       1 <0>         0.0249
      2 O1         -0.0147    0.0016    0.1984 O.3       1 <0>        -0.3142
      3 C2         -1.2153   -0.6367    0.1882 C.ar      1 <0>         0.1357
      4 C3         -1.7658   -1.0594   -1.0127 C.ar      1 <0>        -0.1950
      5 C4         -2.9853   -1.7078   -1.0232 C.ar      1 <0>        -0.0712
      6 C5         -3.6596   -1.9362    0.1675 C.ar      1 <0>         0.0540
      7 C6         -3.1089   -1.5134    1.3685 C.ar      1 <0>        -0.0707
      8 C7         -1.8867   -0.8701    1.3793 C.ar      1 <0>        -0.1384
      9 O2         -4.8603   -2.5741    0.1572 O.3       1 <0>        -0.2433
     10 C8         -4.8649   -3.9204   -0.0096 C.ar      1 <0>         0.2945
     11 C9         -6.0683   -4.6149   -0.1266 C.ar      1 <0>         0.1265
     12 C10        -6.0165   -6.0005   -0.2973 C.ar      1 <0>         0.3460
     13 N1         -4.8294   -6.6001   -0.3414 N.ar      1 <0>        -0.4989
     14 C11        -3.7159   -5.9052   -0.2267 C.ar      1 <0>         0.2817
     15 N2         -3.7218   -4.5968   -0.0695 N.ar      1 <0>        -0.5204
     16 N3         -7.1866   -6.7413   -0.4187 N.pl3     1 <0>        -0.5725
     17 C12        -7.8104   -6.9418   -1.7338 C.3       1 <0>         0.1318
     18 C13        -9.3192   -6.7112   -1.5769 C.3       1 <0>        -0.1345
     19 C14        -9.8834   -7.7653   -0.6246 C.3       1 <0>        -0.0742
     20 C15        -9.0824   -7.8072    0.6499 C.ar      1 <0>        -0.1391
     21 C16        -7.7868   -7.3133    0.7093 C.ar      1 <0>         0.2112
     22 C17        -7.0702   -7.3763    1.8991 C.ar      1 <0>        -0.1698
     23 C18        -7.6456   -7.9337    3.0236 C.ar      1 <0>        -0.0825
     24 C19        -8.9353   -8.4288    2.9648 C.ar      1 <0>        -0.1599
     25 C20        -9.6553   -8.3584    1.7834 C.ar      1 <0>        -0.0814
     26 N4         -7.2978   -3.9406   -0.0738 N.pl3     1 <0>        -0.8495
     27 H1          1.5679    0.7267   -0.9144 H         1 <0>         0.1031
     28 H2          0.8051   -0.7546   -1.5407 H         1 <0>         0.0579
     29 H3         -0.0259    0.8111   -1.7024 H         1 <0>         0.0573
     30 H4         -1.2410   -0.8813   -1.9397 H         1 <0>         0.1352
     31 H5         -3.4141   -2.0366   -1.9583 H         1 <0>         0.1273
     32 H6         -3.6340   -1.6909    2.2954 H         1 <0>         0.1365
     33 H7         -1.4560   -0.5448    2.3147 H         1 <0>         0.1400
     34 H8         -2.7691   -6.4232   -0.2669 H         1 <0>         0.2014
     35 H9         -7.4004   -6.2291   -2.4494 H         1 <0>         0.0785
     36 H10        -7.6264   -7.9594   -2.0783 H         1 <0>         0.0703
     37 H11        -9.4959   -5.7168   -1.1670 H         1 <0>         0.0684
     38 H12        -9.8050   -6.7994   -2.5486 H         1 <0>         0.0850
     39 H13       -10.9198   -7.5218   -0.3909 H         1 <0>         0.0786
     40 H14        -9.8460   -8.7426   -1.1059 H         1 <0>         0.0760
     41 H15        -6.0629   -6.9894    1.9436 H         1 <0>         0.1145
     42 H16        -7.0890   -7.9833    3.9478 H         1 <0>         0.1215
     43 H17        -9.3858   -8.8641    3.8446 H         1 <0>         0.1209
     44 H18       -10.6623   -8.7465    1.7422 H         1 <0>         0.1237
     45 H19        -7.3183   -2.9715   -0.0360 H         1 <0>         0.4083
     46 H20        -8.1272   -4.4435   -0.0750 H         1 <0>         0.4047
@<TRIPOS>BOND
     1    1    2 1
     2    1   27 1
     3    1   28 1
     4    1   29 1
     5    2    3 1
     6    3    8 ar
     7    3    4 ar
     8    4    5 ar
     9    4   30 1
    10    5    6 ar
    11    5   31 1
    12    6    7 ar
    13    6    9 1
    14    7    8 ar
    15    7   32 1
    16    8   33 1
    17    9   10 1
    18   10   15 ar
    19   10   11 ar
    20   11   12 ar
    21   11   26 1
    22   12   13 ar
    23   12   16 1
    24   13   14 ar
    25   14   15 ar
    26   14   34 1
    27   16   21 1
    28   16   17 1
    29   17   18 1
    30   17   35 1
    31   17   36 1
    32   18   19 1
    33   18   37 1
    34   18   38 1
    35   19   20 1
    36   19   39 1
    37   19   40 1
    38   20   25 ar
    39   20   21 ar
    40   21   22 ar
    41   22   23 ar
    42   22   41 1
    43   23   24 ar
    44   23   42 1
    45   24   25 ar
    46   24   43 1
    47   25   44 1
    48   26   45 1
    49   26   46 1
@<TRIPOS>MOLECULE
ZINC20530724
   45    48     0     0     0
SMALL
USER_CHARGES

@<TRIPOS>ATOM
      1 C1         -0.3171    1.3316   -0.0459 C.ar      1 <0>        -0.0952
      2 C2          0.8111    2.1208   -0.1128 C.ar      1 <0>        -0.1093
      3 C3          2.0725    1.5364   -0.1642 C.ar      1 <0>        -0.0504
      4 C4          2.1952    0.1597   -0.1483 C.ar      1 <0>        -0.1568
      5 C5          1.0468   -0.6480   -0.0801 C.ar      1 <0>        -0.0743
      6 C6         -0.2056   -0.0533   -0.0293 C.ar      1 <0>        -0.0831
      7 C7          1.4765   -2.0669   -0.0783 C.2       1 <0>         0.3067
      8 N1          0.6398   -3.1489   -0.0212 N.pl3     1 <0>        -0.7358
      9 C8         -0.3103   -3.2825    1.0859 C.3       1 <0>         0.3263
     10 H1         -0.3972   -2.3291    1.6070 H         1 <0>         0.0979
     11 C9         -1.6793   -3.6900    0.5365 C.3       1 <0>        -0.1646
     12 C10        -2.6638   -3.8480    1.6986 C.3       1 <0>        -0.1178
     13 C11        -2.1180   -4.8872    2.6818 C.3       1 <0>        -0.1620
     14 C12        -0.7363   -4.4450    3.1690 C.3       1 <0>         0.0630
     15 N2          0.1685   -4.3091    2.0204 N.3       1 <0>        -0.6966
     16 C13         2.8565   -2.1240   -0.1438 C.2       1 <0>        -0.2540
     17 H2          0.6760   -3.8271   -0.7138 H         1 <0>         0.4068
     18 C14         3.3732   -0.7507   -0.1905 C.2       1 <0>         0.4500
     19 O1          4.5409   -0.4193   -0.2524 O.2       1 <0>        -0.4196
     20 C15         3.6725   -3.3576   -0.1631 C.ar      1 <0>         0.0476
     21 C16         3.6825   -4.2087    0.9431 C.ar      1 <0>        -0.0916
     22 C17         4.4454   -5.3579    0.9185 C.ar      1 <0>        -0.0546
     23 C18         5.1998   -5.6673   -0.1993 C.ar      1 <0>        -0.0511
     24 C19         5.1946   -4.8276   -1.2991 C.ar      1 <0>        -0.0546
     25 C20         4.4313   -3.6785   -1.2898 C.ar      1 <0>        -0.1037
     26 N3          6.0165   -6.9020   -0.2186 N.pl3     1 <0>         0.0337
     27 O2          6.0233   -7.6374    0.7410 O.2       1 <0>        -0.1596
     28 O3          6.6767   -7.1749   -1.1940 O.3       1 <0>        -0.1606
     29 H3         -1.2928    1.7924   -0.0017 H         1 <0>         0.1361
     30 H4          0.7153    3.1964   -0.1256 H         1 <0>         0.1378
     31 H5          2.9545    2.1575   -0.2169 H         1 <0>         0.1369
     32 H6         -1.0932   -0.6664    0.0235 H         1 <0>         0.1299
     33 H7         -2.0416   -2.9205   -0.1452 H         1 <0>         0.0746
     34 H8         -1.5905   -4.6366    0.0035 H         1 <0>         0.0683
     35 H9         -2.7825   -2.8917    2.2080 H         1 <0>         0.0667
     36 H10        -3.6288   -4.1802    1.3159 H         1 <0>         0.0690
     37 H11        -2.7936   -4.9730    3.5328 H         1 <0>         0.0732
     38 H12        -2.0361   -5.8527    2.1826 H         1 <0>         0.0641
     39 H13        -0.8211   -3.4861    3.6802 H         1 <0>         0.0758
     40 H14        -0.3387   -5.1899    3.8583 H         1 <0>         0.0821
     41 H15         0.2942   -5.1940    1.5522 H         1 <0>         0.3428
     42 H16         3.0946   -3.9679    1.8165 H         1 <0>         0.1538
     43 H17         4.4540   -6.0173    1.7738 H         1 <0>         0.1538
     44 H18         5.7863   -5.0745   -2.1682 H         1 <0>         0.1539
     45 H19         4.4244   -3.0264   -2.1507 H         1 <0>         0.1446
@<TRIPOS>BOND
     1    1    6 ar
     2    1    2 ar
     3    1   29 1
     4    2    3 ar
     5    2   30 1
     6    3    4 ar
     7    3   31 1
     8    4    5 ar
     9    4   18 1
    10    5    6 ar
    11    5    7 1
    12    6   32 1
    13    7   16 2
    14    7    8 1
    15    8    9 1
    16    8   17 1
    17    9   10 1
    18    9   15 1
    19    9   11 1
    20   11   12 1
    21   11   33 1
    22   11   34 1
    23   12   13 1
    24   12   35 1
    25   12   36 1
    26   13   14 1
    27   13   37 1
    28   13   38 1
    29   14   15 1
    30   14   39 1
    31   14   40 1
    32   15   41 1
    33   16   18 1
    34   16   20 1
    35   18   19 2
    36   20   25 ar
    37   20   21 ar
    38   21   22 ar
    39   21   42 1
    40   22   23 ar
    41   22   43 1
    42   23   24 ar
    43   23   26 1
    44   24   25 ar
    45   24   44 1
    46   25   45 1
    47   26   27 2
    48   26   28 1
@<TRIPOS>MOLECULE
ZINC00876829
   53    56     0     0     0
SMALL
USER_CHARGES
2-(3,5-dimethylphenyl)imino-7-hydroxy-N-(tetrahydrofuran-2-ylmethyl)chromene-3-carboxamide
@<TRIPOS>ATOM
      1 C1         -6.9479    5.5932   -2.0386 C.3       1 <0>        -0.1142
      2 C2         -6.6007    4.8148   -0.7957 C.ar      1 <0>        -0.0649
      3 C3         -7.4940    4.7659    0.2600 C.ar      1 <0>        -0.1337
      4 C4         -7.1833    4.0544    1.4055 C.ar      1 <0>        -0.0653
      5 C5         -5.9797    3.3880    1.5023 C.ar      1 <0>        -0.1362
      6 C6         -5.0731    3.4325    0.4401 C.ar      1 <0>         0.1011
      7 C7         -5.3913    4.1573   -0.7112 C.ar      1 <0>        -0.1301
      8 N1         -3.8777    2.7746    0.5292 N.2       1 <0>        -0.4262
      9 C8         -3.7575    1.5592    0.0396 C.2       1 <0>         0.3850
     10 C9         -2.4523    0.8706    0.0172 C.2       1 <0>        -0.1657
     11 C10        -2.4630   -0.5173    0.0166 C.2       1 <0>         0.0169
     12 C11        -3.7179   -1.1772   -0.0011 C.ar      1 <0>        -0.1674
     13 C12        -3.7929   -2.5642    0.1988 C.ar      1 <0>        -0.0310
     14 C13        -5.0081   -3.1826    0.2212 C.ar      1 <0>        -0.1699
     15 C14        -6.1790   -2.4481    0.0399 C.ar      1 <0>         0.1739
     16 C15        -6.1236   -1.0798   -0.1785 C.ar      1 <0>        -0.1698
     17 C16        -4.8975   -0.4372   -0.2123 C.ar      1 <0>         0.1663
     18 O1         -4.8289    0.8926   -0.4685 O.3       1 <0>        -0.2641
     19 O2         -7.3811   -3.0765    0.0770 O.3       1 <0>        -0.4911
     20 C17        -1.1892    1.6258    0.0023 C.2       1 <0>         0.5678
     21 O3         -1.2077    2.8420    0.0032 O.2       1 <0>        -0.5002
     22 N2         -0.0120    0.9697   -0.0123 N.am      1 <0>        -0.7232
     23 C18         1.2453    1.7215   -0.0332 C.3       1 <0>         0.1254
     24 C19         2.4230    0.7450   -0.0536 C.3       1 <0>         0.0669
     25 H1          2.3788    0.1184   -0.9444 H         1 <0>         0.0800
     26 C20         3.7644    1.5192   -0.0041 C.3       1 <0>        -0.1488
     27 C21         4.7038    0.4425    0.6045 C.3       1 <0>        -0.1560
     28 C22         3.7591   -0.3116    1.5648 C.3       1 <0>         0.0506
     29 O4          2.4161   -0.0693    1.1297 O.3       1 <0>        -0.3788
     30 C23        -8.1623    4.0080    2.5503 C.3       1 <0>        -0.1143
     31 H2         -6.5989    6.6204   -1.9332 H         1 <0>         0.0726
     32 H3         -6.4671    5.1328   -2.9017 H         1 <0>         0.0661
     33 H4         -8.0287    5.5893   -2.1797 H         1 <0>         0.0680
     34 H5         -8.4380    5.2858    0.1898 H         1 <0>         0.1229
     35 H6         -5.7384    2.8333    2.3970 H         1 <0>         0.1198
     36 H7         -4.6933    4.1997   -1.5342 H         1 <0>         0.1223
     37 H8         -1.5408   -1.0792    0.0288 H         1 <0>         0.1565
     38 H9         -2.8898   -3.1409    0.3340 H         1 <0>         0.1467
     39 H10        -5.0638   -4.2494    0.3805 H         1 <0>         0.1432
     40 H11        -7.0341   -0.5170   -0.3223 H         1 <0>         0.1483
     41 H12        -7.6827   -3.3995   -0.7831 H         1 <0>         0.4026
     42 H13         0.0028   -0.0002   -0.0130 H         1 <0>         0.4008
     43 H14         1.2784    2.3493   -0.9236 H         1 <0>         0.0842
     44 H15         1.3085    2.3485    0.8561 H         1 <0>         0.0781
     45 H16         4.0902    1.8049   -1.0042 H         1 <0>         0.0887
     46 H17         3.6914    2.3902    0.6471 H         1 <0>         0.0850
     47 H18         5.5233    0.9077    1.1523 H         1 <0>         0.0854
     48 H19         5.0827   -0.2242   -0.1701 H         1 <0>         0.0786
     49 H20         3.8913    0.0598    2.5810 H         1 <0>         0.0712
     50 H21         3.9716   -1.3802    1.5312 H         1 <0>         0.0704
     51 H22        -7.9657    4.8368    3.2303 H         1 <0>         0.0723
     52 H23        -9.1781    4.0887    2.1632 H         1 <0>         0.0682
     53 H24        -8.0513    3.0648    3.0853 H         1 <0>         0.0655
@<TRIPOS>BOND
     1    1    2 1
     2    1   31 1
     3    1   32 1
     4    1   33 1
     5    2    7 ar
     6    2    3 ar
     7    3    4 ar
     8    3   34 1
     9    4    5 ar
    10    4   30 1
    11    5    6 ar
    12    5   35 1
    13    6    7 ar
    14    6    8 1
    15    7   36 1
    16    8    9 2
    17    9   18 1
    18    9   10 1
    19   10   11 2
    20   10   20 1
    21   11   12 1
    22   11   37 1
    23   12   17 ar
    24   12   13 ar
    25   13   14 ar
    26   13   38 1
    27   14   15 ar
    28   14   39 1
    29   15   16 ar
    30   15   19 1
    31   16   17 ar
    32   16   40 1
    33   17   18 1
    34   19   41 1
    35   20   21 2
    36   20   22 am
    37   22   23 1
    38   22   42 1
    39   23   24 1
    40   23   43 1
    41   23   44 1
    42   24   25 1
    43   24   29 1
    44   24   26 1
    45   26   27 1
    46   26   45 1
    47   26   46 1
    48   27   28 1
    49   27   47 1
    50   27   48 1
    51   28   29 1
    52   28   49 1
    53   28   50 1
    54   30   51 1
    55   30   52 1
    56   30   53 1
@<TRIPOS>MOLECULE
ZINC06812111
   51    54     0     0     0
SMALL
USER_CHARGES
N-(2,5-dimethylphenyl)-7-ethyl-4-(4-fluorophenyl)-2-thia-5,6,8,9-tetrazabicyclo[4.3.0]nona-7,9-diene-3-carboxamide
@<TRIPOS>ATOM
      1 C1          2.2940    5.2678   -4.3531 C.3       1 <0>        -0.1453
      2 C2          3.3756    5.4520   -3.2867 C.3       1 <0>        -0.0326
      3 C3          2.7590    6.0348   -2.0412 C.2       1 <0>         0.2257
      4 N1          2.6323    7.3031   -1.7619 N.2       1 <0>        -0.2795
      5 N2          2.0570    7.4503   -0.6184 N.2       1 <0>        -0.2448
      6 C4          1.7861    6.2783   -0.1148 C.2       1 <0>         0.1274
      7 N3          2.2296    5.3335   -0.9961 N.pl3     1 <0>        -0.3009
      8 N4          2.1606    3.9848   -0.8529 N.3       1 <0>        -0.4322
      9 C5          1.1270    3.5444    0.0851 C.3       1 <0>         0.1384
     10 H1          0.1519    3.8771   -0.2708 H         1 <0>         0.1364
     11 C6          1.3864    4.1331    1.4780 C.3       1 <0>        -0.1710
     12 H2          0.7494    3.6393    2.2118 H         1 <0>         0.1580
     13 S1          0.9874    5.9071    1.4151 S.3       1 <0>         0.0983
     14 C7          2.8347    3.9450    1.8496 C.2       1 <0>         0.5209
     15 O1          3.6992    4.5388    1.2404 O.2       1 <0>        -0.5068
     16 N5          3.1694    3.1168    2.8589 N.am      1 <0>        -0.6480
     17 C8          4.5043    3.0128    3.2652 C.ar      1 <0>         0.1403
     18 C9          5.5285    3.2436    2.3559 C.ar      1 <0>        -0.1240
     19 C10         6.8449    3.1452    2.7613 C.ar      1 <0>        -0.0706
     20 C11         7.1440    2.8067    4.0685 C.ar      1 <0>        -0.1269
     21 C12         6.1267    2.5712    4.9748 C.ar      1 <0>        -0.0959
     22 C13         4.8079    2.6730    4.5768 C.ar      1 <0>        -0.1139
     23 C14         3.6998    2.4152    5.5651 C.3       1 <0>        -0.1169
     24 C15         7.9568    3.4015    1.7769 C.3       1 <0>        -0.1159
     25 C16         1.1395    2.0398    0.1699 C.ar      1 <0>        -0.1040
     26 C17        -0.0521    1.3414    0.2281 C.ar      1 <0>        -0.0628
     27 C18        -0.0418   -0.0384    0.3059 C.ar      1 <0>        -0.1462
     28 C19         1.1625   -0.7212    0.3255 C.ar      1 <0>         0.1165
     29 C20         2.3554   -0.0206    0.2672 C.ar      1 <0>        -0.1433
     30 C21         2.3426    1.3592    0.1895 C.ar      1 <0>        -0.0750
     31 F1          1.1738   -2.0700    0.4019 F         1 <0>        -0.1320
     32 H3          2.7400    4.8463   -5.2539 H         1 <0>         0.0703
     33 H4          1.5252    4.5923   -3.9779 H         1 <0>         0.0584
     34 H5          1.8463    6.2337   -4.5871 H         1 <0>         0.0632
     35 H6          4.1444    6.1275   -3.6618 H         1 <0>         0.1013
     36 H7          3.8233    4.4861   -3.0527 H         1 <0>         0.0842
     37 H8          3.0604    3.6009   -0.6059 H         1 <0>         0.3682
     38 H9          2.4848    2.5930    3.3037 H         1 <0>         0.4140
     39 H10         5.2956    3.5036    1.3338 H         1 <0>         0.1431
     40 H11         8.1743    2.7257    4.3819 H         1 <0>         0.1251
     41 H12         6.3635    2.3070    5.9948 H         1 <0>         0.1284
     42 H13         3.4340    1.3583    5.5454 H         1 <0>         0.0726
     43 H14         4.0351    2.6870    6.5660 H         1 <0>         0.0748
     44 H15         2.8288    3.0140    5.2986 H         1 <0>         0.0611
     45 H16         8.2258    2.4686    1.2817 H         1 <0>         0.0721
     46 H17         7.6236    4.1250    1.0327 H         1 <0>         0.0672
     47 H18         8.8251    3.7965    2.3043 H         1 <0>         0.0691
     48 H19        -0.9914    1.8740    0.2083 H         1 <0>         0.1427
     49 H20        -0.9729   -0.5838    0.3516 H         1 <0>         0.1451
     50 H21         3.2954   -0.5521    0.2828 H         1 <0>         0.1417
     51 H22         3.2729    1.9059    0.1443 H         1 <0>         0.1240
@<TRIPOS>BOND
     1    1    2 1
     2    1   32 1
     3    1   33 1
     4    1   34 1
     5    2    3 1
     6    2   35 1
     7    2   36 1
     8    3    7 1
     9    3    4 2
    10    4    5 1
    11    5    6 2
    12    6   13 1
    13    6    7 1
    14    7    8 1
    15    8    9 1
    16    8   37 1
    17    9   10 1
    18    9   11 1
    19    9   25 1
    20   11   12 1
    21   11   13 1
    22   11   14 1
    23   14   15 2
    24   14   16 am
    25   16   17 1
    26   16   38 1
    27   17   22 ar
    28   17   18 ar
    29   18   19 ar
    30   18   39 1
    31   19   20 ar
    32   19   24 1
    33   20   21 ar
    34   20   40 1
    35   21   22 ar
    36   21   41 1
    37   22   23 1
    38   23   42 1
    39   23   43 1
    40   23   44 1
    41   24   45 1
    42   24   46 1
    43   24   47 1
    44   25   30 ar
    45   25   26 ar
    46   26   27 ar
    47   26   48 1
    48   27   28 ar
    49   27   49 1
    50   28   29 ar
    51   28   31 1
    52   29   30 ar
    53   29   50 1
    54   30   51 1
@<TRIPOS>MOLECULE
ZINC11694895
   54    57     0     0     0
SMALL
USER_CHARGES
(5R,6S,7R)-N-(2,4-dimethylphenyl)-5-methyl-7-(4-methylsulfanylphenyl)-4,5,6,7-tetrahydro-[1,2,4]triazolo[1,5-a]pyrimidine-6-carboxamide
@<TRIPOS>ATOM
      1 C1         -0.2249   -2.9892    0.4923 C.3       1 <0>        -0.1146
      2 C2          0.8535   -1.9687    0.2340 C.ar      1 <0>        -0.0939
      3 C3          2.1441   -2.2026    0.6724 C.ar      1 <0>        -0.1093
      4 C4          3.1345   -1.2693    0.4377 C.ar      1 <0>        -0.1117
      5 C5          2.8333   -0.0948   -0.2399 C.ar      1 <0>         0.1399
      6 C6          1.5367    0.1366   -0.6796 C.ar      1 <0>        -0.1067
      7 C7          0.5505   -0.8008   -0.4412 C.ar      1 <0>        -0.1041
      8 C8          1.2058    1.4090   -1.4160 C.3       1 <0>        -0.1103
      9 N1          3.8346    0.8527   -0.4798 N.am      1 <0>        -0.6643
     10 C9          4.8256    1.0275    0.4167 C.2       1 <0>         0.5264
     11 O1          4.9118    0.2913    1.3768 O.2       1 <0>        -0.4947
     12 C10         5.8268    2.1376    0.2263 C.3       1 <0>        -0.1391
     13 H1          5.4907    2.7954   -0.5753 H         1 <0>         0.1274
     14 C11         5.9503    2.9413    1.5258 C.3       1 <0>         0.1681
     15 H2          6.7077    3.7160    1.4064 H         1 <0>         0.0919
     16 N2          6.3471    2.0236    2.6113 N.pl3     1 <0>        -0.6931
     17 C12         7.3435    1.1059    2.3055 C.2       1 <0>         0.5527
     18 N3          8.0452    0.3423    3.0989 N.2       1 <0>        -0.5764
     19 C13         8.9011   -0.3869    2.3747 C.2       1 <0>         0.2183
     20 N4          8.7512   -0.0935    1.1073 N.2       1 <0>        -0.3161
     21 N5          7.7462    0.8716    1.0332 N.pl3     1 <0>        -0.4107
     22 C14         7.1892    1.5380   -0.1434 C.3       1 <0>         0.2276
     23 H3          7.8616    2.3320   -0.4685 H         1 <0>         0.1095
     24 C15         7.0151    0.5366   -1.2560 C.ar      1 <0>        -0.1165
     25 C16         6.5378   -0.7307   -0.9749 C.ar      1 <0>        -0.0567
     26 C17         6.3725   -1.6494   -1.9924 C.ar      1 <0>        -0.1303
     27 C18         6.6962   -1.3027   -3.2987 C.ar      1 <0>        -0.0682
     28 C19         7.1806   -0.0300   -3.5766 C.ar      1 <0>        -0.1019
     29 C20         7.3384    0.8851   -2.5547 C.ar      1 <0>        -0.0794
     30 S1          6.4938   -2.4740   -4.5994 S.3       1 <0>        -0.1124
     31 C21         5.8517   -3.9506   -3.7641 C.3       1 <0>        -0.1451
     32 C22         4.6029    3.5831    1.8627 C.3       1 <0>        -0.1646
     33 H4         -0.2645   -3.6941   -0.3381 H         1 <0>         0.0700
     34 H5         -0.0035   -3.5263    1.4146 H         1 <0>         0.0662
     35 H6         -1.1868   -2.4853    0.5873 H         1 <0>         0.0662
     36 H7          2.3777   -3.1160    1.1992 H         1 <0>         0.1227
     37 H8          4.1420   -1.4522    0.7809 H         1 <0>         0.1375
     38 H9         -0.4573   -0.6232   -0.7865 H         1 <0>         0.1253
     39 H10         0.9053    2.1750   -0.7011 H         1 <0>         0.0720
     40 H11         2.0833    1.7494   -1.9658 H         1 <0>         0.0587
     41 H12         0.3894    1.2231   -2.1139 H         1 <0>         0.0712
     42 H13         3.8154    1.3837   -1.2912 H         1 <0>         0.4076
     43 H14         5.9350    2.0592    3.4887 H         1 <0>         0.4268
     44 H15         9.6044   -1.1037    2.7721 H         1 <0>         0.2144
     45 H16         6.2906   -1.0009    0.0411 H         1 <0>         0.1256
     46 H17         5.9958   -2.6375   -1.7729 H         1 <0>         0.1221
     47 H18         7.4335    0.2428   -4.5905 H         1 <0>         0.1324
     48 H19         7.7150    1.8742   -2.7698 H         1 <0>         0.1321
     49 H20         4.9066   -3.7105   -3.2769 H         1 <0>         0.0842
     50 H21         5.6920   -4.7419   -4.4966 H         1 <0>         0.1114
     51 H22         6.5705   -4.2869   -3.0168 H         1 <0>         0.0849
     52 H23         3.8745    2.8033    2.0852 H         1 <0>         0.0685
     53 H24         4.7166    4.2324    2.7308 H         1 <0>         0.0775
     54 H25         4.2576    4.1709    1.0122 H         1 <0>         0.0809
@<TRIPOS>BOND
     1    1    2 1
     2    1   33 1
     3    1   34 1
     4    1   35 1
     5    2    7 ar
     6    2    3 ar
     7    3    4 ar
     8    3   36 1
     9    4    5 ar
    10    4   37 1
    11    5    6 ar
    12    5    9 1
    13    6    7 ar
    14    6    8 1
    15    7   38 1
    16    8   39 1
    17    8   40 1
    18    8   41 1
    19    9   10 am
    20    9   42 1
    21   10   11 2
    22   10   12 1
    23   12   13 1
    24   12   22 1
    25   12   14 1
    26   14   15 1
    27   14   16 1
    28   14   32 1
    29   16   17 1
    30   16   43 1
    31   17   21 1
    32   17   18 2
    33   18   19 1
    34   19   20 2
    35   19   44 1
    36   20   21 1
    37   21   22 1
    38   22   23 1
    39   22   24 1
    40   24   29 ar
    41   24   25 ar
    42   25   26 ar
    43   25   45 1
    44   26   27 ar
    45   26   46 1
    46   27   28 ar
    47   27   30 1
    48   28   29 ar
    49   28   47 1
    50   29   48 1
    51   30   31 1
    52   31   49 1
    53   31   50 1
    54   31   51 1
    55   32   52 1
    56   32   53 1
    57   32   54 1
@<TRIPOS>MOLECULE
ZINC12947039
   48    51     0     0     0
SMALL
USER_CHARGES

@<TRIPOS>ATOM
      1 C1         -0.0187    1.5258    0.0104 C.3       1 <0>        -0.1457
      2 C2          0.0021   -0.0041    0.0020 C.3       1 <0>         0.0868
      3 H1         -1.0203   -0.3820    0.0097 H         1 <0>         0.0704
      4 C3          0.7204   -0.4987   -1.2562 C.3       1 <0>         0.0238
      5 N1          0.8053   -1.9659   -1.2210 N.3       1 <0>        -0.5288
      6 C4          1.5233   -2.4175   -0.0203 C.3       1 <0>         0.0282
      7 C5          0.7969   -1.9037    1.2256 C.3       1 <0>         0.0893
      8 H2          1.3570   -2.1876    2.1166 H         1 <0>         0.1025
      9 O1          0.6954   -0.4786    1.1594 O.3       1 <0>        -0.3770
     10 C6         -0.6050   -2.5134    1.2875 C.3       1 <0>        -0.1737
     11 C7          1.4389   -2.4860   -2.4400 C.3       1 <0>         0.1299
     12 C8          1.2893   -3.9850   -2.4836 C.2       1 <0>         0.0898
     13 C9          0.2758   -4.5759   -3.1630 C.2       1 <0>        -0.2521
     14 S1          0.6258   -6.2986   -2.8509 S.3       1 <0>         0.2295
     15 C10         2.0017   -6.0889   -1.9047 C.2       1 <0>         0.2386
     16 N2          2.1425   -4.7812   -1.8664 N.2       1 <0>        -0.5462
     17 N3          2.7981   -7.0602   -1.3126 N.am      1 <0>        -0.6111
     18 C11         2.4979   -8.3648   -1.4685 C.2       1 <0>         0.5891
     19 O2          1.5291   -8.6915   -2.1280 O.2       1 <0>        -0.4779
     20 C12         3.3409   -9.3930   -0.8417 C.2       1 <0>         0.0110
     21 C13         3.1446  -10.7349   -0.9312 C.2       1 <0>        -0.0752
     22 C14         4.1706  -11.3710   -0.1914 C.ar      1 <0>        -0.1146
     23 C15         4.4770  -12.7128    0.0710 C.ar      1 <0>        -0.0443
     24 C16         5.5612  -13.0238    0.8403 C.ar      1 <0>        -0.0606
     25 C17         6.3662  -12.0200    1.3672 C.ar      1 <0>        -0.0716
     26 C18         6.0848  -10.6946    1.1234 C.ar      1 <0>        -0.1188
     27 C19         4.9849  -10.3527    0.3414 C.ar      1 <0>         0.1256
     28 N4          4.4625   -9.1497   -0.0728 N.pl3     1 <0>        -0.5773
     29 H3          4.8215   -8.2744    0.1412 H         1 <0>         0.4206
     30 Cl1         5.9378  -14.6872    1.1640 Cl        1 <0>        -0.0648
     31 H4          1.0039    1.9031    0.0027 H         1 <0>         0.0623
     32 H5         -0.5459    1.8868   -0.8726 H         1 <0>         0.0729
     33 H6         -0.5289    1.8773    0.9072 H         1 <0>         0.0669
     34 H7          0.1630   -0.1875   -2.1397 H         1 <0>         0.0873
     35 H8          1.7248   -0.0767   -1.2915 H         1 <0>         0.0444
     36 H9          1.5520   -3.5070   -0.0015 H         1 <0>         0.0916
     37 H10         2.5406   -2.0263   -0.0358 H         1 <0>         0.0417
     38 H11        -0.5270   -3.5996    1.3349 H         1 <0>         0.0605
     39 H12        -1.1216   -2.1472    2.1747 H         1 <0>         0.0582
     40 H13        -1.1650   -2.2278    0.3971 H         1 <0>         0.0713
     41 H14         0.9586   -2.0474   -3.3147 H         1 <0>         0.0951
     42 H15         2.4975   -2.2265   -2.4384 H         1 <0>         0.0519
     43 H16        -0.5234   -4.1280   -3.7349 H         1 <0>         0.1970
     44 H17         3.5705   -6.7998   -0.7868 H         1 <0>         0.4187
     45 H18         2.3488  -11.2276   -1.4699 H         1 <0>         0.1658
     46 H19         3.8570  -13.4990   -0.3340 H         1 <0>         0.1409
     47 H20         7.2202  -12.2825    1.9739 H         1 <0>         0.1422
     48 H21         6.7156   -9.9221    1.5377 H         1 <0>         0.1361
@<TRIPOS>BOND
     1    1    2 1
     2    1   31 1
     3    1   32 1
     4    1   33 1
     5    2    3 1
     6    2    9 1
     7    2    4 1
     8    4    5 1
     9    4   34 1
    10    4   35 1
    11    5    6 1
    12    5   11 1
    13    6    7 1
    14    6   36 1
    15    6   37 1
    16    7    8 1
    17    7    9 1
    18    7   10 1
    19   10   38 1
    20   10   39 1
    21   10   40 1
    22   11   12 1
    23   11   41 1
    24   11   42 1
    25   12   16 1
    26   12   13 2
    27   13   14 1
    28   13   43 1
    29   14   15 1
    30   15   16 2
    31   15   17 1
    32   17   18 am
    33   17   44 1
    34   18   19 2
    35   18   20 1
    36   20   28 1
    37   20   21 2
    38   21   22 1
    39   21   45 1
    40   22   27 ar
    41   22   23 ar
    42   23   24 ar
    43   23   46 1
    44   24   25 ar
    45   24   30 1
    46   25   26 ar
    47   25   47 1
    48   26   27 ar
    49   26   48 1
    50   27   28 1
    51   28   29 1
@<TRIPOS>MOLECULE
ZINC39737527
   47    51     0     0     0
SMALL
USER_CHARGES

@<TRIPOS>ATOM
      1 C1          7.2117    1.0993   -1.2987 C.ar      1 <0>        -0.1044
      2 C2          6.2832    1.8270   -0.5741 C.ar      1 <0>        -0.1175
      3 C3          5.0797    1.2564   -0.2190 C.ar      1 <0>        -0.0790
      4 C4          4.7977   -0.0629   -0.5932 C.ar      1 <0>         0.0750
      5 C5          5.7422   -0.7916   -1.3258 C.ar      1 <0>        -0.0999
      6 C6          6.9408   -0.2058   -1.6727 C.ar      1 <0>        -0.1194
      7 N1          3.6118   -0.6341   -0.2461 N.2       1 <0>        -0.3675
      8 C7          3.5301   -1.9401   -0.0902 C.2       1 <0>         0.3628
      9 N2          4.6484   -2.6650    0.1354 N.2       1 <0>        -0.2741
     10 N3          4.5685   -3.9434    0.2881 N.2       1 <0>        -0.2028
     11 C8          5.6757   -4.6611    0.5113 C.2       1 <0>        -0.0360
     12 C9          5.5915   -6.0076    0.6721 C.2       1 <0>         0.0710
     13 C10         6.6937   -6.9433    0.9285 C.ar      1 <0>        -0.1808
     14 C11         8.0715   -6.7314    1.0732 C.ar      1 <0>        -0.0232
     15 C12         8.9083   -7.7978    1.3131 C.ar      1 <0>        -0.1765
     16 C13         8.3915   -9.0809    1.4119 C.ar      1 <0>        -0.0375
     17 C14         7.0384   -9.3059    1.2715 C.ar      1 <0>        -0.1863
     18 C15         6.1703   -8.2431    1.0287 C.ar      1 <0>         0.2308
     19 N4          4.7930   -8.2352    0.8561 N.pl3     1 <0>        -0.7255
     20 C16         4.3415   -6.8588    0.6315 C.3       1 <0>         0.1256
     21 C17         2.2158   -2.6120   -0.1618 C.2       1 <0>         0.2896
     22 N5          2.0197   -3.9672   -0.1188 N.pl3     1 <0>        -0.5747
     23 H1          2.7069   -4.6469   -0.0368 H         1 <0>         0.4274
     24 C18         0.6610   -4.1828   -0.2134 C.ar      1 <0>         0.0548
     25 C19        -0.1365   -5.3196   -0.2261 C.ar      1 <0>        -0.1169
     26 C20        -1.5046   -5.1932   -0.3363 C.ar      1 <0>        -0.0912
     27 C21        -2.0905   -3.9382   -0.4352 C.ar      1 <0>        -0.1304
     28 C22        -1.3246   -2.8084   -0.4250 C.ar      1 <0>        -0.0534
     29 C23         0.0676   -2.9102   -0.3130 C.ar      1 <0>         0.0426
     30 N6          1.0613   -2.0014   -0.2703 N.2       1 <0>        -0.4343
     31 H2          8.1509    1.5539   -1.5776 H         1 <0>         0.1271
     32 H3          6.5026    2.8445   -0.2859 H         1 <0>         0.1316
     33 H4          4.3566    1.8252    0.3466 H         1 <0>         0.1344
     34 H5          5.5326   -1.8099   -1.6181 H         1 <0>         0.1238
     35 H6          7.6706   -0.7665   -2.2379 H         1 <0>         0.1262
     36 H7          6.6361   -4.1701    0.5637 H         1 <0>         0.1322
     37 H8          8.4762   -5.7331    0.9962 H         1 <0>         0.1297
     38 H9          9.9701   -7.6348    1.4242 H         1 <0>         0.1315
     39 H10         9.0552   -9.9118    1.6003 H         1 <0>         0.1326
     40 H11         6.6495  -10.3104    1.3502 H         1 <0>         0.1282
     41 H12         3.6519   -6.5532    1.4183 H         1 <0>         0.1052
     42 H13         3.8615   -6.7767   -0.3437 H         1 <0>         0.1033
     43 H14         0.3134   -6.2985   -0.1503 H         1 <0>         0.1229
     44 H15        -2.1254   -6.0769   -0.3463 H         1 <0>         0.1324
     45 H16        -3.1639   -3.8551   -0.5213 H         1 <0>         0.1322
     46 H17        -1.7914   -1.8376   -0.5025 H         1 <0>         0.1329
     47 H18         4.2192   -9.0168    0.8840 H         1 <0>         0.4257
@<TRIPOS>BOND
     1    1    6 ar
     2    1    2 ar
     3    1   31 1
     4    2    3 ar
     5    2   32 1
     6    3    4 ar
     7    3   33 1
     8    4    5 ar
     9    4    7 1
    10    5    6 ar
    11    5   34 1
    12    6   35 1
    13    7    8 1
    14    8    9 2
    15    8   21 1
    16    9   10 1
    17   10   11 2
    18   11   12 1
    19   11   36 1
    20   12   20 1
    21   12   13 2
    22   13   18 ar
    23   13   14 ar
    24   14   15 ar
    25   14   37 1
    26   15   16 ar
    27   15   38 1
    28   16   17 ar
    29   16   39 1
    30   17   18 ar
    31   17   40 1
    32   18   19 2
    33   19   20 1
    34   19   47 1
    35   20   41 1
    36   20   42 1
    37   21   30 2
    38   21   22 1
    39   22   23 1
    40   22   24 1
    41   24   29 ar
    42   24   25 ar
    43   25   26 ar
    44   25   43 1
    45   26   27 ar
    46   26   44 1
    47   27   28 ar
    48   27   45 1
    49   28   29 ar
    50   28   46 1
    51   29   30 1
@<TRIPOS>MOLECULE
ZINC07183336
   38    40     0     0     0
SMALL
USER_CHARGES
6-[(4,8-dimethyl-2-quinolyl)sulfanylmethyl]-1,3,5-triazine-2,4-diamine
@<TRIPOS>ATOM
      1 C1         -1.3306    2.1392    0.0200 C.3       1 <0>        -0.1086
      2 C2         -0.0170    1.4008    0.0097 C.ar      1 <0>        -0.0621
      3 C3          1.1559    2.0927    0.0023 C.ar      1 <0>        -0.1018
      4 C4          2.3802    1.4297   -0.0139 C.ar      1 <0>        -0.1138
      5 C5          2.4375    0.0684   -0.0213 C.ar      1 <0>        -0.0998
      6 C6          1.2486   -0.6762   -0.0135 C.ar      1 <0>        -0.1028
      7 C7          0.0021   -0.0041    0.0020 C.ar      1 <0>         0.1484
      8 N1         -1.1358   -0.7081    0.0087 N.ar      1 <0>        -0.4836
      9 C8         -1.1240   -2.0259    0.0019 C.ar      1 <0>         0.1509
     10 C9          0.0784   -2.7489   -0.0135 C.ar      1 <0>        -0.1574
     11 C10         1.2682   -2.0866   -0.0213 C.ar      1 <0>        -0.0067
     12 C11         2.5726   -2.8412   -0.0383 C.3       1 <0>        -0.1212
     13 S1         -2.6537   -2.9002    0.0112 S.3       1 <0>        -0.0144
     14 C12        -3.8110   -1.5087    0.0299 C.3       1 <0>        -0.0370
     15 C13        -5.2246   -2.0310    0.0402 C.ar      1 <0>         0.4424
     16 N2         -5.8553   -2.2476   -1.1007 N.ar      1 <0>        -0.6246
     17 C14        -7.1023   -2.7133   -1.0958 C.ar      1 <0>         0.6338
     18 N3         -7.7163   -2.9507    0.0582 N.ar      1 <0>        -0.6535
     19 C15        -7.0807   -2.7268    1.2031 C.ar      1 <0>         0.6338
     20 N4         -5.8320   -2.2659    1.1900 N.ar      1 <0>        -0.6245
     21 N5         -7.7143   -2.9714    2.4044 N.pl3     1 <0>        -0.8033
     22 N6         -7.7583   -2.9442   -2.2877 N.pl3     1 <0>        -0.8033
     23 H1         -1.6425    2.3116    1.0501 H         1 <0>         0.0718
     24 H2         -1.2137    3.0958   -0.4892 H         1 <0>         0.0662
     25 H3         -2.0859    1.5442   -0.4935 H         1 <0>         0.0757
     26 H4          1.1361    3.1725    0.0082 H         1 <0>         0.1301
     27 H5          3.2961    2.0019   -0.0203 H         1 <0>         0.1285
     28 H6          3.3931   -0.4347   -0.0328 H         1 <0>         0.1317
     29 H7          0.0603   -3.8287   -0.0195 H         1 <0>         0.1413
     30 H8          2.8972   -3.0287    0.9852 H         1 <0>         0.0833
     31 H9          2.4363   -3.7907   -0.5559 H         1 <0>         0.0777
     32 H10         3.3276   -2.2501   -0.5564 H         1 <0>         0.0769
     33 H11        -3.6399   -0.9058    0.9218 H         1 <0>         0.1251
     34 H12        -3.6566   -0.8957   -0.8580 H         1 <0>         0.1248
     35 H13        -7.2497   -2.8075    3.2400 H         1 <0>         0.4200
     36 H14        -8.6242   -3.3073    2.4132 H         1 <0>         0.4180
     37 H15        -8.6682   -3.2800   -2.2833 H         1 <0>         0.4180
     38 H16        -7.3094   -2.7706   -3.1299 H         1 <0>         0.4200
@<TRIPOS>BOND
     1    1    2 1
     2    1   23 1
     3    1   24 1
     4    1   25 1
     5    2    7 ar
     6    2    3 ar
     7    3    4 ar
     8    3   26 1
     9    4    5 ar
    10    4   27 1
    11    5    6 ar
    12    5   28 1
    13    6   11 ar
    14    6    7 ar
    15    7    8 ar
    16    8    9 ar
    17    9   10 ar
    18    9   13 1
    19   10   11 ar
    20   10   29 1
    21   11   12 1
    22   12   30 1
    23   12   31 1
    24   12   32 1
    25   13   14 1
    26   14   15 1
    27   14   33 1
    28   14   34 1
    29   15   20 ar
    30   15   16 ar
    31   16   17 ar
    32   17   18 ar
    33   17   22 1
    34   18   19 ar
    35   19   20 ar
    36   19   21 1
    37   21   35 1
    38   21   36 1
    39   22   37 1
    40   22   38 1
@<TRIPOS>MOLECULE
ZINC37558175
   26    27     0     0     0
SMALL
USER_CHARGES

@<TRIPOS>ATOM
      1 C1          2.3874    1.4077   -0.0736 C.ar      1 <0>        -0.2339
      2 C2          1.1782    2.0875   -0.0135 C.ar      1 <0>         0.2980
      3 C3         -0.0150    1.3759    0.0247 C.ar      1 <0>        -0.0745
      4 C4          0.0048   -0.0060    0.0026 C.ar      1 <0>        -0.0476
      5 C5          1.2109   -0.6809   -0.0574 C.ar      1 <0>        -0.1095
      6 C6          2.4016    0.0257   -0.0955 C.ar      1 <0>         0.0364
      7 Cl1         3.9129   -0.8251   -0.1713 Cl        1 <0>        -0.0633
      8 Cl2         1.2322   -2.4165   -0.0844 Cl        1 <0>        -0.0676
      9 Cl3        -1.5290    2.2220    0.1005 Cl        1 <0>        -0.0660
     10 N1          1.1610    3.4854    0.0092 N.2       1 <0>        -1.0684
     11 S1          2.5812    4.3291    0.1252 S.o2      1 <0>         2.6144
     12 O1          3.1708    3.9633    1.3653 O.2       1 <0>        -1.0034
     13 O2          3.2536    4.1650   -1.1159 O.2       1 <0>        -1.0067
     14 C7          2.1641    6.0365    0.2501 C.2       1 <0>        -0.7922
     15 C8          2.3991    6.8630    1.3525 C.2       1 <0>         0.3164
     16 N2          1.9529    8.0604    1.0714 N.pl3     1 <0>        -0.3884
     17 H1          1.0161    8.7915   -0.6862 H         1 <0>         0.4664
     18 N3          1.4167    8.0397   -0.2223 N.pl3     1 <0>        -0.4698
     19 C9          1.5607    6.7873   -0.7124 C.2       1 <0>         0.5676
     20 N4          1.1619    6.3455   -1.9708 N.pl3     1 <0>        -0.7791
     21 H2          3.3159    1.9583   -0.1078 H         1 <0>         0.1260
     22 H3         -0.9222   -0.5593    0.0325 H         1 <0>         0.1411
     23 H4          2.8684    6.5642    2.2782 H         1 <0>         0.2498
     24 H5          1.3080    5.4221   -2.2294 H         1 <0>         0.4538
     25 H6          0.7378    6.9610   -2.5890 H         1 <0>         0.4242
     26 H7          1.9875    8.8313    1.6591 H         1 <0>         0.4762
@<TRIPOS>BOND
     1    1    6 ar
     2    1    2 ar
     3    1   21 1
     4    2    3 ar
     5    2   10 1
     6    3    4 ar
     7    3    9 1
     8    4    5 ar
     9    4   22 1
    10    5    6 ar
    11    5    8 1
    12    6    7 1
    13   10   11 1
    14   11   12 2
    15   11   13 2
    16   11   14 1
    17   14   15 1
    18   14   19 2
    19   15   23 1
    20   15   16 2
    21   16   18 1
    22   16   26 1
    23   17   18 1
    24   18   19 1
    25   19   20 1
    26   20   24 1
    27   20   25 1
@<TRIPOS>MOLECULE
ZINC40759928
   34    35     0     0     0
SMALL
USER_CHARGES

@<TRIPOS>ATOM
      1 C1          0.4762    0.4335    0.7424 C.3       1 <0>         0.0064
      2 N1          0.2951   -1.0093    0.5340 N.3       1 <0>        -0.2873
      3 C2          0.9498   -1.7813    1.5986 C.3       1 <0>         0.0058
      4 N2         -1.0300   -1.3282    0.4421 N.pl3     1 <0>        -0.5677
      5 C3         -1.5226   -1.9251   -0.7121 C.ar      1 <0>         0.4301
      6 C4         -2.8763   -2.2503   -0.8198 C.ar      1 <0>         0.0119
      7 C5         -3.3186   -2.8479   -2.0011 C.ar      1 <0>         0.3817
      8 N3         -2.4397   -3.0834   -2.9728 N.ar      1 <0>        -0.5602
      9 C6         -1.1703   -2.7608   -2.8306 C.ar      1 <0>         0.3204
     10 N4         -0.7127   -2.1906   -1.7340 N.ar      1 <0>        -0.5317
     11 N5         -4.6562   -3.1924   -2.1602 N.pl3     1 <0>        -0.6476
     12 C7         -5.0631   -3.9135   -3.2867 C.ar      1 <0>         0.1998
     13 C8         -4.1508   -4.7029   -3.9746 C.ar      1 <0>        -0.1151
     14 C9         -4.5564   -5.4150   -5.0877 C.ar      1 <0>        -0.0056
     15 C10        -5.8702   -5.3415   -5.5171 C.ar      1 <0>        -0.1290
     16 C11        -6.7809   -4.5565   -4.8344 C.ar      1 <0>        -0.0716
     17 C12        -6.3831   -3.8465   -3.7173 C.ar      1 <0>        -0.0823
     18 Cl1        -7.5290   -2.8665   -2.8570 Cl        1 <0>        -0.0638
     19 Cl2        -3.4168   -6.4020   -5.9483 Cl        1 <0>        -0.0567
     20 N6         -3.7681   -1.9839    0.2316 N.pl3     1 <0>        -0.8762
     21 H1          1.5401    0.6599    0.8120 H         1 <0>         0.0867
     22 H2          0.0427    0.9790   -0.0959 H         1 <0>         0.0754
     23 H3         -0.0200    0.7323    1.6658 H         1 <0>         0.0314
     24 H4          0.5178   -1.5104    2.5620 H         1 <0>         0.0306
     25 H5          0.8003   -2.8460    1.4198 H         1 <0>         0.0748
     26 H6          2.0171   -1.5601    1.6039 H         1 <0>         0.0867
     27 H7         -1.6270   -1.1380    1.1826 H         1 <0>         0.3860
     28 H8         -0.4844   -2.9660   -3.6391 H         1 <0>         0.1995
     29 H9         -5.3071   -2.9324   -1.4897 H         1 <0>         0.4169
     30 H10        -3.1254   -4.7600   -3.6404 H         1 <0>         0.1727
     31 H11        -6.1846   -5.8983   -6.3875 H         1 <0>         0.1422
     32 H12        -7.8053   -4.5014   -5.1720 H         1 <0>         0.1450
     33 H13        -3.4464   -1.5683    1.0469 H         1 <0>         0.3956
     34 H14        -4.7059   -2.2153    0.1426 H         1 <0>         0.3952
@<TRIPOS>BOND
     1    1    2 1
     2    1   21 1
     3    1   22 1
     4    1   23 1
     5    2    3 1
     6    2    4 1
     7    3   24 1
     8    3   25 1
     9    3   26 1
    10    4    5 1
    11    4   27 1
    12    5   10 ar
    13    5    6 ar
    14    6    7 ar
    15    6   20 1
    16    7    8 ar
    17    7   11 1
    18    8    9 ar
    19    9   10 ar
    20    9   28 1
    21   11   12 1
    22   11   29 1
    23   12   17 ar
    24   12   13 ar
    25   13   14 ar
    26   13   30 1
    27   14   15 ar
    28   14   19 1
    29   15   16 ar
    30   15   31 1
    31   16   17 ar
    32   16   32 1
    33   17   18 1
    34   20   33 1
    35   20   34 1
@<TRIPOS>MOLECULE
ZINC47873482
   47    48     0     0     0
SMALL
USER_CHARGES

@<TRIPOS>ATOM
      1 C1         -0.2146    1.4894    0.2003 C.3       1 <0>        -0.1503
      2 C2         -0.2080   -0.0404    0.1791 C.3       1 <0>        -0.1426
      3 C3         -1.6419   -0.5547    0.0365 C.3       1 <0>         0.1103
      4 N1         -1.6356   -2.0195    0.0162 N.am      1 <0>        -0.5307
      5 C4         -1.5148   -2.6868   -1.1816 C.2       1 <0>         0.3789
      6 C5         -1.5095   -4.0552   -1.1898 C.2       1 <0>        -0.0623
      7 C6         -1.6281   -4.7450    0.0301 C.2       1 <0>         0.5569
      8 O1         -1.6255   -5.9646    0.0482 O.2       1 <0>        -0.5141
      9 N2         -1.7441   -4.0503    1.1789 N.am      1 <0>        -0.6570
     10 H1         -1.8257   -4.5246    2.0211 H         1 <0>         0.4324
     11 C7         -1.7424   -2.7050    1.1692 C.2       1 <0>         0.7028
     12 O2         -1.8436   -2.0989    2.2186 O.2       1 <0>        -0.5435
     13 N3         -1.3871   -4.7651   -2.4068 N.pl3     1 <0>        -0.7318
     14 C8         -1.2561   -6.2242   -2.3936 C.3       1 <0>         0.1730
     15 H2         -0.6692   -6.5285   -1.5270 H         1 <0>         0.0966
     16 C9         -2.6455   -6.8603   -2.3175 C.3       1 <0>        -0.1215
     17 C10        -2.5088   -8.3841   -2.3037 C.3       1 <0>        -0.1152
     18 C11        -1.8064   -8.8447   -3.5826 C.3       1 <0>        -0.1212
     19 C12        -0.4170   -8.2086   -3.6588 C.3       1 <0>        -0.1110
     20 C13        -0.5538   -6.6848   -3.6725 C.3       1 <0>        -0.0949
     21 H3         -1.1407   -6.3804   -4.5391 H         1 <0>         0.0679
     22 C14         0.8356   -6.0486   -3.7487 C.3       1 <0>        -0.1154
     23 C15         1.4887   -6.4085   -5.0847 C.3       1 <0>        -0.1549
     24 N4         -1.4008   -1.9845   -2.3596 N.pl3     1 <0>        -0.8460
     25 H4          0.8070    1.8558    0.3019 H         1 <0>         0.0632
     26 H5         -0.6441    1.8638   -0.7289 H         1 <0>         0.0575
     27 H6         -0.8113    1.8385    1.0430 H         1 <0>         0.0613
     28 H7          0.3887   -0.3896   -0.6636 H         1 <0>         0.0677
     29 H8          0.2215   -0.4148    1.1083 H         1 <0>         0.0745
     30 H9         -2.2386   -0.2056    0.8792 H         1 <0>         0.1073
     31 H10        -2.0714   -0.1803   -0.8927 H         1 <0>         0.0894
     32 H11        -1.3899   -4.2860   -3.2502 H         1 <0>         0.3879
     33 H12        -3.1459   -6.5322   -1.4064 H         1 <0>         0.0671
     34 H13        -3.2325   -6.5560   -3.1841 H         1 <0>         0.0490
     35 H14        -1.9218   -8.6884   -1.4371 H         1 <0>         0.0642
     36 H15        -3.4986   -8.8373   -2.2495 H         1 <0>         0.0571
     37 H16        -1.7090   -9.9303   -3.5728 H         1 <0>         0.0602
     38 H17        -2.3933   -8.5403   -4.4492 H         1 <0>         0.0589
     39 H18         0.1699   -8.5129   -2.7922 H         1 <0>         0.0634
     40 H19         0.0834   -8.5367   -4.5699 H         1 <0>         0.0654
     41 H20         0.7442   -4.9654   -3.6690 H         1 <0>         0.0615
     42 H21         1.4517   -6.4224   -2.9308 H         1 <0>         0.0601
     43 H22         2.4786   -5.9553   -5.1389 H         1 <0>         0.0512
     44 H23         1.5802   -7.4917   -5.1643 H         1 <0>         0.0563
     45 H24         0.8727   -6.0347   -5.9025 H         1 <0>         0.0516
     46 H25        -1.4054   -1.0146   -2.3485 H         1 <0>         0.4037
     47 H26        -1.3159   -2.4595   -3.2011 H         1 <0>         0.4150
@<TRIPOS>BOND
     1    1    2 1
     2    1   25 1
     3    1   26 1
     4    1   27 1
     5    2    3 1
     6    2   28 1
     7    2   29 1
     8    3    4 1
     9    3   30 1
    10    3   31 1
    11    4   11 am
    12    4    5 1
    13    5    6 2
    14    5   24 1
    15    6    7 1
    16    6   13 1
    17    7    8 2
    18    7    9 am
    19    9   10 1
    20    9   11 am
    21   11   12 2
    22   13   14 1
    23   13   32 1
    24   14   15 1
    25   14   20 1
    26   14   16 1
    27   16   17 1
    28   16   33 1
    29   16   34 1
    30   17   18 1
    31   17   35 1
    32   17   36 1
    33   18   19 1
    34   18   37 1
    35   18   38 1
    36   19   20 1
    37   19   39 1
    38   19   40 1
    39   20   21 1
    40   20   22 1
    41   22   23 1
    42   22   41 1
    43   22   42 1
    44   23   43 1
    45   23   44 1
    46   23   45 1
    47   24   46 1
    48   24   47 1
@<TRIPOS>MOLECULE
ZINC05042265
   32    34     0     0     0
SMALL
USER_CHARGES

@<TRIPOS>ATOM
      1 C1         -0.0167    1.3770    0.0096 C.ar      1 <0>        -0.1016
      2 C2          1.1707    2.0858    0.0021 C.ar      1 <0>        -0.1084
      3 C3          2.3791    1.4145   -0.0130 C.ar      1 <0>        -0.0666
      4 C4          2.4032    0.0331   -0.0211 C.ar      1 <0>        -0.1315
      5 C5          1.2136   -0.6802   -0.0135 C.ar      1 <0>         0.1097
      6 C6          0.0021   -0.0041    0.0020 C.ar      1 <0>        -0.1420
      7 O1          1.2347   -2.0390   -0.0215 O.3       1 <0>        -0.4978
      8 C7          3.6712    2.1901   -0.0212 C.3       1 <0>         0.1115
      9 H1          4.5145    1.4996   -0.0329 H         1 <0>         0.1089
     10 C8          3.7238    3.0776   -1.2379 C.2       1 <0>        -0.2253
     11 C9          3.9106    2.7332   -2.5698 C.2       1 <0>         0.0294
     12 N1          3.8827    3.8340   -3.2830 N.2       1 <0>        -0.1990
     13 N2          3.6756    4.9187   -2.4165 N.pl3     1 <0>        -0.4218
     14 H2          3.6114    5.8516   -2.6743 H         1 <0>         0.4570
     15 C10         3.5815    4.4354   -1.1674 C.2       1 <0>         0.2894
     16 O2          3.3854    5.0913    0.0034 O.3       1 <0>        -0.2233
     17 C11         3.6039    4.4088    1.1458 C.2       1 <0>         0.4367
     18 C12         3.7471    3.0654    1.2049 C.2       1 <0>        -0.2498
     19 C13         3.9804    2.4510    2.4772 C.1       1 <0>         0.2695
     20 N3          4.1654    1.9636    3.4865 N.1       1 <0>        -0.4296
     21 N4          3.6848    5.1192    2.3176 N.pl3     1 <0>        -0.8275
     22 C14         4.1109    1.3381   -3.1034 C.3       1 <0>         0.5556
     23 F1          2.8688    0.7762   -3.4176 F         1 <0>        -0.1580
     24 F2          4.9046    1.3885   -4.2543 F         1 <0>        -0.1628
     25 F3          4.7452    0.5545   -2.1334 F         1 <0>        -0.1591
     26 H3         -0.9594    1.9037    0.0259 H         1 <0>         0.1268
     27 H4          1.1540    3.1657    0.0076 H         1 <0>         0.1159
     28 H5          3.3475   -0.4909   -0.0336 H         1 <0>         0.1311
     29 H6         -0.9255   -0.5572    0.0082 H         1 <0>         0.1286
     30 H7          1.2494   -2.4373    0.8596 H         1 <0>         0.3913
     31 H8          3.5855    6.0841    2.3077 H         1 <0>         0.4131
     32 H9          3.8412    4.6563    3.1556 H         1 <0>         0.4298
@<TRIPOS>BOND
     1    1    6 ar
     2    1    2 ar
     3    1   26 1
     4    2    3 ar
     5    2   27 1
     6    3    4 ar
     7    3    8 1
     8    4    5 ar
     9    4   28 1
    10    5    6 ar
    11    5    7 1
    12    6   29 1
    13    7   30 1
    14    8    9 1
    15    8   18 1
    16    8   10 1
    17   10   15 2
    18   10   11 1
    19   11   12 2
    20   11   22 1
    21   12   13 1
    22   13   14 1
    23   13   15 1
    24   15   16 1
    25   16   17 1
    26   17   18 2
    27   17   21 1
    28   18   19 1
    29   19   20 3
    30   21   31 1
    31   21   32 1
    32   22   23 1
    33   22   24 1
    34   22   25 1
@<TRIPOS>MOLECULE
ZINC05413664
   61    66     0     0     0
SMALL
USER_CHARGES
4-cyano-N-[oxo-(8-quinolylsulfonyl)BLAHyl]-benzamide
@<TRIPOS>ATOM
      1 C1         -3.8242    4.6283    6.4144 C.ar      1 <0>        -0.1479
      2 C2         -3.9087    5.9614    6.6792 C.ar      1 <0>        -0.0325
      3 C3         -3.0949    6.8618    5.9735 C.ar      1 <0>        -0.1253
      4 C4         -3.1512    8.2471    6.2174 C.ar      1 <0>        -0.0417
      5 C5         -2.3296    9.0628    5.4930 C.ar      1 <0>        -0.1808
      6 C6         -1.4677    8.5165    4.5442 C.ar      1 <0>         0.1600
      7 N1         -1.4175    7.2260    4.3199 N.ar      1 <0>        -0.4877
      8 C7         -2.1952    6.3727    4.9939 C.ar      1 <0>         0.2037
      9 C8         -2.1373    4.9899    4.7489 C.ar      1 <0>        -0.6676
     10 C9         -2.9448    4.1459    5.4476 C.ar      1 <0>         0.0219
     11 S1         -1.0290    4.3522    3.5366 S.o2      1 <0>         2.6953
     12 O1         -1.2219    2.9446    3.5105 O.2       1 <0>        -0.9551
     13 O2          0.2376    4.9429    3.7936 O.2       1 <0>        -0.9315
     14 N2         -1.5292    4.9258    2.0659 N.pl3     1 <0>        -0.9917
     15 C10        -0.9326    6.1372    1.4908 C.3       1 <0>         0.1313
     16 C11        -0.4954    5.8788    0.0558 C.3       1 <0>        -0.1146
     17 H1         -0.2594    6.8432   -0.3939 H         1 <0>         0.1070
     18 C12        -1.6230    5.2406   -0.7563 C.3       1 <0>        -0.1136
     19 C13        -2.0116    3.9195   -0.0877 C.3       1 <0>        -0.0640
     20 H2         -2.7568    3.3997   -0.6898 H         1 <0>         0.1213
     21 C14        -2.5818    4.2322    1.3064 C.3       1 <0>         0.1236
     22 C15        -0.7817    3.0621    0.1004 C.2       1 <0>         0.1790
     23 C16        -0.9635    1.7166    0.1645 C.2       1 <0>        -0.2245
     24 C17         0.1084    0.8643    0.4499 C.2       1 <0>        -0.0120
     25 C18         1.3461    1.4083    0.6630 C.2       1 <0>         0.0044
     26 C19         1.5038    2.8045    0.5669 C.2       1 <0>         0.5149
     27 O3          2.5941    3.3061    0.7891 O.2       1 <0>        -0.5212
     28 N3          0.4566    3.5971    0.2303 N.am      1 <0>        -0.4800
     29 C20         0.7470    5.0101   -0.0142 C.3       1 <0>         0.0962
     30 N4          2.4391    0.5891    0.9715 N.am      1 <0>        -0.6534
     31 C21         3.5242    0.5840    0.1722 C.2       1 <0>         0.5598
     32 O4          3.5927    1.3556   -0.7648 O.2       1 <0>        -0.5027
     33 C22         4.6315   -0.3602    0.4349 C.ar      1 <0>        -0.0994
     34 C23         4.5554   -1.2425    1.5146 C.ar      1 <0>        -0.0882
     35 C24         5.5844   -2.1252    1.7566 C.ar      1 <0>        -0.0758
     36 C25         6.7091   -2.1306    0.9282 C.ar      1 <0>        -0.0028
     37 C26         6.7874   -1.2443   -0.1486 C.ar      1 <0>        -0.0755
     38 C27         5.7558   -0.3654   -0.3934 C.ar      1 <0>        -0.0584
     39 C28         7.7819   -3.0442    1.1831 C.1       1 <0>         0.2481
     40 N5          8.6329   -3.7691    1.3854 N.1       1 <0>        -0.4036
     41 H3         -4.4509    3.9364    6.9575 H         1 <0>         0.1421
     42 H4         -4.5974    6.3239    7.4279 H         1 <0>         0.1409
     43 H5         -3.8257    8.6536    6.9565 H         1 <0>         0.1443
     44 H6         -2.3476   10.1304    5.6556 H         1 <0>         0.1446
     45 H7         -0.8237    9.1738    3.9788 H         1 <0>         0.1682
     46 H8         -2.8995    3.0846    5.2528 H         1 <0>         0.1515
     47 H9         -0.0669    6.4303    2.0848 H         1 <0>         0.1067
     48 H10        -1.6667    6.9428    1.5051 H         1 <0>         0.0752
     49 H11        -2.4839    5.9087   -0.7770 H         1 <0>         0.0864
     50 H12        -1.2808    5.0511   -1.7737 H         1 <0>         0.0794
     51 H13        -3.4567    4.8755    1.2132 H         1 <0>         0.0863
     52 H14        -2.8553    3.3057    1.8113 H         1 <0>         0.0997
     53 H15        -1.9466    1.3016   -0.0020 H         1 <0>         0.1493
     54 H16        -0.0373   -0.2048    0.4967 H         1 <0>         0.1400
     55 H17         1.4624    5.3572    0.7313 H         1 <0>         0.1036
     56 H18         1.1919    5.1126   -1.0040 H         1 <0>         0.0875
     57 H19         2.4152    0.0254    1.7605 H         1 <0>         0.4084
     58 H20         3.6876   -1.2354    2.1575 H         1 <0>         0.1379
     59 H21         5.5238   -2.8101    2.5894 H         1 <0>         0.1417
     60 H22         7.6568   -1.2486   -0.7894 H         1 <0>         0.1425
     61 H23         5.8162    0.3196   -1.2262 H         1 <0>         0.1489
@<TRIPOS>BOND
     1    1   10 ar
     2    1    2 ar
     3    1   41 1
     4    2    3 ar
     5    2   42 1
     6    3    8 ar
     7    3    4 ar
     8    4    5 ar
     9    4   43 1
    10    5    6 ar
    11    5   44 1
    12    6    7 ar
    13    6   45 1
    14    7    8 ar
    15    8    9 ar
    16    9   10 ar
    17    9   11 1
    18   10   46 1
    19   11   12 2
    20   11   13 2
    21   11   14 1
    22   14   21 1
    23   14   15 1
    24   15   16 1
    25   15   47 1
    26   15   48 1
    27   16   17 1
    28   16   29 1
    29   16   18 1
    30   18   19 1
    31   18   49 1
    32   18   50 1
    33   19   20 1
    34   19   21 1
    35   19   22 1
    36   21   51 1
    37   21   52 1
    38   22   28 1
    39   22   23 2
    40   23   24 1
    41   23   53 1
    42   24   25 2
    43   24   54 1
    44   25   26 1
    45   25   30 1
    46   26   27 2
    47   26   28 am
    48   28   29 1
    49   29   55 1
    50   29   56 1
    51   30   31 am
    52   30   57 1
    53   31   32 2
    54   31   33 1
    55   33   38 ar
    56   33   34 ar
    57   34   35 ar
    58   34   58 1
    59   35   36 ar
    60   35   59 1
    61   36   37 ar
    62   36   39 1
    63   37   38 ar
    64   37   60 1
    65   38   61 1
    66   39   40 3
@<TRIPOS>MOLECULE
ZINC11024172
   67    72     0     0     0
SMALL
USER_CHARGES
N-[(1-benzylbenzoimidazol-2-yl)methyl]-tetramethyl-BLAHcarboxamide
@<TRIPOS>ATOM
      1 C1         -1.7855   -3.1309   -5.6691 C.3       1 <0>        -0.1601
      2 C2         -0.8103   -4.3052   -5.5657 C.3       1 <0>         0.2443
      3 O1         -1.4742   -5.5218   -5.9585 O.3       1 <0>        -0.3519
      4 C3         -0.9217   -6.5231   -5.0851 C.3       1 <0>         0.0676
      5 H1          0.0591   -6.8377   -5.4418 H         1 <0>         0.1083
      6 C4         -0.7873   -5.7489   -3.7496 C.3       1 <0>         0.0375
      7 H2         -0.0542   -6.1994   -3.0806 H         1 <0>         0.1413
      8 O2         -0.3614   -4.4412   -4.2100 O.3       1 <0>        -0.3592
      9 C5         -2.1340   -5.5603   -3.0571 C.3       1 <0>         0.0635
     10 H3         -2.6860   -4.7752   -3.5739 H         1 <0>         0.0992
     11 O3         -2.9331   -6.7486   -3.0403 O.3       1 <0>        -0.3188
     12 C6         -3.1927   -7.2019   -4.3588 C.3       1 <0>         0.2222
     13 H4         -3.5909   -6.4016   -4.9825 H         1 <0>         0.0985
     14 C7         -1.8266   -7.7050   -4.9005 C.3       1 <0>         0.0232
     15 H5         -1.3900   -8.3805   -4.1648 H         1 <0>         0.1075
     16 O4         -2.2136   -8.4492   -6.0477 O.3       1 <0>        -0.3490
     17 C8         -3.5479   -8.9312   -5.7695 C.3       1 <0>         0.2530
     18 O5         -3.9756   -8.3908   -4.4944 O.3       1 <0>        -0.3472
     19 C9         -4.5031   -8.4687   -6.8716 C.3       1 <0>        -0.1697
     20 C10        -3.5406  -10.4598   -5.7048 C.3       1 <0>        -0.1565
     21 C11        -1.8895   -5.1223   -1.6360 C.2       1 <0>         0.5279
     22 O6         -2.2441   -5.8269   -0.7147 O.2       1 <0>        -0.4998
     23 N1         -1.2768   -3.9476   -1.3888 N.am      1 <0>        -0.7159
     24 C12        -1.0391   -3.5218   -0.0074 C.3       1 <0>         0.2023
     25 C13        -0.3448   -2.1843   -0.0064 C.2       1 <0>         0.2593
     26 N2          0.9450   -2.0140   -0.0178 N.2       1 <0>        -0.4646
     27 C14         1.2302   -0.6864   -0.0134 C.ar      1 <0>         0.0430
     28 C15         2.4220    0.0432   -0.0204 C.ar      1 <0>        -0.0580
     29 C16         2.3842    1.4087   -0.0123 C.ar      1 <0>        -0.1285
     30 C17         1.1714    2.0831    0.0021 C.ar      1 <0>        -0.0947
     31 C18        -0.0168    1.3841    0.0097 C.ar      1 <0>        -0.1123
     32 C19         0.0021   -0.0041    0.0020 C.ar      1 <0>         0.0598
     33 N3         -0.9754   -0.9789    0.0061 N.pl3     1 <0>        -0.4744
     34 C20        -2.4234   -0.7566    0.0207 C.3       1 <0>         0.1479
     35 C21        -2.9331   -0.6731   -1.3950 C.ar      1 <0>        -0.1171
     36 C22        -2.9904    0.5492   -2.0380 C.ar      1 <0>        -0.0934
     37 C23        -3.4538    0.6252   -3.3382 C.ar      1 <0>        -0.1173
     38 C24        -3.8685   -0.5199   -3.9922 C.ar      1 <0>        -0.1038
     39 C25        -3.8160   -1.7415   -3.3473 C.ar      1 <0>        -0.1208
     40 C26        -3.3486   -1.8181   -2.0487 C.ar      1 <0>        -0.1020
     41 C27         0.3894   -4.0554   -6.4819 C.3       1 <0>        -0.1693
     42 H6         -1.2765   -2.2098   -5.3850 H         1 <0>         0.0829
     43 H7         -2.1447   -3.0460   -6.6947 H         1 <0>         0.0818
     44 H8         -2.6301   -3.3001   -5.0012 H         1 <0>         0.0656
     45 H9         -4.1690   -8.8633   -7.8312 H         1 <0>         0.0827
     46 H10        -5.5078   -8.8338   -6.6585 H         1 <0>         0.0830
     47 H11        -4.5130   -7.3794   -6.9103 H         1 <0>         0.0667
     48 H12        -2.8659  -10.7868   -4.9136 H         1 <0>         0.0709
     49 H13        -4.5479  -10.8195   -5.4949 H         1 <0>         0.0821
     50 H14        -3.2027  -10.8623   -6.6598 H         1 <0>         0.0849
     51 H15        -0.9932   -3.3840   -2.1257 H         1 <0>         0.4129
     52 H16        -0.4119   -4.2571    0.4966 H         1 <0>         0.1106
     53 H17        -1.9916   -3.4372    0.5157 H         1 <0>         0.0920
     54 H18         3.3714   -0.4716   -0.0326 H         1 <0>         0.1302
     55 H19         3.3074    1.9691   -0.0178 H         1 <0>         0.1308
     56 H20         1.1583    3.1630    0.0080 H         1 <0>         0.1311
     57 H21        -0.9579    1.9139    0.0170 H         1 <0>         0.1207
     58 H22        -2.9128   -1.5838    0.5349 H         1 <0>         0.1037
     59 H23        -2.6426    0.1756    0.5414 H         1 <0>         0.1030
     60 H24        -2.6700    1.4444   -1.5258 H         1 <0>         0.1219
     61 H25        -3.4945    1.5796   -3.8421 H         1 <0>         0.1261
     62 H26        -4.2330   -0.4602   -5.0070 H         1 <0>         0.1253
     63 H27        -4.1400   -2.6362   -3.8583 H         1 <0>         0.1216
     64 H28        -3.3076   -2.7725   -1.5449 H         1 <0>         0.1214
     65 H29         1.0932   -4.8829   -6.3927 H         1 <0>         0.0666
     66 H30         0.0483   -3.9783   -7.5143 H         1 <0>         0.0808
     67 H31         0.8813   -3.1271   -6.1914 H         1 <0>         0.0789
@<TRIPOS>BOND
     1    1    2 1
     2    1   42 1
     3    1   43 1
     4    1   44 1
     5    2    8 1
     6    2    3 1
     7    2   41 1
     8    3    4 1
     9    4    5 1
    10    4   14 1
    11    4    6 1
    12    6    7 1
    13    6    8 1
    14    6    9 1
    15    9   10 1
    16    9   11 1
    17    9   21 1
    18   11   12 1
    19   12   13 1
    20   12   18 1
    21   12   14 1
    22   14   15 1
    23   14   16 1
    24   16   17 1
    25   17   18 1
    26   17   19 1
    27   17   20 1
    28   19   45 1
    29   19   46 1
    30   19   47 1
    31   20   48 1
    32   20   49 1
    33   20   50 1
    34   21   22 2
    35   21   23 am
    36   23   24 1
    37   23   51 1
    38   24   25 1
    39   24   52 1
    40   24   53 1
    41   25   33 1
    42   25   26 2
    43   26   27 1
    44   27   32 ar
    45   27   28 ar
    46   28   29 ar
    47   28   54 1
    48   29   30 ar
    49   29   55 1
    50   30   31 ar
    51   30   56 1
    52   31   32 ar
    53   31   57 1
    54   32   33 1
    55   33   34 1
    56   34   35 1
    57   34   58 1
    58   34   59 1
    59   35   40 ar
    60   35   36 ar
    61   36   37 ar
    62   36   60 1
    63   37   38 ar
    64   37   61 1
    65   38   39 ar
    66   38   62 1
    67   39   40 ar
    68   39   63 1
    69   40   64 1
    70   41   65 1
    71   41   66 1
    72   41   67 1
@<TRIPOS>MOLECULE
ZINC13365288
   50    53     0     0     0
SMALL
USER_CHARGES
4-fluoro-N-[4-(1,3,7-trimethyl-2,6-dioxo-purin-8-yl)sulfanylphenyl]benzenesulfonamide
@<TRIPOS>ATOM
      1 C1          6.2777   -0.5755   -8.4242 C.3       1 <0>         0.0678
      2 N1          4.8825   -0.5340   -7.9793 N.pl3     1 <0>        -0.3956
      3 C2          3.7889   -0.1057   -8.7198 C.2       1 <0>        -0.1461
      4 C3          2.6779   -0.2440   -7.8941 C.2       1 <0>         0.3300
      5 N2          3.1007   -0.7352   -6.7288 N.2       1 <0>        -0.4841
      6 C4          4.4074   -0.9078   -6.7603 C.2       1 <0>         0.2429
      7 S1          5.3846   -1.5322   -5.4338 S.3       1 <0>         0.1261
      8 C5          4.1144   -1.9332   -4.2803 C.ar      1 <0>        -0.1355
      9 C6          3.4703   -3.1615   -4.3557 C.ar      1 <0>        -0.0376
     10 C7          2.4754   -3.4758   -3.4517 C.ar      1 <0>        -0.1143
     11 C8          2.1183   -2.5636   -2.4670 C.ar      1 <0>         0.1624
     12 C9          2.7584   -1.3331   -2.3951 C.ar      1 <0>        -0.1219
     13 C10         3.7575   -1.0212   -3.2953 C.ar      1 <0>        -0.0399
     14 N3          1.1095   -2.8821   -1.5510 N.pl3     1 <0>        -1.0665
     15 S2          1.4078   -3.9649   -0.3341 S.o2      1 <0>         2.6919
     16 O1          1.9769   -5.1151   -0.9444 O.2       1 <0>        -0.9413
     17 O2          0.2268   -4.0260    0.4537 O.2       1 <0>        -0.9450
     18 C11         2.6603   -3.2662    0.6895 C.ar      1 <0>        -0.6931
     19 C12         2.3170   -2.3811    1.6944 C.ar      1 <0>         0.0125
     20 C13         3.2985   -1.8324    2.4979 C.ar      1 <0>        -0.1748
     21 C14         4.6262   -2.1692    2.2957 C.ar      1 <0>         0.1615
     22 C15         4.9689   -3.0554    1.2886 C.ar      1 <0>        -0.1735
     23 C16         3.9857   -3.6031    0.4867 C.ar      1 <0>         0.0141
     24 F1          5.5866   -1.6331    3.0803 F         1 <0>        -0.1267
     25 N4          1.4327    0.1156   -8.3848 N.am      1 <0>        -0.5099
     26 C17         1.3135    0.5889   -9.6396 C.2       1 <0>         0.7079
     27 O3          0.2133    0.8994  -10.0543 O.2       1 <0>        -0.5322
     28 N5          2.3806    0.7264  -10.4453 N.am      1 <0>        -0.5515
     29 C18         3.6177    0.3932  -10.0230 C.2       1 <0>         0.5947
     30 O4          4.5769    0.5226  -10.7637 O.2       1 <0>        -0.5112
     31 C19         2.1974    1.2468  -11.8025 C.3       1 <0>         0.0828
     32 C20         0.2453   -0.0190   -7.5374 C.3       1 <0>         0.0903
     33 H1          6.4845   -1.5429   -8.8819 H         1 <0>         0.0926
     34 H2          6.4501    0.2159   -9.1536 H         1 <0>         0.1063
     35 H3          6.9365   -0.4303   -7.5681 H         1 <0>         0.0966
     36 H4          3.7480   -3.8708   -5.1213 H         1 <0>         0.1402
     37 H5          1.9746   -4.4308   -3.5103 H         1 <0>         0.1453
     38 H6          2.4773   -0.6220   -1.6325 H         1 <0>         0.1376
     39 H7          4.2583   -0.0661   -3.2367 H         1 <0>         0.1396
     40 H8          0.2355   -2.4686   -1.6289 H         1 <0>         0.4306
     41 H9          1.2813   -2.1186    1.8519 H         1 <0>         0.1506
     42 H10         3.0304   -1.1379    3.2802 H         1 <0>         0.1486
     43 H11         6.0043   -3.3185    1.1298 H         1 <0>         0.1485
     44 H12         4.2527   -4.2949   -0.2984 H         1 <0>         0.1523
     45 H13         1.1420    1.4616  -11.9699 H         1 <0>         0.1058
     46 H14         2.7779    2.1615  -11.9222 H         1 <0>         0.0818
     47 H15         2.5361    0.5043  -12.5250 H         1 <0>         0.0820
     48 H16         0.0903    0.9047   -6.9798 H         1 <0>         0.0728
     49 H17        -0.6260   -0.2171   -8.1616 H         1 <0>         0.0941
     50 H18         0.3881   -0.8446   -6.8402 H         1 <0>         0.0906
@<TRIPOS>BOND
     1    1    2 1
     2    1   33 1
     3    1   34 1
     4    1   35 1
     5    2    6 1
     6    2    3 1
     7    3   29 1
     8    3    4 2
     9    4    5 1
    10    4   25 1
    11    5    6 2
    12    6    7 1
    13    7    8 1
    14    8   13 ar
    15    8    9 ar
    16    9   10 ar
    17    9   36 1
    18   10   11 ar
    19   10   37 1
    20   11   12 ar
    21   11   14 1
    22   12   13 ar
    23   12   38 1
    24   13   39 1
    25   14   15 1
    26   14   40 1
    27   15   16 2
    28   15   17 2
    29   15   18 1
    30   18   23 ar
    31   18   19 ar
    32   19   20 ar
    33   19   41 1
    34   20   21 ar
    35   20   42 1
    36   21   22 ar
    37   21   24 1
    38   22   23 ar
    39   22   43 1
    40   23   44 1
    41   25   26 am
    42   25   32 1
    43   26   27 2
    44   26   28 am
    45   28   29 am
    46   28   31 1
    47   29   30 2
    48   31   45 1
    49   31   46 1
    50   31   47 1
    51   32   48 1
    52   32   49 1
    53   32   50 1
@<TRIPOS>MOLECULE
ZINC20178580
   65    68     0     0     0
SMALL
USER_CHARGES
(E)-3-(3,4-dimethoxyphenyl)-N-[1,4-dimethyl-2,3-dioxo-7-(1-piperidyl)quinoxalin-6-yl]prop-2-enamide
@<TRIPOS>ATOM
      1 C1          8.1702    6.5130   -0.1005 C.3       1 <0>         0.0626
      2 N1          9.4715    5.8511   -0.2217 N.am      1 <0>        -0.5245
      3 C2          9.5451    4.4601   -0.2392 C.ar      1 <0>         0.1431
      4 C3          8.3782    3.7097   -0.1409 C.ar      1 <0>        -0.1415
      5 C4          8.4394    2.3271   -0.1567 C.ar      1 <0>         0.2006
      6 C5          9.6748    1.6827   -0.2662 C.ar      1 <0>         0.0668
      7 C6         10.8371    2.4265   -0.3694 C.ar      1 <0>        -0.1249
      8 C7         10.7792    3.8163   -0.3538 C.ar      1 <0>         0.1053
      9 N2         11.9558    4.5543   -0.4525 N.am      1 <0>        -0.5256
     10 C8         11.9126    5.9018   -0.4390 C.2       1 <0>         0.5047
     11 O1         12.9369    6.5493   -0.5249 O.2       1 <0>        -0.4714
     12 C9         10.5958    6.5892   -0.3171 C.2       1 <0>         0.5036
     13 O2         10.5361    7.8026   -0.3031 O.2       1 <0>        -0.4661
     14 C10        13.2432    3.8653   -0.5718 C.3       1 <0>         0.0616
     15 N3          9.7360    0.2846   -0.2759 N.pl3     1 <0>        -0.4955
     16 C11        10.4595   -0.2187    0.8987 C.3       1 <0>         0.0597
     17 C12        10.3813   -1.7467    0.9316 C.3       1 <0>        -0.1179
     18 C13        10.9969   -2.3122   -0.3513 C.3       1 <0>        -0.1246
     19 C14        10.2565   -1.7349   -1.5608 C.3       1 <0>        -0.1174
     20 C15        10.3383   -0.2073   -1.5215 C.3       1 <0>         0.0551
     21 N4          7.2631    1.5733   -0.0573 N.am      1 <0>        -0.6625
     22 C16         6.1737    2.0995    0.5367 C.2       1 <0>         0.5522
     23 O3          6.2407    3.1893    1.0754 O.2       1 <0>        -0.5335
     24 C17         4.9114    1.3616    0.5342 C.2       1 <0>        -0.2247
     25 C18         3.8202    1.8886    1.1291 C.2       1 <0>        -0.0020
     26 C19         2.5511    1.1468    1.1265 C.ar      1 <0>        -0.0815
     27 C20         2.4719   -0.1061    0.5079 C.ar      1 <0>        -0.0900
     28 C21         1.2816   -0.7994    0.5074 C.ar      1 <0>        -0.1781
     29 C22         0.1586   -0.2585    1.1194 C.ar      1 <0>         0.1174
     30 C23         0.2295    0.9892    1.7378 C.ar      1 <0>         0.0972
     31 C24         1.4187    1.6911    1.7432 C.ar      1 <0>        -0.1464
     32 O4         -0.8744    1.5175    2.3311 O.3       1 <0>        -0.3049
     33 C25        -0.7298    2.7995    2.9456 C.3       1 <0>         0.0204
     34 O5         -1.0124   -0.9467    1.1152 O.3       1 <0>        -0.3026
     35 C26        -1.0151   -2.2186    0.4640 C.3       1 <0>         0.0205
     36 H1          7.3772    5.7535   -0.0349 H         1 <0>         0.1009
     37 H2          7.9981    7.1476   -0.9823 H         1 <0>         0.0808
     38 H3          8.1583    7.1349    0.8068 H         1 <0>         0.0819
     39 H4          7.4234    4.2064   -0.0519 H         1 <0>         0.1700
     40 H5         11.7908    1.9274   -0.4580 H         1 <0>         0.1397
     41 H6         14.0518    4.6081   -0.6379 H         1 <0>         0.1029
     42 H7         13.2429    3.2420   -1.4782 H         1 <0>         0.0784
     43 H8         13.4014    3.2285    0.3111 H         1 <0>         0.0781
     44 H9         11.5129    0.0929    0.8418 H         1 <0>         0.0397
     45 H10        10.0049    0.1910    1.8127 H         1 <0>         0.0785
     46 H11        10.9360   -2.1235    1.8036 H         1 <0>         0.0699
     47 H12         9.3289   -2.0585    1.0038 H         1 <0>         0.0732
     48 H13        12.0599   -2.0339   -0.4015 H         1 <0>         0.0596
     49 H14        10.9045   -3.4083   -0.3501 H         1 <0>         0.0665
     50 H15        10.7217   -2.1050   -2.4863 H         1 <0>         0.0702
     51 H16         9.2026   -2.0483   -1.5294 H         1 <0>         0.0733
     52 H17         9.7948    0.2107   -2.3816 H         1 <0>         0.0796
     53 H18        11.3923    0.1043   -1.5672 H         1 <0>         0.0400
     54 H19         7.2284    0.5518   -0.4640 H         1 <0>         0.4477
     55 H20         4.8510    0.3770    0.0475 H         1 <0>         0.1358
     56 H21         3.8807    2.8732    1.6159 H         1 <0>         0.1399
     57 H22         3.3436   -0.5291    0.0308 H         1 <0>         0.1341
     58 H23         1.2217   -1.7663    0.0300 H         1 <0>         0.1406
     59 H24         1.4747    2.6577    2.2216 H         1 <0>         0.1418
     60 H25        -1.6909    3.1065    3.3838 H         1 <0>         0.1048
     61 H26        -0.4197    3.5357    2.1894 H         1 <0>         0.0576
     62 H27         0.0325    2.7431    3.7366 H         1 <0>         0.0576
     63 H28        -2.0183   -2.6643    0.5342 H         1 <0>         0.1049
     64 H29        -0.2845   -2.8813    0.9509 H         1 <0>         0.0583
     65 H30        -0.7445   -2.0892   -0.5943 H         1 <0>         0.0583
@<TRIPOS>BOND
     1    1    2 1
     2    1   36 1
     3    1   37 1
     4    1   38 1
     5    2   12 am
     6    2    3 1
     7    3    8 ar
     8    3    4 ar
     9    4    5 ar
    10    4   39 1
    11    5    6 ar
    12    5   21 1
    13    6    7 ar
    14    6   15 1
    15    7    8 ar
    16    7   40 1
    17    8    9 1
    18    9   10 am
    19    9   14 1
    20   10   11 2
    21   10   12 1
    22   12   13 2
    23   14   41 1
    24   14   42 1
    25   14   43 1
    26   15   20 1
    27   15   16 1
    28   16   17 1
    29   16   44 1
    30   16   45 1
    31   17   18 1
    32   17   46 1
    33   17   47 1
    34   18   19 1
    35   18   48 1
    36   18   49 1
    37   19   20 1
    38   19   50 1
    39   19   51 1
    40   20   52 1
    41   20   53 1
    42   21   22 am
    43   21   54 1
    44   22   23 2
    45   22   24 1
    46   24   25 2
    47   24   55 1
    48   25   26 1
    49   25   56 1
    50   26   31 ar
    51   26   27 ar
    52   27   28 ar
    53   27   57 1
    54   28   29 ar
    55   28   58 1
    56   29   30 ar
    57   29   34 1
    58   30   31 ar
    59   30   32 1
    60   31   59 1
    61   32   33 1
    62   33   60 1
    63   33   61 1
    64   33   62 1
    65   34   35 1
    66   35   63 1
    67   35   64 1
    68   35   65 1
@<TRIPOS>MOLECULE
ZINC39466266
   54    57     0     0     0
SMALL
USER_CHARGES

@<TRIPOS>ATOM
      1 C1         -2.7874    0.9388    0.9632 C.3       1 <0>        -0.1434
      2 C2         -2.4786   -0.5549    0.8432 C.3       1 <0>        -0.4880
      3 C3         -1.8265   -1.0464    2.1371 C.3       1 <0>        -0.1693
      4 S1         -4.0186   -1.4697    0.5569 S.o2      1 <0>         1.8572
      5 O1         -4.8925   -1.3165    1.6669 O.2       1 <0>        -0.8535
      6 O2         -4.4829   -1.2442   -0.7671 O.2       1 <0>        -0.8794
      7 P1         -3.4533   -3.5126    0.5913 P.3       1 <0>         1.4835
      8 O3         -2.8980   -3.8664    1.9168 O.2       1 <0>        -0.7645
      9 N1         -4.7536   -4.4712    0.2390 N.pl3     1 <0>        -0.9030
     10 N2         -4.4778   -5.7405   -0.2190 N.3       1 <0>        -0.2585
     11 C4         -5.7334   -6.4520   -0.5027 C.3       1 <0>         0.0251
     12 C5         -5.4267   -7.9384   -0.6841 C.3       1 <0>        -0.0821
     13 C6         -4.3199   -8.1082   -1.6931 C.ar      1 <0>         0.0026
     14 C7         -4.1542   -9.3469   -2.2928 C.ar      1 <0>        -0.1154
     15 C8         -3.1507   -9.5432   -3.2220 C.ar      1 <0>         0.0405
     16 C9         -2.3082   -8.4968   -3.5538 C.ar      1 <0>        -0.6840
     17 C10        -2.4741   -7.2641   -2.9568 C.ar      1 <0>         0.0050
     18 C11        -3.4816   -7.0653   -2.0227 C.ar      1 <0>        -0.0842
     19 C12        -3.6200   -5.7000   -1.4031 C.3       1 <0>         0.0254
     20 H1         -4.0657   -5.0268   -2.1354 H         1 <0>         0.0896
     21 C13        -2.2275   -5.1650   -1.0559 C.3       1 <0>         0.0978
     22 O4         -2.3598   -3.8128   -0.5744 O.3       1 <0>        -0.5964
     23 S2         -1.0256   -8.7382   -4.7376 S.o2      1 <0>         2.6744
     24 O5         -1.6251   -8.6045   -6.0189 O.2       1 <0>        -0.9133
     25 O6          0.0686   -7.9331   -4.3207 O.2       1 <0>        -0.9417
     26 O7         -0.5706  -10.1857   -4.6191 O.3       1 <0>        -0.6478
     27 C14         0.2393  -10.4253   -3.5544 C.ar      1 <0>         0.0628
     28 C15         1.6176  -10.3813   -3.7060 C.ar      1 <0>        -0.0894
     29 C16         2.4386  -10.6247   -2.6220 C.ar      1 <0>        -0.1002
     30 C17         1.8878  -10.9124   -1.3868 C.ar      1 <0>        -0.0969
     31 C18         0.5144  -10.9572   -1.2333 C.ar      1 <0>        -0.1001
     32 C19        -0.3110  -10.7085   -2.3128 C.ar      1 <0>        -0.1270
     33 Cl1        -2.9473  -11.0965   -3.9700 Cl        1 <0>        -0.0238
     34 H2         -1.8620    1.4884    1.1353 H         1 <0>         0.0964
     35 H3         -3.2519    1.2889    0.0414 H         1 <0>         0.0748
     36 H4         -3.4682    1.1031    1.7984 H         1 <0>         0.0798
     37 H5         -1.7977   -0.7193    0.0081 H         1 <0>         0.1509
     38 H6         -2.5074   -0.8821    2.9723 H         1 <0>         0.0871
     39 H7         -1.6065   -2.1106    2.0517 H         1 <0>         0.0881
     40 H8         -0.9011   -0.4968    2.3092 H         1 <0>         0.0976
     41 H9         -5.6643   -4.1558    0.3495 H         1 <0>         0.4112
     42 H10        -6.4241   -6.3204    0.3302 H         1 <0>         0.1085
     43 H11        -6.1791   -6.0568   -1.4156 H         1 <0>         0.0615
     44 H12        -5.1161   -8.3639    0.2701 H         1 <0>         0.1097
     45 H13        -6.3207   -8.4530   -1.0363 H         1 <0>         0.1056
     46 H14        -4.8125  -10.1625   -2.0322 H         1 <0>         0.1535
     47 H15        -1.8154   -6.4488   -3.2173 H         1 <0>         0.1537
     48 H16        -1.7795   -5.7870   -0.2809 H         1 <0>         0.0965
     49 H17        -1.5988   -5.1763   -1.9462 H         1 <0>         0.1292
     50 H18         2.0483  -10.1573   -4.6707 H         1 <0>         0.1414
     51 H19         3.5117  -10.5906   -2.7394 H         1 <0>         0.1416
     52 H20         2.5313  -11.1027   -0.5407 H         1 <0>         0.1374
     53 H21         0.0865  -11.1825   -0.2676 H         1 <0>         0.1391
     54 H22        -1.3837  -10.7393   -2.1913 H         1 <0>         0.1344
@<TRIPOS>BOND
     1    1    2 1
     2    1   34 1
     3    1   35 1
     4    1   36 1
     5    2    3 1
     6    2    4 1
     7    2   37 1
     8    3   38 1
     9    3   39 1
    10    3   40 1
    11    4    5 2
    12    4    6 2
    13    4    7 1
    14    7   22 1
    15    7    8 2
    16    7    9 1
    17    9   10 1
    18    9   41 1
    19   10   19 1
    20   10   11 1
    21   11   12 1
    22   11   42 1
    23   11   43 1
    24   12   13 1
    25   12   44 1
    26   12   45 1
    27   13   18 ar
    28   13   14 ar
    29   14   15 ar
    30   14   46 1
    31   15   16 ar
    32   15   33 1
    33   16   17 ar
    34   16   23 1
    35   17   18 ar
    36   17   47 1
    37   18   19 1
    38   19   20 1
    39   19   21 1
    40   21   22 1
    41   21   48 1
    42   21   49 1
    43   23   24 2
    44   23   25 2
    45   23   26 1
    46   26   27 1
    47   27   32 ar
    48   27   28 ar
    49   28   29 ar
    50   28   50 1
    51   29   30 ar
    52   29   51 1
    53   30   31 ar
    54   30   52 1
    55   31   32 ar
    56   31   53 1
    57   32   54 1
@<TRIPOS>MOLECULE
ZINC08791010
   64    69     0     0     0
SMALL
USER_CHARGES
chloro-[(4-hydroxyphenyl)methyl]-methyl-phenethyl-BLAHtrione
@<TRIPOS>ATOM
      1 C1          3.6799    2.1762   -0.0217 C.3       1 <0>        -0.1282
      2 C2          2.3817    1.4108   -0.0134 C.ar      1 <0>        -0.0691
      3 C3          2.3971    0.0313   -0.0206 C.ar      1 <0>        -0.0398
      4 C4          1.2105   -0.6804   -0.0130 C.ar      1 <0>        -0.0450
      5 C5          0.0021   -0.0041    0.0020 C.ar      1 <0>        -0.0424
      6 C6         -0.0166    1.3723    0.0096 C.ar      1 <0>        -0.1858
      7 C7          1.1711    2.0985    0.0021 C.ar      1 <0>         0.1740
      8 N1          0.8995    3.4689    0.0132 N.am      1 <0>        -0.6360
      9 C8         -0.4232    3.7239    0.0289 C.2       1 <0>         0.5284
     10 O1         -0.9498    4.8165    0.0419 O.2       1 <0>        -0.4188
     11 C9         -1.1204    2.3914    0.0317 C.3       1 <0>         0.0934
     12 C10        -2.0482    2.2421   -1.1806 C.3       1 <0>        -0.1198
     13 H1         -1.5568    1.7660   -2.0291 H         1 <0>         0.1849
     14 C11        -3.2585    1.4256   -0.6474 C.3       1 <0>        -0.1375
     15 H2         -3.4313    0.5090   -1.2114 H         1 <0>         0.1867
     16 C12        -2.9316    1.1563    0.8367 C.3       1 <0>         0.0440
     17 H3         -2.4650    0.1780    0.9523 H         1 <0>         0.1711
     18 C13        -4.2016    1.2426    1.6855 C.3       1 <0>        -0.0930
     19 C14        -3.8682    0.9301    3.1216 C.ar      1 <0>        -0.1395
     20 C15        -3.9355   -0.3734    3.5778 C.ar      1 <0>        -0.0810
     21 C16        -3.6249   -0.6633    4.8923 C.ar      1 <0>        -0.1351
     22 C17        -3.2566    0.3564    5.7578 C.ar      1 <0>         0.1299
     23 C18        -3.1952    1.6642    5.2991 C.ar      1 <0>        -0.1371
     24 C19        -3.5009    1.9481    3.9821 C.ar      1 <0>        -0.1164
     25 O2         -2.9568    0.0747    7.0531 O.3       1 <0>        -0.4973
     26 C20        -4.4178    2.3914   -0.7369 C.2       1 <0>         0.5218
     27 O3         -5.5599    2.1469   -0.4121 O.2       1 <0>        -0.4261
     28 N2         -3.9643    3.5649   -1.2343 N.am      1 <0>        -0.5694
     29 C21        -2.6574    3.5838   -1.5208 C.2       1 <0>         0.5150
     30 O4         -2.0552    4.5296   -1.9816 O.2       1 <0>        -0.4134
     31 C22        -4.8389    4.7208   -1.4470 C.3       1 <0>         0.1024
     32 C23        -5.4295    4.6608   -2.8571 C.3       1 <0>        -0.0914
     33 C24        -6.3292    5.8498   -3.0759 C.ar      1 <0>        -0.0953
     34 C25        -7.6735    5.7658   -2.7651 C.ar      1 <0>        -0.1121
     35 C26        -8.4978    6.8581   -2.9612 C.ar      1 <0>        -0.1164
     36 C27        -7.9799    8.0309   -3.4781 C.ar      1 <0>        -0.1135
     37 C28        -6.6366    8.1131   -3.7939 C.ar      1 <0>        -0.1161
     38 C29        -5.8112    7.0226   -3.5928 C.ar      1 <0>        -0.1118
     39 Cl1         1.2365   -2.4162   -0.0215 Cl        1 <0>        -0.0257
     40 H4          3.9831    2.3660   -1.0514 H         1 <0>         0.0896
     41 H5          3.5459    3.1247    0.4983 H         1 <0>         0.0721
     42 H6          4.4497    1.5914    0.4818 H         1 <0>         0.0890
     43 H7          3.3397   -0.4957   -0.0320 H         1 <0>         0.1602
     44 H8         -0.9258   -0.5566    0.0081 H         1 <0>         0.1485
     45 H9          1.5836    4.1566    0.0096 H         1 <0>         0.4391
     46 H10        -4.6151    2.2490    1.6193 H         1 <0>         0.1003
     47 H11        -4.9339    0.5239    1.3178 H         1 <0>         0.1411
     48 H12        -4.2273   -1.1661    2.9048 H         1 <0>         0.1371
     49 H13        -3.6730   -1.6823    5.2469 H         1 <0>         0.1397
     50 H14        -2.9091    2.4598    5.9710 H         1 <0>         0.1375
     51 H15        -3.4533    2.9660    3.6245 H         1 <0>         0.1220
     52 H16        -3.7170    0.1106    7.6495 H         1 <0>         0.4034
     53 H17        -5.6456    4.7057   -0.7142 H         1 <0>         0.1047
     54 H18        -4.2620    5.6386   -1.3335 H         1 <0>         0.1059
     55 H19        -4.6228    4.6759   -3.5899 H         1 <0>         0.0798
     56 H20        -6.0064    3.7429   -2.9707 H         1 <0>         0.0805
     57 H21        -8.0791    4.8481   -2.3654 H         1 <0>         0.1224
     58 H22        -9.5474    6.7937   -2.7149 H         1 <0>         0.1259
     59 H23        -8.6247    8.8828   -3.6355 H         1 <0>         0.1258
     60 H24        -6.2320    9.0293   -4.1980 H         1 <0>         0.1258
     61 H25        -4.7618    7.0868   -3.8398 H         1 <0>         0.1221
     62 N3         -1.9810    2.2134    1.1877 N.4       1 <0>        -0.4969
     63 H26        -2.4811    3.0856    1.3960 H         1 <0>         0.4356
     64 H27        -1.4253    1.9341    2.0046 H         1 <0>         0.4499
@<TRIPOS>BOND
     1    1    2 1
     2    1   40 1
     3    1   41 1
     4    1   42 1
     5    2    7 ar
     6    2    3 ar
     7    3    4 ar
     8    3   43 1
     9    4    5 ar
    10    4   39 1
    11    5    6 ar
    12    5   44 1
    13    6   11 1
    14    6    7 ar
    15    7    8 1
    16    8    9 am
    17    8   45 1
    18    9   10 2
    19    9   11 1
    20   11   12 1
    21   11   62 1
    22   12   13 1
    23   12   29 1
    24   12   14 1
    25   14   15 1
    26   14   16 1
    27   14   26 1
    28   16   17 1
    29   16   18 1
    30   16   62 1
    31   18   19 1
    32   18   46 1
    33   18   47 1
    34   19   24 ar
    35   19   20 ar
    36   20   21 ar
    37   20   48 1
    38   21   22 ar
    39   21   49 1
    40   22   23 ar
    41   22   25 1
    42   23   24 ar
    43   23   50 1
    44   24   51 1
    45   25   52 1
    46   26   27 2
    47   26   28 am
    48   28   29 am
    49   28   31 1
    50   29   30 2
    51   31   32 1
    52   31   53 1
    53   31   54 1
    54   32   33 1
    55   32   55 1
    56   32   56 1
    57   33   38 ar
    58   33   34 ar
    59   34   35 ar
    60   34   57 1
    61   35   36 ar
    62   35   58 1
    63   36   37 ar
    64   36   59 1
    65   37   38 ar
    66   37   60 1
    67   38   61 1
    68   62   63 1
    69   62   64 1
@<TRIPOS>MOLECULE
ZINC12881810
   64    69     0     0     0
SMALL
USER_CHARGES
(1R,3R,3aR,6aS)-6'-chloro-1-[(4-hydroxyphenyl)methyl]-7'-methyl-5-phenethyl-spiro[1,2,3a,6a-tetrahydropyrrolo[4,3-c]pyrrole-3,3'-indoline]-2',4,6-trione
@<TRIPOS>ATOM
      1 C1          1.2739   -2.1682   -0.0177 C.3       1 <0>        -0.1329
      2 C2          1.2291   -0.6619   -0.0115 C.ar      1 <0>        -0.0767
      3 C3          2.4051    0.0618   -0.0188 C.ar      1 <0>         0.0228
      4 C4          2.3737    1.4453   -0.0127 C.ar      1 <0>        -0.1108
      5 C5          1.1578    2.1060    0.0023 C.ar      1 <0>        -0.0356
      6 C6         -0.0168    1.3881    0.0097 C.ar      1 <0>        -0.1935
      7 C7          0.0021   -0.0041    0.0020 C.ar      1 <0>         0.1831
      8 N1         -1.3017   -0.5047    0.0089 N.am      1 <0>        -0.6287
      9 C8         -2.2231    0.4778    0.0216 C.2       1 <0>         0.5223
     10 O1         -3.4281    0.3403    0.0277 O.2       1 <0>        -0.4371
     11 C9         -1.4675    1.7785    0.0317 C.3       1 <0>         0.0939
     12 C10        -1.8052    2.6189    1.2689 C.3       1 <0>        -0.1193
     13 H1         -0.9264    3.0956    1.7032 H         1 <0>         0.1811
     14 C11        -2.8614    3.6444    0.7703 C.3       1 <0>        -0.1424
     15 H2         -2.5538    4.6787    0.9245 H         1 <0>         0.1782
     16 C12        -3.0718    3.3019   -0.7202 C.3       1 <0>         0.0419
     17 H3         -3.9289    2.6392   -0.8397 H         1 <0>         0.1602
     18 C13        -3.2693    4.5789   -1.5395 C.3       1 <0>        -0.0843
     19 C14        -3.5201    4.2173   -2.9808 C.ar      1 <0>        -0.1436
     20 C15        -2.4578    4.1007   -3.8581 C.ar      1 <0>        -0.1152
     21 C16        -2.6847    3.7638   -5.1785 C.ar      1 <0>        -0.1393
     22 C17        -3.9807    3.5534   -5.6266 C.ar      1 <0>         0.1298
     23 C18        -5.0453    3.6765   -4.7457 C.ar      1 <0>        -0.1361
     24 C19        -4.8127    4.0081   -3.4250 C.ar      1 <0>        -0.0806
     25 O2         -4.2069    3.2268   -6.9263 O.3       1 <0>        -0.4973
     26 C20        -4.1105    3.2850    1.5429 C.2       1 <0>         0.5362
     27 O3         -5.1764    3.8559    1.4557 O.2       1 <0>        -0.4344
     28 N2         -3.8566    2.2391    2.3377 N.am      1 <0>        -0.5538
     29 C21        -2.6024    1.7788    2.2659 C.2       1 <0>         0.5278
     30 O4         -2.1628    0.8423    2.8979 O.2       1 <0>        -0.4349
     31 C22        -4.8693    1.6461    3.2146 C.3       1 <0>         0.1027
     32 C23        -5.6115    0.5402    2.4616 C.3       1 <0>        -0.0847
     33 C24        -6.6532   -0.0698    3.3637 C.ar      1 <0>        -0.0944
     34 C25        -6.3302   -1.1538    4.1583 C.ar      1 <0>        -0.1126
     35 C26        -7.2844   -1.7103    4.9894 C.ar      1 <0>        -0.1162
     36 C27        -8.5645   -1.1891    5.0183 C.ar      1 <0>        -0.1139
     37 C28        -8.8890   -0.1087    4.2194 C.ar      1 <0>        -0.1157
     38 C29        -7.9333    0.4511    3.3923 C.ar      1 <0>        -0.1119
     39 Cl1         3.9300   -0.7677   -0.0362 Cl        1 <0>        -0.0168
     40 H4          1.2755   -2.5274   -1.0469 H         1 <0>         0.0904
     41 H5          2.1788   -2.5069    0.4867 H         1 <0>         0.0917
     42 H6          0.3997   -2.5599    0.5024 H         1 <0>         0.0743
     43 H7          3.2956    2.0078   -0.0184 H         1 <0>         0.1604
     44 H8          1.1304    3.1857    0.0078 H         1 <0>         0.1523
     45 H9         -1.5186   -1.4501    0.0054 H         1 <0>         0.4385
     46 H10        -4.1237    5.1322   -1.1497 H         1 <0>         0.1346
     47 H11        -2.3740    5.1969   -1.4705 H         1 <0>         0.1084
     48 H12        -1.4495    4.2689   -3.5098 H         1 <0>         0.1262
     49 H13        -1.8542    3.6686   -5.8624 H         1 <0>         0.1380
     50 H14        -6.0551    3.5129   -5.0921 H         1 <0>         0.1391
     51 H15        -5.6412    4.1044   -2.7389 H         1 <0>         0.1362
     52 H16        -4.3415    3.9892   -7.5057 H         1 <0>         0.4033
     53 H17        -4.3852    1.2242    4.0954 H         1 <0>         0.1041
     54 H18        -5.5781    2.4147    3.5228 H         1 <0>         0.1071
     55 H19        -6.0956    0.9621    1.5809 H         1 <0>         0.0790
     56 H20        -4.9026   -0.2283    2.1535 H         1 <0>         0.0791
     57 H21        -5.3313   -1.5636    4.1327 H         1 <0>         0.1201
     58 H22        -7.0310   -2.5547    5.6132 H         1 <0>         0.1254
     59 H23        -9.3110   -1.6263    5.6648 H         1 <0>         0.1259
     60 H24        -9.8892    0.2983    4.2418 H         1 <0>         0.1260
     61 H25        -8.1869    1.2952    2.7682 H         1 <0>         0.1223
     62 N3         -1.8397    2.6076   -1.1013 N.4       1 <0>        -0.4872
     63 H26        -2.0032    2.0237   -1.9299 H         1 <0>         0.4454
     64 H27        -1.0972    3.2875   -1.3028 H         1 <0>         0.4422
@<TRIPOS>BOND
     1    1    2 1
     2    1   40 1
     3    1   41 1
     4    1   42 1
     5    2    7 ar
     6    2    3 ar
     7    3    4 ar
     8    3   39 1
     9    4    5 ar
    10    4   43 1
    11    5    6 ar
    12    5   44 1
    13    6   11 1
    14    6    7 ar
    15    7    8 1
    16    8    9 am
    17    8   45 1
    18    9   10 2
    19    9   11 1
    20   11   12 1
    21   11   62 1
    22   12   13 1
    23   12   29 1
    24   12   14 1
    25   14   15 1
    26   14   16 1
    27   14   26 1
    28   16   17 1
    29   16   18 1
    30   16   62 1
    31   18   19 1
    32   18   46 1
    33   18   47 1
    34   19   24 ar
    35   19   20 ar
    36   20   21 ar
    37   20   48 1
    38   21   22 ar
    39   21   49 1
    40   22   23 ar
    41   22   25 1
    42   23   24 ar
    43   23   50 1
    44   24   51 1
    45   25   52 1
    46   26   27 2
    47   26   28 am
    48   28   29 am
    49   28   31 1
    50   29   30 2
    51   31   32 1
    52   31   53 1
    53   31   54 1
    54   32   33 1
    55   32   55 1
    56   32   56 1
    57   33   38 ar
    58   33   34 ar
    59   34   35 ar
    60   34   57 1
    61   35   36 ar
    62   35   58 1
    63   36   37 ar
    64   36   59 1
    65   37   38 ar
    66   37   60 1
    67   38   61 1
    68   62   63 1
    69   62   64 1
@<TRIPOS>MOLECULE
ZINC01920765
   56    59     0     0     0
SMALL
USER_CHARGES
ethyl 2-[(3-amino-4,6-dimethyl-thieno[2,3-b]pyridine-2-carbonyl)amino]-4-(p-tolyl)thiophene-3-carboxylate
@<TRIPOS>ATOM
      1 C1          2.2780    1.9134   -1.5676 C.3       1 <0>        -0.1549
      2 C2          1.1753    0.8529   -1.5757 C.3       1 <0>         0.0551
      3 O1         -0.0910    1.4839   -1.7763 O.3       1 <0>        -0.3425
      4 C3         -1.1761    0.6830   -1.8094 C.2       1 <0>         0.5329
      5 O2         -1.0493   -0.5191   -1.6715 O.2       1 <0>        -0.4900
      6 C4         -2.5041    1.2591   -2.0171 C.2       1 <0>        -0.1965
      7 C5         -3.3318    1.6846   -0.9040 C.2       1 <0>        -0.0207
      8 C6         -4.5470    2.2054   -1.2111 C.2       1 <0>        -0.2152
      9 S1         -4.5885    2.1286   -2.9894 S.3       1 <0>         0.2528
     10 C7         -3.0330    1.4312   -3.2900 C.2       1 <0>         0.0779
     11 N1         -2.4550    1.1178   -4.5079 N.am      1 <0>        -0.6262
     12 C8         -3.1240    1.3579   -5.6530 C.2       1 <0>         0.6226
     13 O3         -4.2372    1.8505   -5.6161 O.2       1 <0>        -0.5075
     14 C9         -2.5325    1.0371   -6.8995 C.2       1 <0>        -0.3558
     15 C10        -3.0585    1.2023   -8.1623 C.2       1 <0>         0.3287
     16 C11        -2.2523    0.7986   -9.3039 C.ar      1 <0>        -0.1557
     17 C12        -2.5711    0.8729  -10.6829 C.ar      1 <0>         0.1073
     18 C13        -1.6545    0.4239  -11.6040 C.ar      1 <0>        -0.1707
     19 C14        -0.4370   -0.0941  -11.1873 C.ar      1 <0>         0.2393
     20 N2         -0.1437   -0.1613   -9.9035 N.ar      1 <0>        -0.4500
     21 C15        -0.9874    0.2555   -8.9839 C.ar      1 <0>         0.0942
     22 S2         -0.9327    0.3161   -7.2100 S.3       1 <0>         0.2321
     23 C16         0.5575   -0.5824  -12.2088 C.3       1 <0>        -0.1491
     24 C17        -3.8949    1.4352  -11.1326 C.3       1 <0>        -0.1687
     25 N3         -4.3238    1.7438   -8.3407 N.pl3     1 <0>        -0.8294
     26 C18        -2.8730    1.5564    0.4997 C.ar      1 <0>        -0.0555
     27 C19        -2.3679    0.3422    0.9627 C.ar      1 <0>        -0.1024
     28 C20        -1.9378    0.2302    2.2691 C.ar      1 <0>        -0.1192
     29 C21        -2.0165    1.3169    3.1216 C.ar      1 <0>        -0.0745
     30 C22        -2.5216    2.5227    2.6693 C.ar      1 <0>        -0.1195
     31 C23        -2.9503    2.6480    1.3636 C.ar      1 <0>        -0.0924
     32 C24        -1.5504    1.1864    4.5488 C.3       1 <0>        -0.1219
     33 H1          3.2528    1.4276   -1.4132 H         1 <0>         0.0837
     34 H2          2.0921    2.6294   -0.7535 H         1 <0>         0.0706
     35 H3          2.2819    2.4456   -2.5303 H         1 <0>         0.0656
     36 H4          1.3612    0.1369   -2.3898 H         1 <0>         0.0668
     37 H5          1.1713    0.3207   -0.6130 H         1 <0>         0.0726
     38 H6         -5.3058    2.5773   -0.5386 H         1 <0>         0.1970
     39 H7         -1.4496    0.6728   -4.5413 H         1 <0>         0.4380
     40 H8         -1.8839    0.4744  -12.6581 H         1 <0>         0.1905
     41 H9          1.4566   -0.9551  -11.6962 H         1 <0>         0.0997
     42 H10         0.8335    0.2465  -12.8772 H         1 <0>         0.1280
     43 H11         0.1083   -1.3950  -12.7986 H         1 <0>         0.1280
     44 H12        -3.9511    1.4072  -12.2308 H         1 <0>         0.1138
     45 H13        -3.9878    2.4754  -10.7871 H         1 <0>         0.1131
     46 H14        -4.7121    0.8335  -10.7081 H         1 <0>         0.1129
     47 H15        -4.7302    1.8695   -9.3551 H         1 <0>         0.4266
     48 H16        -4.9203    2.0473   -7.4677 H         1 <0>         0.4614
     49 H17        -2.3102   -0.5081    0.2993 H         1 <0>         0.1274
     50 H18        -1.5425   -0.7086    2.6278 H         1 <0>         0.1248
     51 H19        -2.5810    3.3675    3.3395 H         1 <0>         0.1275
     52 H20        -3.3451    3.5896    1.0118 H         1 <0>         0.1268
     53 H21        -1.6892    2.1456    5.0690 H         1 <0>         0.0683
     54 H22        -0.4852    0.9123    4.5630 H         1 <0>         0.0720
     55 H23        -2.1366    0.4060    5.0560 H         1 <0>         0.0733
     56 H24         0.8242   -0.5727   -9.5813 H         1 <0>         0.4874
@<TRIPOS>BOND
     1    1    2 1
     2    1   33 1
     3    1   34 1
     4    1   35 1
     5    2    3 1
     6    2   36 1
     7    2   37 1
     8    3    4 1
     9    4    5 2
    10    4    6 1
    11    6   10 2
    12    6    7 1
    13    7    8 2
    14    7   26 1
    15    8    9 1
    16    8   38 1
    17    9   10 1
    18   10   11 1
    19   11   12 am
    20   11   39 1
    21   12   13 2
    22   12   14 1
    23   14   22 1
    24   14   15 2
    25   15   16 1
    26   15   25 1
    27   16   21 ar
    28   16   17 ar
    29   17   18 ar
    30   17   24 1
    31   18   19 ar
    32   18   40 1
    33   19   20 ar
    34   19   23 1
    35   20   21 ar
    36   20   56 1
    37   21   22 1
    38   23   41 1
    39   23   42 1
    40   23   43 1
    41   24   44 1
    42   24   45 1
    43   24   46 1
    44   25   47 1
    45   25   48 1
    46   26   31 ar
    47   26   27 ar
    48   27   28 ar
    49   27   49 1
    50   28   29 ar
    51   28   50 1
    52   29   30 ar
    53   29   32 1
    54   30   31 ar
    55   30   51 1
    56   31   52 1
    57   32   53 1
    58   32   54 1
    59   32   55 1
@<TRIPOS>MOLECULE
ZINC40645205
   59    62     0     0     0
SMALL
USER_CHARGES

@<TRIPOS>ATOM
      1 C1         -0.3459    1.3710   -0.0489 C.3       1 <0>        -0.1158
      2 C2         -0.4232   -0.1340   -0.0645 C.ar      1 <0>        -0.0251
      3 C3         -0.4984   -0.7965   -1.2622 C.ar      1 <0>        -0.1126
      4 C4         -0.5711   -2.1803   -1.3216 C.ar      1 <0>        -0.0858
      5 C5         -0.5676   -2.9099   -0.1463 C.ar      1 <0>        -0.0711
      6 C6         -0.4926   -2.2552    1.0570 C.ar      1 <0>        -0.1722
      7 C7         -0.4116   -0.8472    1.1560 C.ar      1 <0>         0.0908
      8 N1         -0.3374   -0.3521    2.4107 N.2       1 <0>        -0.5259
      9 C8         -0.3352   -1.1227    3.4742 C.2       1 <0>         0.3362
     10 S1         -0.4592   -2.7569    2.7611 S.3       1 <0>         0.1255
     11 N2         -0.2648   -0.7613    4.8066 N.pl3     1 <0>        -0.5769
     12 C9         -0.2762   -1.7390    5.7928 C.ar      1 <0>         0.5157
     13 C10        -0.2116   -1.3862    7.1370 C.ar      1 <0>        -0.2522
     14 C11        -0.2261   -2.4034    8.0868 C.ar      1 <0>         0.5207
     15 N3         -0.3008   -3.6686    7.6776 N.ar      1 <0>        -0.5822
     16 C12        -0.3604   -3.9617    6.3947 C.ar      1 <0>         0.4247
     17 N4         -0.3546   -3.0273    5.4658 N.ar      1 <0>        -0.5705
     18 N5         -0.1633   -2.1041    9.4389 N.pl3     1 <0>        -0.6992
     19 C13        -0.1793   -3.1857   10.4318 C.3       1 <0>         0.1478
     20 C14        -1.6298   -3.5422   10.7629 C.3       1 <0>        -0.1451
     21 C15        -1.6634   -4.6594   11.8053 C.3       1 <0>         0.0607
     22 N6         -0.8861   -4.3274   12.9900 N.4       1 <0>        -0.4925
     23 C16         0.4466   -3.7801   12.7921 C.3       1 <0>         0.0649
     24 C17         0.5005   -2.7039   11.7129 C.3       1 <0>        -0.1458
     25 C18         0.8787   -3.1178   14.1221 C.3       1 <0>        -0.1812
     26 C19         1.4697   -4.8772   12.4867 C.3       1 <0>        -0.1755
     27 C20        -3.1356   -4.8310   12.2458 C.3       1 <0>        -0.1800
     28 C21        -1.2211   -5.9811   11.1783 C.3       1 <0>        -0.1703
     29 N7         -0.1291    0.0339    7.5464 N.pl3     1 <0>         0.0248
     30 O1         -1.1405    0.6639    7.7507 O.2       1 <0>        -0.1240
     31 O2          0.9498    0.5638    7.6764 O.3       1 <0>        -0.1227
     32 H1          0.6982    1.6816   -0.0855 H         1 <0>         0.0755
     33 H2         -0.8745    1.7709   -0.9142 H         1 <0>         0.0718
     34 H3         -0.8057    1.7490    0.8643 H         1 <0>         0.0736
     35 H4         -0.5016   -0.2280   -2.1805 H         1 <0>         0.1373
     36 H5         -0.6301   -2.6831   -2.2757 H         1 <0>         0.1420
     37 H6         -0.6240   -3.9880   -0.1758 H         1 <0>         0.1353
     38 H7         -0.2075    0.1752    5.0527 H         1 <0>         0.4363
     39 H8         -0.4199   -4.9978    6.0958 H         1 <0>         0.2268
     40 H9         -0.1087   -1.1801    9.7291 H         1 <0>         0.4174
     41 H10         0.3427   -4.0469   10.0248 H         1 <0>         0.1195
     42 H11        -2.1404   -2.6617   11.1558 H         1 <0>         0.0927
     43 H12        -2.1374   -3.8760    9.8562 H         1 <0>         0.1168
     44 H13        -1.4258   -3.6646   13.5524 H         1 <0>         0.4257
     45 H14         1.5432   -2.4561   11.4978 H         1 <0>         0.1191
     46 H15        -0.0042   -1.8032   12.0727 H         1 <0>         0.0972
     47 H16         0.8879   -3.8662   14.9145 H         1 <0>         0.0867
     48 H17         1.8772   -2.6951   14.0100 H         1 <0>         0.1081
     49 H18         0.1755   -2.3255   14.3788 H         1 <0>         0.0827
     50 H19         1.2413   -5.3285   11.5212 H         1 <0>         0.0836
     51 H20         2.4694   -4.4438   12.4577 H         1 <0>         0.1062
     52 H21         1.4270   -5.6404   13.2638 H         1 <0>         0.0853
     53 H22        -3.7450   -5.0951   11.3815 H         1 <0>         0.1071
     54 H23        -3.2016   -5.6225   12.9923 H         1 <0>         0.0852
     55 H24        -3.4980   -3.8965   12.6740 H         1 <0>         0.0815
     56 H25        -0.2526   -5.8483   10.6961 H         1 <0>         0.0845
     57 H26        -1.1393   -6.7420   11.9545 H         1 <0>         0.0819
     58 H27        -1.9560   -6.2955   10.4372 H         1 <0>         0.1068
     59 H28        -0.8071   -5.1676   13.5682 H         1 <0>         0.4280
@<TRIPOS>BOND
     1    1    2 1
     2    1   32 1
     3    1   33 1
     4    1   34 1
     5    2    7 ar
     6    2    3 ar
     7    3    4 ar
     8    3   35 1
     9    4    5 ar
    10    4   36 1
    11    5    6 ar
    12    5   37 1
    13    6   10 1
    14    6    7 ar
    15    7    8 1
    16    8    9 2
    17    9   10 1
    18    9   11 1
    19   11   12 1
    20   11   38 1
    21   12   17 ar
    22   12   13 ar
    23   13   14 ar
    24   13   29 1
    25   14   15 ar
    26   14   18 1
    27   15   16 ar
    28   16   17 ar
    29   16   39 1
    30   18   19 1
    31   18   40 1
    32   19   24 1
    33   19   20 1
    34   19   41 1
    35   20   21 1
    36   20   42 1
    37   20   43 1
    38   21   22 1
    39   21   27 1
    40   21   28 1
    41   22   23 1
    42   22   44 1
    43   22   59 1
    44   23   24 1
    45   23   25 1
    46   23   26 1
    47   24   45 1
    48   24   46 1
    49   25   47 1
    50   25   48 1
    51   25   49 1
    52   26   50 1
    53   26   51 1
    54   26   52 1
    55   27   53 1
    56   27   54 1
    57   27   55 1
    58   28   56 1
    59   28   57 1
    60   28   58 1
    61   29   30 2
    62   29   31 1
@<TRIPOS>MOLECULE
ZINC59170508
   65    68     0     0     0
SMALL
USER_CHARGES

@<TRIPOS>ATOM
      1 C1         -0.6278    1.3180   -0.1205 C.3       1 <0>        -0.1558
      2 C2         -0.9502   -0.0445   -0.7375 C.3       1 <0>        -0.0347
      3 C3         -1.0996   -1.0852    0.3741 C.3       1 <0>        -0.1464
      4 C4         -2.2573    0.0496   -1.5271 C.3       1 <0>        -0.1463
      5 C5          0.1670   -0.4542   -1.6623 C.ar      1 <0>        -0.0448
      6 C6          0.0909   -1.6512   -2.3378 C.ar      1 <0>        -0.0308
      7 C7          1.1303   -2.0313   -3.1961 C.ar      1 <0>        -0.1521
      8 C8          1.0774   -3.3040   -3.9194 C.2       1 <0>         0.1767
      9 C9          2.2460   -3.7403   -4.5298 C.2       1 <0>        -0.2736
     10 C10         3.4376   -2.8791   -4.3941 C.2       1 <0>         0.5222
     11 N1          4.6503   -3.3853   -4.4549 N.pl3     1 <0>        -0.5177
     12 C11         5.7314   -2.5572   -4.5796 C.ar      1 <0>         0.0868
     13 C12         5.7026   -1.4974   -5.4895 C.ar      1 <0>        -0.1157
     14 C13         6.7967   -0.6663   -5.6099 C.ar      1 <0>         0.0034
     15 C14         7.9211   -0.8802   -4.8322 C.ar      1 <0>        -0.6491
     16 C15         7.9570   -1.9281   -3.9292 C.ar      1 <0>         0.0074
     17 C16         6.8679   -2.7635   -3.7936 C.ar      1 <0>        -0.1090
     18 S1          9.3141    0.1868   -4.9928 S.o2      1 <0>         2.6980
     19 O1         10.4441   -0.5510   -4.5479 O.2       1 <0>        -0.9459
     20 O2          9.2405    0.7579   -6.2919 O.2       1 <0>        -0.9437
     21 N2          9.1062    1.4287   -3.9174 N.pl3     1 <0>        -1.2430
     22 O3          3.2435   -1.5491   -4.2052 O.3       1 <0>        -0.1921
     23 C17         2.2416   -1.1860   -3.3670 C.ar      1 <0>         0.0819
     24 C18         2.2997    0.0189   -2.6737 C.ar      1 <0>         0.1316
     25 C19         1.2620    0.3800   -1.8312 C.ar      1 <0>        -0.0622
     26 O4          3.3706    0.8426   -2.8276 O.3       1 <0>        -0.4753
     27 C20         2.2947   -5.0068   -5.2794 C.2       1 <0>         0.5726
     28 O5          1.3337   -5.7526   -5.2764 O.2       1 <0>        -0.4667
     29 N3          3.4039   -5.3397   -5.9686 N.am      1 <0>        -0.6710
     30 C21         3.4331   -6.5193   -6.7190 C.ar      1 <0>         0.1592
     31 C22         2.6894   -7.6206   -6.3132 C.ar      1 <0>        -0.1544
     32 C23         2.7179   -8.7855   -7.0547 C.ar      1 <0>        -0.0553
     33 C24         3.4858   -8.8591   -8.2016 C.ar      1 <0>        -0.2067
     34 C25         4.2306   -7.7625   -8.6118 C.ar      1 <0>         0.1532
     35 C26         4.2005   -6.5898   -7.8732 C.ar      1 <0>        -0.1756
     36 O6          4.9854   -7.8366   -9.7395 O.3       1 <0>        -0.3140
     37 C27         4.9650   -9.0741  -10.4536 C.3       1 <0>         0.0242
     38 H1          0.3034    1.2509    0.4420 H         1 <0>         0.0640
     39 H2         -0.5214    2.0593   -0.9124 H         1 <0>         0.0639
     40 H3         -1.4359    1.6142    0.5484 H         1 <0>         0.0747
     41 H4         -1.9076   -0.7889    1.0430 H         1 <0>         0.0742
     42 H5         -1.3292   -2.0559   -0.0655 H         1 <0>         0.0609
     43 H6         -0.1684   -1.1522    0.9366 H         1 <0>         0.0617
     44 H7         -2.1508    0.7910   -2.3190 H         1 <0>         0.0623
     45 H8         -2.4869   -0.9211   -1.9666 H         1 <0>         0.0612
     46 H9         -3.0653    0.3458   -0.8582 H         1 <0>         0.0740
     47 H10        -0.7665   -2.2946   -2.2063 H         1 <0>         0.1648
     48 H11         0.1657   -3.8801   -3.9761 H         1 <0>         0.2035
     49 H12         4.8258   -1.3296   -6.0974 H         1 <0>         0.1468
     50 H13         6.7759    0.1531   -6.3131 H         1 <0>         0.1662
     51 H14         8.8380   -2.0893   -3.3257 H         1 <0>         0.1677
     52 H15         6.8953   -3.5779   -3.0848 H         1 <0>         0.1563
     53 H16         9.8787    1.8640   -3.5240 H         1 <0>         0.4286
     54 H17         8.2121    1.7209   -3.6808 H         1 <0>         0.4179
     55 H18         1.3077    1.3178   -1.2975 H         1 <0>         0.1719
     56 H19         3.2723    1.4863   -3.5425 H         1 <0>         0.4079
     57 H20         4.1821   -4.7611   -5.9442 H         1 <0>         0.3947
     58 H21         2.0889   -7.5658   -5.4172 H         1 <0>         0.1464
     59 H22         2.1395   -9.6406   -6.7376 H         1 <0>         0.1377
     60 H23         3.5063   -9.7715   -8.7792 H         1 <0>         0.1373
     61 H24         4.7763   -5.7340   -8.1932 H         1 <0>         0.1337
     62 H25         5.3264   -9.8732   -9.8063 H         1 <0>         0.0608
     63 H26         3.9451   -9.2950  -10.7687 H         1 <0>         0.0608
     64 H27         5.6078   -8.9982  -11.3306 H         1 <0>         0.1071
     65 H28         4.7777   -4.3459   -4.4114 H         1 <0>         0.4581
@<TRIPOS>BOND
     1    1    2 1
     2    1   38 1
     3    1   39 1
     4    1   40 1
     5    2    3 1
     6    2    4 1
     7    2    5 1
     8    3   41 1
     9    3   42 1
    10    3   43 1
    11    4   44 1
    12    4   45 1
    13    4   46 1
    14    5   25 ar
    15    5    6 ar
    16    6    7 ar
    17    6   47 1
    18    7   23 ar
    19    7    8 1
    20    8    9 2
    21    8   48 1
    22    9   10 1
    23    9   27 1
    24   10   11 2
    25   10   22 1
    26   11   12 1
    27   11   65 1
    28   12   17 ar
    29   12   13 ar
    30   13   14 ar
    31   13   49 1
    32   14   15 ar
    33   14   50 1
    34   15   16 ar
    35   15   18 1
    36   16   17 ar
    37   16   51 1
    38   17   52 1
    39   18   19 2
    40   18   20 2
    41   18   21 1
    42   21   53 1
    43   21   54 1
    44   22   23 1
    45   23   24 ar
    46   24   25 ar
    47   24   26 1
    48   25   55 1
    49   26   56 1
    50   27   28 2
    51   27   29 am
    52   29   30 1
    53   29   57 1
    54   30   35 ar
    55   30   31 ar
    56   31   32 ar
    57   31   58 1
    58   32   33 ar
    59   32   59 1
    60   33   34 ar
    61   33   60 1
    62   34   35 ar
    63   34   36 1
    64   35   61 1
    65   36   37 1
    66   37   62 1
    67   37   63 1
    68   37   64 1
@<TRIPOS>MOLECULE
ZINC08646988
   58    61     0     0     0
SMALL
USER_CHARGES
3-[2-[1-(3-fluoro-4-methyl-phenyl)-2,5-dimethyl-pyrrol-3-yl]-2-oxo-ethyl]-5-methyl-5-(4-nitrophenyl)-imidazolidine-2,4-dione
@<TRIPOS>ATOM
      1 C1         -5.3172   -0.1259   12.2515 C.3       1 <0>        -0.1202
      2 C2         -4.7941   -0.5244   10.8956 C.ar      1 <0>        -0.1036
      3 C3         -3.4310   -0.5741   10.6690 C.ar      1 <0>        -0.0783
      4 C4         -2.9483   -0.9444    9.4292 C.ar      1 <0>        -0.1134
      5 C5         -3.8326   -1.2577    8.4053 C.ar      1 <0>         0.1281
      6 C6         -5.2006   -1.2077    8.6335 C.ar      1 <0>        -0.1376
      7 C7         -5.6794   -0.8407    9.8787 C.ar      1 <0>         0.1125
      8 F1         -7.0107   -0.7914   10.1027 F         1 <0>        -0.1275
      9 N1         -3.3444   -1.6295    7.1453 N.pl3     1 <0>        -0.3929
     10 C8         -3.5043   -2.8637    6.5793 C.2       1 <0>         0.0207
     11 C9         -2.9193   -2.8732    5.3700 C.2       1 <0>        -0.1474
     12 C10        -2.3428   -1.5355    5.1772 C.2       1 <0>        -0.2621
     13 C11        -2.6513   -0.8213    6.3199 C.2       1 <0>         0.1299
     14 C12        -2.2765    0.6122    6.5950 C.3       1 <0>        -0.1008
     15 C13        -1.5993   -1.0552    4.0108 C.2       1 <0>         0.4168
     16 O1         -1.1823    0.0841    3.9841 O.2       1 <0>        -0.4581
     17 C14        -1.3519   -1.9757    2.8436 C.3       1 <0>         0.0938
     18 N2         -0.5928   -1.2637    1.8125 N.am      1 <0>        -0.5646
     19 C15        -1.1540   -0.5576    0.8112 C.2       1 <0>         0.5401
     20 O2         -2.3374   -0.3975    0.6018 O.2       1 <0>        -0.4505
     21 C16         0.0021   -0.0041    0.0020 C.3       1 <0>         0.1629
     22 N3          1.1921   -0.5101    0.7075 N.am      1 <0>        -0.7176
     23 C17         0.7433   -1.2337    1.7491 C.2       1 <0>         0.7108
     24 O3          1.4702   -1.7970    2.5436 O.2       1 <0>        -0.5268
     25 C18        -0.0387   -0.5335   -1.4329 C.3       1 <0>        -0.1462
     26 C19        -0.0184    1.5028    0.0103 C.ar      1 <0>        -0.0446
     27 C20        -1.2248    2.1776    0.0197 C.ar      1 <0>        -0.1028
     28 C21        -1.2435    3.5598    0.0318 C.ar      1 <0>        -0.0464
     29 C22        -0.0559    4.2672    0.0247 C.ar      1 <0>        -0.0358
     30 C23         1.1505    3.5924    0.0104 C.ar      1 <0>        -0.0507
     31 C24         1.1693    2.2102    0.0028 C.ar      1 <0>        -0.0952
     32 N4         -0.0759    5.7472    0.0329 N.pl3     1 <0>         0.0251
     33 O4          0.9705    6.3705    0.0270 O.2       1 <0>        -0.1539
     34 O5         -1.1389    6.3418    0.0454 O.3       1 <0>        -0.1533
     35 C25        -4.2275   -4.0263    7.2088 C.3       1 <0>        -0.0885
     36 H1         -5.4299   -1.0143   12.8730 H         1 <0>         0.0809
     37 H2         -4.6155    0.5614   12.7241 H         1 <0>         0.0782
     38 H3         -6.2846    0.3634   12.1383 H         1 <0>         0.0747
     39 H4         -2.7429   -0.3269   11.4638 H         1 <0>         0.1461
     40 H5         -1.8833   -0.9871    9.2549 H         1 <0>         0.1387
     41 H6         -5.8906   -1.4544    7.8401 H         1 <0>         0.1439
     42 H7         -2.8785   -3.7010    4.6776 H         1 <0>         0.1550
     43 H8         -3.0646    1.2704    6.2293 H         1 <0>         0.0823
     44 H9         -2.1522    0.7557    7.6684 H         1 <0>         0.0696
     45 H10        -1.3416    0.8474    6.0864 H         1 <0>         0.1005
     46 H11        -2.2272   -2.2766    2.4650 H         1 <0>         0.1157
     47 H12        -0.7837   -2.8433    3.1791 H         1 <0>         0.1341
     48 H13         2.1187   -0.3528    0.4675 H         1 <0>         0.4428
     49 H14         0.8284   -0.1649   -1.9809 H         1 <0>         0.0872
     50 H15        -0.0233   -1.6233   -1.4187 H         1 <0>         0.0808
     51 H16        -0.9504   -0.1894   -1.9213 H         1 <0>         0.0908
     52 H17        -2.1526    1.6249    0.0211 H         1 <0>         0.1627
     53 H18        -2.1860    4.0870    0.0433 H         1 <0>         0.1599
     54 H19         2.0784    4.1450    0.0049 H         1 <0>         0.1599
     55 H20         2.1118    1.6830   -0.0087 H         1 <0>         0.1477
     56 H21        -5.2803   -3.9944    6.9281 H         1 <0>         0.0747
     57 H22        -3.7867   -4.9602    6.8603 H         1 <0>         0.0863
     58 H23        -4.1387   -3.9651    8.2935 H         1 <0>         0.0657
@<TRIPOS>BOND
     1    1    2 1
     2    1   36 1
     3    1   37 1
     4    1   38 1
     5    2    7 ar
     6    2    3 ar
     7    3    4 ar
     8    3   39 1
     9    4    5 ar
    10    4   40 1
    11    5    6 ar
    12    5    9 1
    13    6    7 ar
    14    6   41 1
    15    7    8 1
    16    9   13 1
    17    9   10 1
    18   10   11 2
    19   10   35 1
    20   11   12 1
    21   11   42 1
    22   12   13 2
    23   12   15 1
    24   13   14 1
    25   14   43 1
    26   14   44 1
    27   14   45 1
    28   15   16 2
    29   15   17 1
    30   17   18 1
    31   17   46 1
    32   17   47 1
    33   18   23 am
    34   18   19 am
    35   19   20 2
    36   19   21 1
    37   21   22 1
    38   21   25 1
    39   21   26 1
    40   22   23 am
    41   22   48 1
    42   23   24 2
    43   25   49 1
    44   25   50 1
    45   25   51 1
    46   26   31 ar
    47   26   27 ar
    48   27   28 ar
    49   27   52 1
    50   28   29 ar
    51   28   53 1
    52   29   30 ar
    53   29   32 1
    54   30   31 ar
    55   30   54 1
    56   31   55 1
    57   32   33 2
    58   32   34 1
    59   35   56 1
    60   35   57 1
    61   35   58 1
@<TRIPOS>MOLECULE
ZINC09126863
   47    51     0     0     0
SMALL
USER_CHARGES
4-fluoro-N-[3-(1-phenyltetrazol-5-yl)sulfanylquinoxalin-2-yl]benzenesulfonamide
@<TRIPOS>ATOM
      1 C1         -3.2743   -2.5818    0.0214 C.ar      1 <0>        -0.1008
      2 C2         -2.1321   -2.9228   -0.6795 C.ar      1 <0>        -0.0974
      3 C3         -1.0451   -2.0708   -0.6879 C.ar      1 <0>        -0.0909
      4 C4         -1.1000   -0.8709    0.0083 C.ar      1 <0>         0.1153
      5 C5         -2.2461   -0.5336    0.7154 C.ar      1 <0>        -0.1202
      6 C6         -3.3321   -1.3872    0.7154 C.ar      1 <0>        -0.0921
      7 N1          0.0021   -0.0041    0.0020 N.pl3     1 <0>        -0.3106
      8 C7         -0.0163    1.3525    0.0095 C.2       1 <0>         0.1908
      9 N2          1.2358    1.7552   -0.0003 N.2       1 <0>        -0.2577
     10 N3          2.0324    0.7481   -0.0133 N.2       1 <0>        -0.0332
     11 N4          1.3637   -0.3539   -0.0129 N.2       1 <0>        -0.0634
     12 S1         -1.4472    2.3807    0.0222 S.3       1 <0>         0.2174
     13 C8         -0.6831    3.9684    0.0270 C.ar      1 <0>         0.0242
     14 C9         -1.4850    5.1349    0.0315 C.ar      1 <0>         0.3968
     15 N5         -0.9265    6.3274    0.0411 N.ar      1 <0>        -0.4650
     16 C10         0.4105    6.4374    0.0350 C.ar      1 <0>         0.1343
     17 C11         1.0292    7.6975    0.0385 C.ar      1 <0>        -0.0998
     18 C12         2.3888    7.7835    0.0317 C.ar      1 <0>        -0.0733
     19 C13         3.1777    6.6363    0.0214 C.ar      1 <0>        -0.1088
     20 C14         2.6108    5.3976    0.0178 C.ar      1 <0>        -0.0560
     21 C15         1.2123    5.2711    0.0246 C.ar      1 <0>         0.0634
     22 N6          0.6310    4.0626    0.0210 N.ar      1 <0>        -0.3301
     23 N7         -2.8667    5.0212    0.0320 N.pl3     1 <0>        -1.0257
     24 S2         -3.8096    6.3826    0.0373 S.o2      1 <0>         2.6893
     25 O1         -5.1601    5.9414    0.0096 O.2       1 <0>        -0.9376
     26 O2         -3.3036    7.2231    1.0653 O.2       1 <0>        -0.9144
     27 C16        -3.5224    7.2211   -1.4856 C.ar      1 <0>        -0.6904
     28 C17        -2.5210    8.1701   -1.5734 C.ar      1 <0>         0.0322
     29 C18        -2.2916    8.8249   -2.7686 C.ar      1 <0>        -0.1798
     30 C19        -3.0723    8.5377   -3.8755 C.ar      1 <0>         0.1634
     31 C20        -4.0784    7.5908   -3.7850 C.ar      1 <0>        -0.1787
     32 C21        -4.3024    6.9335   -2.5901 C.ar      1 <0>         0.0107
     33 F1         -2.8521    9.1806   -5.0432 F         1 <0>        -0.1271
     34 H1         -4.1230   -3.2496    0.0266 H         1 <0>         0.1383
     35 H2         -2.0899   -3.8566   -1.2206 H         1 <0>         0.1410
     36 H3         -0.1534   -2.3375   -1.2358 H         1 <0>         0.1395
     37 H4         -2.2901    0.3970    1.2616 H         1 <0>         0.1360
     38 H5         -4.2256   -1.1233    1.2617 H         1 <0>         0.1435
     39 H6          0.4295    8.5957    0.0461 H         1 <0>         0.1445
     40 H7          2.8612    8.7547    0.0347 H         1 <0>         0.1410
     41 H8          4.2536    6.7297    0.0157 H         1 <0>         0.1405
     42 H9          3.2347    4.5161    0.0095 H         1 <0>         0.1478
     43 H10        -3.2812    4.1442    0.0293 H         1 <0>         0.4343
     44 H11        -1.9149    8.3969   -0.7087 H         1 <0>         0.1605
     45 H12        -1.5066    9.5633   -2.8381 H         1 <0>         0.1479
     46 H13        -4.6877    7.3658   -4.6478 H         1 <0>         0.1484
     47 H14        -5.0869    6.1947   -2.5194 H         1 <0>         0.1519
@<TRIPOS>BOND
     1    1    6 ar
     2    1    2 ar
     3    1   34 1
     4    2    3 ar
     5    2   35 1
     6    3    4 ar
     7    3   36 1
     8    4    5 ar
     9    4    7 1
    10    5    6 ar
    11    5   37 1
    12    6   38 1
    13    7   11 1
    14    7    8 1
    15    8    9 2
    16    8   12 1
    17    9   10 1
    18   10   11 2
    19   12   13 1
    20   13   22 ar
    21   13   14 ar
    22   14   15 ar
    23   14   23 1
    24   15   16 ar
    25   16   21 ar
    26   16   17 ar
    27   17   18 ar
    28   17   39 1
    29   18   19 ar
    30   18   40 1
    31   19   20 ar
    32   19   41 1
    33   20   21 ar
    34   20   42 1
    35   21   22 ar
    36   23   24 1
    37   23   43 1
    38   24   25 2
    39   24   26 2
    40   24   27 1
    41   27   32 ar
    42   27   28 ar
    43   28   29 ar
    44   28   44 1
    45   29   30 ar
    46   29   45 1
    47   30   31 ar
    48   30   33 1
    49   31   32 ar
    50   31   46 1
    51   32   47 1
@<TRIPOS>MOLECULE
ZINC20082537
   67    72     0     0     0
SMALL
USER_CHARGES
3-[(S)-[4-(1,3-benzothiazol-2-yl)piperazin-1-yl]-(1-tert-butyltetrazol-5-yl)methyl]-7-methyl-1H-quinolin-2-one
@<TRIPOS>ATOM
      1 C1          6.6653    5.2645    0.0631 C.3       1 <0>        -0.1260
      2 C2          5.3391    4.5780    0.2651 C.ar      1 <0>        -0.0213
      3 C3          4.6111    4.8171    1.4229 C.ar      1 <0>        -0.1521
      4 C4          3.4068    4.2051    1.6257 C.ar      1 <0>        -0.0451
      5 C5          2.9024    3.3295    0.6583 C.ar      1 <0>        -0.1448
      6 C6          1.6155    2.6564    0.8436 C.2       1 <0>         0.0083
      7 C7          1.1773    1.8180   -0.1278 C.2       1 <0>        -0.1914
      8 C8          1.9559    1.6023   -1.2850 C.2       1 <0>         0.5518
      9 O1          1.5457    0.8408   -2.1437 O.2       1 <0>        -0.5109
     10 N1          3.1363    2.2200   -1.4664 N.am      1 <0>        -0.6437
     11 H1          3.7169    2.0386   -2.3829 H         1 <0>         0.4442
     12 C9          3.6375    3.0845   -0.5167 C.ar      1 <0>         0.2026
     13 C10         4.8618    3.7190   -0.7010 C.ar      1 <0>        -0.1712
     14 C11        -0.1431    1.1093    0.0315 C.3       1 <0>         0.2314
     15 H2          0.0042    0.0199   -0.0086 H         1 <0>         0.1271
     16 C12        -0.7679    1.5007    1.3458 C.2       1 <0>         0.1462
     17 N2         -1.2946    2.6626    1.6468 N.2       1 <0>        -0.2915
     18 N3         -1.7233    2.6028    2.8603 N.2       1 <0>        -0.0749
     19 N4         -1.4767    1.4354    3.3439 N.2       1 <0>        -0.0844
     20 N5         -0.8882    0.7268    2.4405 N.pl3     1 <0>        -0.2875
     21 C13        -0.4363   -0.6598    2.5799 C.3       1 <0>         0.1611
     22 C14         1.0601   -0.7419    2.2718 C.3       1 <0>        -0.1730
     23 C15        -0.6893   -1.1372    4.0113 C.3       1 <0>        -0.1525
     24 C16        -1.2078   -1.5483    1.6020 C.3       1 <0>        -0.1736
     25 N6         -1.0389    1.4895   -1.0690 N.3       1 <0>        -0.4968
     26 C17        -1.1849    2.9496   -1.1487 C.3       1 <0>         0.0358
     27 C18        -2.0591    3.3072   -2.3529 C.3       1 <0>         0.0649
     28 N7         -3.3695    2.6566   -2.2141 N.pl3     1 <0>        -0.4217
     29 C19        -3.2235    1.1965   -2.1344 C.3       1 <0>         0.0511
     30 C20        -2.3492    0.8389   -0.9302 C.3       1 <0>         0.0522
     31 C21        -4.2110    3.0138   -3.2479 C.2       1 <0>         0.3488
     32 N8         -4.5828    4.2142   -3.6304 N.2       1 <0>        -0.5278
     33 C22        -5.4202    4.4171   -4.6712 C.ar      1 <0>         0.1019
     34 C23        -5.8953    5.6468   -5.1824 C.ar      1 <0>        -0.0704
     35 C24        -6.7473    5.6767   -6.2555 C.ar      1 <0>        -0.1062
     36 C25        -7.1731    4.5111   -6.8757 C.ar      1 <0>        -0.1041
     37 C26        -6.7284    3.2905   -6.4014 C.ar      1 <0>        -0.0627
     38 C27        -5.8747    3.2510   -5.3277 C.ar      1 <0>        -0.1447
     39 S1         -5.0660    1.9611   -4.4120 S.3       1 <0>        -0.0466
     40 H3          6.8816    5.9064    0.9298 H         1 <0>         0.0722
     41 H4          6.6247    5.8797   -0.8479 H         1 <0>         0.0777
     42 H5          7.4576    4.5084   -0.0401 H         1 <0>         0.0772
     43 H6          5.0002    5.4934    2.1697 H         1 <0>         0.1311
     44 H7          2.8467    4.3961    2.5291 H         1 <0>         0.1329
     45 H8          1.0283    2.8237    1.7345 H         1 <0>         0.1335
     46 H9          5.4357    3.5396   -1.5982 H         1 <0>         0.1356
     47 H10         1.3994   -1.7830    2.3765 H         1 <0>         0.0977
     48 H11         1.6148   -0.1030    2.9748 H         1 <0>         0.0730
     49 H12         1.2419   -0.3987    1.2427 H         1 <0>         0.0732
     50 H13        -0.3500   -2.1783    4.1159 H         1 <0>         0.0879
     51 H14        -1.7652   -1.0782    4.2327 H         1 <0>         0.0766
     52 H15        -0.1346   -0.4983    4.7143 H         1 <0>         0.0748
     53 H16        -0.8685   -2.5894    1.7066 H         1 <0>         0.0986
     54 H17        -1.0259   -1.2050    0.5729 H         1 <0>         0.0720
     55 H18        -2.2837   -1.4892    1.8234 H         1 <0>         0.0749
     56 H19        -1.6577    3.3216   -0.2278 H         1 <0>         0.0928
     57 H20        -0.1933    3.4115   -1.2642 H         1 <0>         0.0886
     58 H21        -2.1931    4.3981   -2.3976 H         1 <0>         0.1041
     59 H22        -1.5719    2.9595   -3.2758 H         1 <0>         0.0638
     60 H23        -4.2151    0.7346   -2.0188 H         1 <0>         0.0990
     61 H24        -2.7508    0.8244   -3.0553 H         1 <0>         0.0766
     62 H25        -2.2140   -0.2518   -0.8850 H         1 <0>         0.0955
     63 H26        -2.8353    1.1867   -0.0068 H         1 <0>         0.0507
     64 H27        -5.5830    6.5726   -4.7224 H         1 <0>         0.1326
     65 H28        -7.0955    6.6294   -6.6265 H         1 <0>         0.1343
     66 H29        -7.8446    4.5565   -7.7204 H         1 <0>         0.1384
     67 H30        -7.0510    2.3740   -6.8731 H         1 <0>         0.1324
@<TRIPOS>BOND
     1    1    2 1
     2    1   40 1
     3    1   41 1
     4    1   42 1
     5    2   13 ar
     6    2    3 ar
     7    3    4 ar
     8    3   43 1
     9    4    5 ar
    10    4   44 1
    11    5   12 ar
    12    5    6 1
    13    6    7 2
    14    6   45 1
    15    7    8 1
    16    7   14 1
    17    8    9 2
    18    8   10 am
    19   10   11 1
    20   10   12 1
    21   12   13 ar
    22   13   46 1
    23   14   15 1
    24   14   16 1
    25   14   25 1
    26   16   20 1
    27   16   17 2
    28   17   18 1
    29   18   19 2
    30   19   20 1
    31   20   21 1
    32   21   22 1
    33   21   23 1
    34   21   24 1
    35   22   47 1
    36   22   48 1
    37   22   49 1
    38   23   50 1
    39   23   51 1
    40   23   52 1
    41   24   53 1
    42   24   54 1
    43   24   55 1
    44   25   30 1
    45   25   26 1
    46   26   27 1
    47   26   56 1
    48   26   57 1
    49   27   28 1
    50   27   58 1
    51   27   59 1
    52   28   29 1
    53   28   31 1
    54   29   30 1
    55   29   60 1
    56   29   61 1
    57   30   62 1
    58   30   63 1
    59   31   39 1
    60   31   32 2
    61   32   33 1
    62   33   38 ar
    63   33   34 ar
    64   34   35 ar
    65   34   64 1
    66   35   36 ar
    67   35   65 1
    68   36   37 ar
    69   36   66 1
    70   37   38 ar
    71   37   67 1
    72   38   39 1
@<TRIPOS>MOLECULE
ZINC24885971
   55    58     0     0     0
SMALL
USER_CHARGES
N-[4-[4-(methyl-methylsulfonyl-amino)phenyl]thiazol-2-yl]-2-[(2S)-2-methyl-3-oxo-1,4-benzoxazin-4-yl]acetamide
@<TRIPOS>ATOM
      1 C1         -2.4118    4.7953    2.2531 C.3       1 <0>        -0.1774
      2 C2         -2.4349    5.0565    0.7458 C.3       1 <0>         0.0834
      3 H1         -3.3568    5.5698    0.4349 H         1 <0>         0.1541
      4 C3         -1.2260    5.8699    0.3589 C.2       1 <0>         0.5024
      5 O1         -1.2870    7.0812    0.3424 O.2       1 <0>        -0.5008
      6 N1         -0.0744    5.2445    0.0310 N.am      1 <0>        -0.5344
      7 C4         -0.0408    3.8427    0.0237 C.ar      1 <0>         0.0972
      8 C5          1.1662    3.1636    0.0084 C.ar      1 <0>        -0.1272
      9 C6          1.1770    1.7808    0.0004 C.ar      1 <0>        -0.1091
     10 C7         -0.0126    1.0758    0.0080 C.ar      1 <0>        -0.1065
     11 C8         -1.2212    1.7483    0.0174 C.ar      1 <0>        -0.1073
     12 C9         -1.2400    3.1321    0.0309 C.ar      1 <0>         0.0872
     13 O2         -2.4190    3.8094    0.0463 O.3       1 <0>        -0.2984
     14 C10         1.1212    6.0188   -0.3112 C.3       1 <0>         0.0961
     15 C11         1.1415    6.2822   -1.7949 C.2       1 <0>         0.5000
     16 O3          0.2455    5.8641   -2.4973 O.2       1 <0>        -0.4816
     17 N2          2.1553    6.9822   -2.3412 N.am      1 <0>        -0.6212
     18 C12         2.1740    7.2250   -3.7092 C.2       1 <0>         0.3229
     19 N3          3.0625    7.8856   -4.4283 N.2       1 <0>        -0.5323
     20 C13         2.9244    8.0189   -5.7388 C.2       1 <0>         0.1230
     21 C14         1.8355    7.4715   -6.3577 C.2       1 <0>        -0.2427
     22 S1          0.9975    6.7327   -4.9616 S.3       1 <0>         0.1122
     23 C15         3.9389    8.7608   -6.5267 C.ar      1 <0>        -0.0471
     24 C16         3.7881    8.8982   -7.9058 C.ar      1 <0>        -0.0644
     25 C17         4.7297    9.5928   -8.6354 C.ar      1 <0>        -0.1588
     26 C18         5.8339   10.1467   -7.9985 C.ar      1 <0>         0.1774
     27 C19         5.9892   10.0061   -6.6245 C.ar      1 <0>        -0.1482
     28 C20         5.0475    9.3169   -5.8901 C.ar      1 <0>        -0.0543
     29 N4          6.7892   10.8455   -8.7405 N.pl3     1 <0>        -0.9416
     30 C21         7.6188   11.8641   -8.0922 C.3       1 <0>         0.0705
     31 S2          6.9839   10.5224  -10.3529 S.o2      1 <0>         2.5995
     32 O4          8.3289   10.8837  -10.6353 O.2       1 <0>        -0.9449
     33 O5          6.5466    9.1794  -10.5090 O.2       1 <0>        -0.9375
     34 C22         5.8430   11.6529  -11.1960 C.3       1 <0>        -0.6753
     35 H2         -2.4240    5.7544    2.7916 H         1 <0>         0.0851
     36 H3         -1.4995    4.2393    2.5149 H         1 <0>         0.0684
     37 H4         -3.2953    4.2044    2.5364 H         1 <0>         0.0897
     38 H5          2.0963    3.7124    0.0025 H         1 <0>         0.1302
     39 H6          2.1174    1.2498   -0.0115 H         1 <0>         0.1336
     40 H7          0.0021   -0.0041    0.0020 H         1 <0>         0.1359
     41 H8         -2.1484    1.1946    0.0182 H         1 <0>         0.1409
     42 H9          1.1058    6.9758    0.2309 H         1 <0>         0.1362
     43 H10         2.0195    5.4510   -0.0273 H         1 <0>         0.1308
     44 H11         2.9680    7.3613   -1.7041 H         1 <0>         0.4560
     45 H12         1.5580    7.4823   -7.4014 H         1 <0>         0.1988
     46 H13         2.9324    8.4643   -8.4018 H         1 <0>         0.1329
     47 H14         4.6112    9.7030   -9.7032 H         1 <0>         0.1285
     48 H15         6.8484   10.4368   -6.1318 H         1 <0>         0.1317
     49 H16         5.1688    9.2076   -4.8225 H         1 <0>         0.1374
     50 H17         8.3063   12.3017   -8.8310 H         1 <0>         0.0967
     51 H18         8.1991   11.4019   -7.2801 H         1 <0>         0.0766
     52 H19         6.9739   12.6535   -7.6787 H         1 <0>         0.0735
     53 H20         5.9120   11.5001  -12.2831 H         1 <0>         0.1363
     54 H21         6.1108   12.6920  -10.9540 H         1 <0>         0.1328
     55 H22         4.8143   11.4521  -10.8621 H         1 <0>         0.1330
@<TRIPOS>BOND
     1    1    2 1
     2    1   35 1
     3    1   36 1
     4    1   37 1
     5    2    3 1
     6    2   13 1
     7    2    4 1
     8    4    5 2
     9    4    6 am
    10    6    7 1
    11    6   14 1
    12    7   12 ar
    13    7    8 ar
    14    8    9 ar
    15    8   38 1
    16    9   10 ar
    17    9   39 1
    18   10   11 ar
    19   10   40 1
    20   11   12 ar
    21   11   41 1
    22   12   13 1
    23   14   15 1
    24   14   42 1
    25   14   43 1
    26   15   16 2
    27   15   17 am
    28   17   18 1
    29   17   44 1
    30   18   22 1
    31   18   19 2
    32   19   20 1
    33   20   21 2
    34   20   23 1
    35   21   22 1
    36   21   45 1
    37   23   28 ar
    38   23   24 ar
    39   24   25 ar
    40   24   46 1
    41   25   26 ar
    42   25   47 1
    43   26   27 ar
    44   26   29 1
    45   27   28 ar
    46   27   48 1
    47   28   49 1
    48   29   30 1
    49   29   31 1
    50   30   50 1
    51   30   51 1
    52   30   52 1
    53   31   32 2
    54   31   33 2
    55   31   34 1
    56   34   53 1
    57   34   54 1
    58   34   55 1
@<TRIPOS>MOLECULE
ZINC32738745
   60    64     0     0     0
SMALL
USER_CHARGES

@<TRIPOS>ATOM
      1 C1         -0.0184    1.5028    0.0103 C.3       1 <0>        -0.0923
      2 C2          0.0021   -0.0041    0.0020 C.ar      1 <0>         0.4059
      3 N1          0.0049   -0.6296   -1.1607 N.ar      1 <0>        -0.5546
      4 C3          0.0227   -1.9541   -1.2125 C.ar      1 <0>         0.4704
      5 C4          0.0384   -2.6801   -0.0063 C.ar      1 <0>        -0.3033
      6 C5          0.0347   -1.9742    1.2062 C.ar      1 <0>         0.2165
      7 N2          0.0217   -0.6407    1.1552 N.ar      1 <0>        -0.5556
      8 S1          0.0536   -2.8229    2.7503 S.3       1 <0>         0.1750
      9 C6          0.0415   -1.4920    3.9828 C.3       1 <0>        -0.1230
     10 C7          0.0563   -2.0887    5.3665 C.2       1 <0>         0.4208
     11 N3          0.0447   -1.2668    6.4474 N.am      1 <0>        -0.6293
     12 H1          0.0270   -0.3062    6.3135 H         1 <0>         0.4229
     13 C8          0.0568   -1.7576    7.7007 C.2       1 <0>         0.5583
     14 O1          0.0453   -1.0064    8.6605 O.2       1 <0>        -0.5153
     15 C9          0.0830   -3.1786    7.8878 C.2       1 <0>        -0.2402
     16 C10         0.1010   -3.9295    9.1425 C.2       1 <0>        -0.0529
     17 C11         0.1246   -5.2758    9.0497 C.2       1 <0>        -0.1666
     18 S2          0.1238   -5.6166    7.3102 S.3       1 <0>         0.1619
     19 C12         0.0931   -3.9458    6.7122 C.2       1 <0>         0.1020
     20 N4          0.0746   -3.3874    5.5050 N.2       1 <0>        -0.4750
     21 C13         0.1475   -6.2631   10.1765 C.3       1 <0>        -0.0381
     22 C14         0.5162   -5.5167   11.4667 C.3       1 <0>        -0.1154
     23 C15        -0.3438   -4.2532   11.5655 C.3       1 <0>        -0.1233
     24 C16         0.0943   -3.2422   10.5052 C.3       1 <0>        -0.0595
     25 C17         0.0585   -4.1446   -0.0697 C.2       1 <0>         0.5698
     26 O2          0.0722   -4.8149    0.9453 O.2       1 <0>        -0.4651
     27 N5          0.0610   -4.7288   -1.2891 N.am      1 <0>        -0.5579
     28 C18         0.0455   -3.9926   -2.4116 C.2       1 <0>         0.7072
     29 O3          0.0485   -4.5668   -3.4831 O.2       1 <0>        -0.5141
     30 N6          0.0268   -2.6481   -2.4031 N.am      1 <0>        -0.5185
     31 C19         0.0102   -1.9143   -3.6710 C.3       1 <0>         0.1194
     32 C20         1.4467   -1.6383   -4.1194 C.3       1 <0>        -0.1086
     33 C21         2.1483   -2.9627   -4.4273 C.3       1 <0>        -0.1434
     34 C22         1.4300   -0.7657   -5.3761 C.3       1 <0>        -0.1425
     35 C23         0.0814   -6.1903   -1.3871 C.3       1 <0>         0.0791
     36 H2          1.0042    1.8801    0.0026 H         1 <0>         0.0974
     37 H3         -0.5455    1.8639   -0.8728 H         1 <0>         0.0946
     38 H4         -0.5286    1.8543    0.9071 H         1 <0>         0.0941
     39 H5          0.9224   -0.8643    3.8484 H         1 <0>         0.1367
     40 H6         -0.8574   -0.8884    3.8569 H         1 <0>         0.1365
     41 H7         -0.8363   -6.7196   10.2847 H         1 <0>         0.0874
     42 H8          0.8904   -7.0345    9.9736 H         1 <0>         0.0855
     43 H9          0.3247   -6.1575   12.3273 H         1 <0>         0.0768
     44 H10         1.5703   -5.2404   11.4409 H         1 <0>         0.0696
     45 H11        -1.3902   -4.5141   11.4071 H         1 <0>         0.0664
     46 H12        -0.2275   -3.8127   12.5557 H         1 <0>         0.0722
     47 H13         1.0961   -2.8803   10.7366 H         1 <0>         0.0793
     48 H14        -0.6037   -2.4052   10.4887 H         1 <0>         0.0859
     49 H15        -0.4989   -2.5099   -4.4288 H         1 <0>         0.1036
     50 H16        -0.5165   -0.9695   -3.5371 H         1 <0>         0.1066
     51 H17         1.9823   -1.1198   -3.3241 H         1 <0>         0.0740
     52 H18         3.1717   -2.7660   -4.7468 H         1 <0>         0.0550
     53 H19         2.1602   -3.5843   -3.5320 H         1 <0>         0.0439
     54 H20         1.6127   -3.4812   -5.2226 H         1 <0>         0.0660
     55 H21         0.9303    0.1778   -5.1567 H         1 <0>         0.0603
     56 H22         2.4534   -0.5691   -5.6955 H         1 <0>         0.0621
     57 H23         0.8945   -1.2843   -6.1713 H         1 <0>         0.0599
     58 H24         0.0924   -6.6215   -0.3860 H         1 <0>         0.1059
     59 H25        -0.8064   -6.5312   -1.9198 H         1 <0>         0.0829
     60 H26         0.9734   -6.5058   -1.9283 H         1 <0>         0.0825
@<TRIPOS>BOND
     1    1    2 1
     2    1   36 1
     3    1   37 1
     4    1   38 1
     5    2    7 ar
     6    2    3 ar
     7    3    4 ar
     8    4   30 1
     9    4    5 ar
    10    5    6 ar
    11    5   25 1
    12    6    7 ar
    13    6    8 1
    14    8    9 1
    15    9   10 1
    16    9   39 1
    17    9   40 1
    18   10   20 2
    19   10   11 1
    20   11   12 1
    21   11   13 am
    22   13   14 2
    23   13   15 1
    24   15   19 2
    25   15   16 1
    26   16   24 1
    27   16   17 2
    28   17   18 1
    29   17   21 1
    30   18   19 1
    31   19   20 1
    32   21   22 1
    33   21   41 1
    34   21   42 1
    35   22   23 1
    36   22   43 1
    37   22   44 1
    38   23   24 1
    39   23   45 1
    40   23   46 1
    41   24   47 1
    42   24   48 1
    43   25   26 2
    44   25   27 am
    45   27   28 am
    46   27   35 1
    47   28   29 2
    48   28   30 am
    49   30   31 1
    50   31   32 1
    51   31   49 1
    52   31   50 1
    53   32   33 1
    54   32   34 1
    55   32   51 1
    56   33   52 1
    57   33   53 1
    58   33   54 1
    59   34   55 1
    60   34   56 1
    61   34   57 1
    62   35   58 1
    63   35   59 1
    64   35   60 1
@<TRIPOS>MOLECULE
ZINC00889314
   64    68     0     0     0
SMALL
USER_CHARGES
3-[azepan-1-yl-(1-cyclohexyltetrazol-5-yl)-methyl]-8-methyl-1H-quinolin-2-one
@<TRIPOS>ATOM
      1 C1         -0.1601    1.3096   -0.1500 C.3       1 <0>        -0.1235
      2 C2         -0.0406   -0.1919   -0.1016 C.ar      1 <0>        -0.1263
      3 C3          0.0318   -0.9182   -1.2709 C.ar      1 <0>        -0.0393
      4 C4          0.1486   -2.3009   -1.2399 C.ar      1 <0>        -0.1367
      5 C5          0.1809   -2.9694   -0.0487 C.ar      1 <0>        -0.0472
      6 C6          0.1027   -2.2537    1.1502 C.ar      1 <0>        -0.1526
      7 C7         -0.0088   -0.8505    1.1229 C.ar      1 <0>         0.2002
      8 N1         -0.0852   -0.1497    2.3078 N.am      1 <0>        -0.6176
      9 H1         -0.1641    0.8470    2.2867 H         1 <0>         0.4336
     10 C8         -0.0552   -0.7870    3.4913 C.2       1 <0>         0.5449
     11 O1         -0.1254   -0.1354    4.5189 O.2       1 <0>        -0.5252
     12 C9          0.0559   -2.1916    3.5736 C.2       1 <0>        -0.2828
     13 C10         0.1358   -2.9378    2.4442 C.2       1 <0>         0.0727
     14 C11         0.0863   -2.8646    4.9217 C.3       1 <0>         0.2147
     15 H2          0.0612   -3.9461    4.7885 H         1 <0>         0.1586
     16 C12         1.3485   -2.4771    5.6482 C.2       1 <0>         0.1136
     17 N2          1.5838   -1.3401    6.2563 N.2       1 <0>        -0.2521
     18 N3          2.7708   -1.3935    6.7545 N.2       1 <0>        -0.0566
     19 N4          3.2987   -2.5351    6.4800 N.2       1 <0>        -0.0536
     20 N5          2.4508   -3.2337    5.8035 N.pl3     1 <0>        -0.2759
     21 C13         2.6515   -4.5934    5.2966 C.3       1 <0>         0.1365
     22 C14         2.9143   -5.5411    6.4687 C.3       1 <0>        -0.1307
     23 C15         3.1239   -6.9612    5.9392 C.3       1 <0>        -0.1153
     24 C16         4.3234   -6.9796    4.9897 C.3       1 <0>        -0.1308
     25 C17         4.0606   -6.0320    3.8176 C.3       1 <0>        -0.1148
     26 C18         3.8511   -4.6119    4.3470 C.3       1 <0>        -0.1312
     27 C19        -0.9786   -2.9134    7.1058 C.3       1 <0>         0.0019
     28 C20        -2.2606   -2.7429    7.8744 C.3       1 <0>        -0.1387
     29 C21        -3.0648   -4.0567    7.7827 C.3       1 <0>        -0.1312
     30 C22        -3.7552   -4.1919    6.5048 C.3       1 <0>        -0.1315
     31 C23        -2.7755   -4.2164    5.3129 C.3       1 <0>        -0.1374
     32 C24        -2.3412   -2.8055    5.0230 C.3       1 <0>        -0.0008
     33 H3          0.8354    1.7536   -0.1442 H         1 <0>         0.0829
     34 H4         -0.6836    1.6033   -1.0598 H         1 <0>         0.0866
     35 H5         -0.7184    1.6579    0.7190 H         1 <0>         0.0649
     36 H6          0.0024   -0.4056   -2.2211 H         1 <0>         0.1438
     37 H7          0.2087   -2.8539   -2.1657 H         1 <0>         0.1423
     38 H8          0.2669   -4.0459   -0.0330 H         1 <0>         0.1435
     39 H9          0.2218   -4.0130    2.4981 H         1 <0>         0.1583
     40 H10         1.7590   -4.9169    4.7609 H         1 <0>         0.1109
     41 H11         3.8067   -5.2177    7.0044 H         1 <0>         0.0913
     42 H12         2.0597   -5.5280    7.1451 H         1 <0>         0.0728
     43 H13         2.2314   -7.2846    5.4035 H         1 <0>         0.0686
     44 H14         3.3110   -7.6363    6.7743 H         1 <0>         0.0827
     45 H15         4.4727   -7.9913    4.6125 H         1 <0>         0.0773
     46 H16         5.2159   -6.6562    5.5254 H         1 <0>         0.0722
     47 H17         3.1682   -6.3554    3.2819 H         1 <0>         0.0685
     48 H18         4.9152   -6.0451    3.1411 H         1 <0>         0.0823
     49 H19         3.6639   -3.9367    3.5120 H         1 <0>         0.0734
     50 H20         4.7435   -4.2884    4.8827 H         1 <0>         0.0905
     51 H21        -0.7093   -3.9696    7.1011 H         1 <0>         0.1225
     52 H22        -0.1899   -2.3541    7.6092 H         1 <0>         0.1194
     53 H23        -2.8408   -1.9275    7.4425 H         1 <0>         0.0889
     54 H24        -2.0355   -2.5234    8.9180 H         1 <0>         0.1122
     55 H25        -3.8008   -4.0778    8.5864 H         1 <0>         0.0872
     56 H26        -2.3820   -4.8973    7.9066 H         1 <0>         0.0720
     57 H27        -4.4404   -3.3531    6.3824 H         1 <0>         0.0761
     58 H28        -4.3288   -5.1188    6.5104 H         1 <0>         0.0864
     59 H29        -3.2737   -4.6334    4.4377 H         1 <0>         0.1127
     60 H30        -1.9052   -4.8234    5.5627 H         1 <0>         0.0818
     61 H31        -3.1268   -2.1225    5.3462 H         1 <0>         0.1311
     62 H32        -2.2025   -2.6944    3.9476 H         1 <0>         0.1218
     63 N6         -1.0670   -2.3873    5.7010 N.4       1 <0>        -0.3972
     64 H33        -1.0411   -1.3615    5.7372 H         1 <0>         0.4474
@<TRIPOS>BOND
     1    1    2 1
     2    1   33 1
     3    1   34 1
     4    1   35 1
     5    2    7 ar
     6    2    3 ar
     7    3    4 ar
     8    3   36 1
     9    4    5 ar
    10    4   37 1
    11    5    6 ar
    12    5   38 1
    13    6   13 1
    14    6    7 ar
    15    7    8 1
    16    8    9 1
    17    8   10 am
    18   10   11 2
    19   10   12 1
    20   12   13 2
    21   12   14 1
    22   13   39 1
    23   14   15 1
    24   14   16 1
    25   14   63 1
    26   16   20 1
    27   16   17 2
    28   17   18 1
    29   18   19 2
    30   19   20 1
    31   20   21 1
    32   21   26 1
    33   21   22 1
    34   21   40 1
    35   22   23 1
    36   22   41 1
    37   22   42 1
    38   23   24 1
    39   23   43 1
    40   23   44 1
    41   24   25 1
    42   24   45 1
    43   24   46 1
    44   25   26 1
    45   25   47 1
    46   25   48 1
    47   26   49 1
    48   26   50 1
    49   27   28 1
    50   27   51 1
    51   27   52 1
    52   27   63 1
    53   28   29 1
    54   28   53 1
    55   28   54 1
    56   29   30 1
    57   29   55 1
    58   29   56 1
    59   30   31 1
    60   30   57 1
    61   30   58 1
    62   31   32 1
    63   31   59 1
    64   31   60 1
    65   32   61 1
    66   32   62 1
    67   32   63 1
    68   63   64 1
@<TRIPOS>MOLECULE
ZINC09128979
   64    69     0     0     0
SMALL
USER_CHARGES
(4aR,5S)-1'-cyclohexyl-9-methyl-spiro[1,2,3,4,4a,6-hexahydroquinolino[2,3-f]quinolizine-5,5'-hexahydropyrimidine]-2',4',6'-trione
@<TRIPOS>ATOM
      1 C1          2.4728    3.9073   -0.0006 C.3       1 <0>        -0.1294
      2 C2          1.1601    3.1672    0.0077 C.ar      1 <0>        -0.0732
      3 C3          1.1557    1.7745    0.0006 C.ar      1 <0>        -0.0312
      4 C4         -0.0126    1.0758    0.0080 C.ar      1 <0>        -0.1478
      5 C5         -1.2382    1.7643    0.0175 C.ar      1 <0>         0.1584
      6 C6         -1.2300    3.1806    0.0299 C.ar      1 <0>        -0.0983
      7 C7         -0.0072    3.8686    0.0218 C.ar      1 <0>        -0.0570
      8 C8         -2.4594    3.8654    0.0454 C.ar      1 <0>         0.0723
      9 C9         -3.6160    3.1380    0.0530 C.ar      1 <0>        -0.1622
     10 C10        -3.5666    1.7405    0.0414 C.ar      1 <0>         0.4738
     11 N1         -4.7063    0.9528    0.0329 N.pl3     1 <0>        -0.4688
     12 C11        -4.4987   -0.2864    0.7941 C.3       1 <0>         0.0421
     13 C12        -5.6843   -1.2277    0.5696 C.3       1 <0>        -0.1237
     14 C13        -6.9738   -0.5362    1.0201 C.3       1 <0>        -0.1238
     15 C14        -7.1397    0.7727    0.2428 C.3       1 <0>        -0.1312
     16 C15        -5.9102    1.6549    0.4744 C.3       1 <0>         0.1161
     17 H1         -5.8259    1.8907    1.5352 H         1 <0>         0.1194
     18 C16        -6.0591    2.9507   -0.3314 C.3       1 <0>        -0.1074
     19 C17        -4.9221    3.8913    0.0780 C.3       1 <0>        -0.0526
     20 C18        -5.9545    2.6430   -1.7979 C.2       1 <0>         0.5316
     21 O1         -4.9442    2.1224   -2.2197 O.2       1 <0>        -0.4638
     22 N2         -6.9462    2.9276   -2.6535 N.am      1 <0>        -0.6608
     23 C19        -8.0880    3.5041   -2.2494 C.2       1 <0>         0.7049
     24 O2         -8.9541    3.7401   -3.0681 O.2       1 <0>        -0.4845
     25 N3         -8.2980    3.8262   -0.9641 N.am      1 <0>        -0.5523
     26 C20        -7.3807    3.5901   -0.0152 C.2       1 <0>         0.5312
     27 O3         -7.6253    3.9012    1.1307 O.2       1 <0>        -0.4582
     28 C21        -9.5664    4.4546   -0.5865 C.3       1 <0>         0.1376
     29 C22       -10.7243    3.5193   -0.9406 C.3       1 <0>        -0.1362
     30 C23       -12.0489    4.1756   -0.5463 C.3       1 <0>        -0.1143
     31 C24       -12.2095    5.4954   -1.3034 C.3       1 <0>        -0.1254
     32 C25       -11.0516    6.4307   -0.9493 C.3       1 <0>        -0.1142
     33 C26        -9.7269    5.7744   -1.3437 C.3       1 <0>        -0.1367
     34 H2          2.7798    4.0910   -1.0302 H         1 <0>         0.0867
     35 H3          2.3571    4.8583    0.5193 H         1 <0>         0.0803
     36 H4          3.2311    3.3078    0.5031 H         1 <0>         0.0803
     37 H5          2.0942    1.2402   -0.0107 H         1 <0>         0.1524
     38 H6          0.0021   -0.0041    0.0020 H         1 <0>         0.1511
     39 H7          0.0082    4.9484    0.0269 H         1 <0>         0.1576
     40 H8         -2.4880    4.9450    0.0515 H         1 <0>         0.1790
     41 H9         -3.5818   -0.7702    0.4577 H         1 <0>         0.0908
     42 H10        -4.4172   -0.0515    1.8554 H         1 <0>         0.0889
     43 H11        -5.7558   -1.4763   -0.4893 H         1 <0>         0.0861
     44 H12        -5.5393   -2.1397    1.1486 H         1 <0>         0.0997
     45 H13        -7.8249   -1.1878    0.8222 H         1 <0>         0.0920
     46 H14        -6.9189   -0.3227    2.0876 H         1 <0>         0.0788
     47 H15        -7.2365    0.5549   -0.8208 H         1 <0>         0.0818
     48 H16        -8.0325    1.2923    0.5908 H         1 <0>         0.0950
     49 H17        -5.1058    4.2673    1.0845 H         1 <0>         0.1337
     50 H18        -4.8730    4.7275   -0.6194 H         1 <0>         0.1172
     51 H19        -6.8351    2.7101   -3.5922 H         1 <0>         0.4421
     52 H20        -9.5707    4.6482    0.4861 H         1 <0>         0.1216
     53 H21       -10.7199    3.3257   -2.0133 H         1 <0>         0.0906
     54 H22       -10.6099    2.5791   -0.4012 H         1 <0>         0.0638
     55 H23       -12.0533    4.3693    0.5264 H         1 <0>         0.0663
     56 H24       -12.8738    3.5093   -0.7986 H         1 <0>         0.0730
     57 H25       -13.1532    5.9630   -1.0225 H         1 <0>         0.0698
     58 H26       -12.2051    5.3018   -2.3761 H         1 <0>         0.0679
     59 H27       -11.0559    6.6243    0.1234 H         1 <0>         0.0663
     60 H28       -11.1660    7.3709   -1.4887 H         1 <0>         0.0732
     61 H29        -8.9020    6.4407   -1.0914 H         1 <0>         0.0648
     62 H30        -9.7226    5.5807   -2.4163 H         1 <0>         0.0904
     63 N4         -2.3992    1.0255    0.0307 N.ar      1 <0>        -0.5385
     64 H31        -2.3903   -0.0012    0.0325 H         1 <0>         0.4626
@<TRIPOS>BOND
     1    1    2 1
     2    1   34 1
     3    1   35 1
     4    1   36 1
     5    2    7 ar
     6    2    3 ar
     7    3    4 ar
     8    3   37 1
     9    4    5 ar
    10    4   38 1
    11    5    6 ar
    12    5   63 ar
    13    6    7 ar
    14    6    8 ar
    15    7   39 1
    16    8    9 ar
    17    8   40 1
    18    9   19 1
    19    9   10 ar
    20   10   11 1
    21   10   63 ar
    22   11   16 1
    23   11   12 1
    24   12   13 1
    25   12   41 1
    26   12   42 1
    27   13   14 1
    28   13   43 1
    29   13   44 1
    30   14   15 1
    31   14   45 1
    32   14   46 1
    33   15   16 1
    34   15   47 1
    35   15   48 1
    36   16   17 1
    37   16   18 1
    38   18   26 1
    39   18   19 1
    40   18   20 1
    41   19   49 1
    42   19   50 1
    43   20   21 2
    44   20   22 am
    45   22   23 am
    46   22   51 1
    47   23   24 2
    48   23   25 am
    49   25   26 am
    50   25   28 1
    51   26   27 2
    52   28   33 1
    53   28   29 1
    54   28   52 1
    55   29   30 1
    56   29   53 1
    57   29   54 1
    58   30   31 1
    59   30   55 1
    60   30   56 1
    61   31   32 1
    62   31   57 1
    63   31   58 1
    64   32   33 1
    65   32   59 1
    66   32   60 1
    67   33   61 1
    68   33   62 1
    69   63   64 1
@<TRIPOS>MOLECULE
ZINC35671686
   49    53     0     0     0
SMALL
USER_CHARGES

@<TRIPOS>ATOM
      1 C1         -0.1945    1.4326   -0.3226 C.ar      1 <0>        -0.0707
      2 C2          1.0090    2.0949   -0.4754 C.ar      1 <0>        -0.0922
      3 C3          2.1808    1.3745   -0.6240 C.ar      1 <0>        -0.0095
      4 C4          2.1471   -0.0086   -0.6194 C.ar      1 <0>        -0.0935
      5 C5          0.9431   -0.6698   -0.4665 C.ar      1 <0>        -0.1077
      6 C6         -0.2274    0.0506   -0.3182 C.ar      1 <0>        -0.1484
      7 C7         -1.5399   -0.6710   -0.1511 C.3       1 <0>         0.0656
      8 H1         -2.3594    0.0027   -0.4012 H         1 <0>         0.1523
      9 C8         -1.6857   -1.1349    1.2996 C.3       1 <0>         0.0893
     10 N1         -1.7719    0.0333    2.1795 N.am      1 <0>        -0.5331
     11 C9         -0.6585    0.5107    2.7971 C.2       1 <0>         0.3749
     12 N2         -0.6706    1.5372    3.5853 N.2       1 <0>        -0.4875
     13 C10        -1.8267    2.2292    3.8585 C.2       1 <0>         0.1563
     14 C11        -1.9750    3.3560    4.6936 C.2       1 <0>         0.1285
     15 C12        -3.2424    3.8780    4.8141 C.2       1 <0>        -0.2270
     16 S1         -4.2601    2.8592    3.7953 S.3       1 <0>         0.3270
     17 C13        -2.9922    1.7522    3.2282 C.2       1 <0>        -0.3219
     18 C14        -2.9604    0.6512    2.3809 C.2       1 <0>         0.5892
     19 O1         -3.9760    0.2496    1.8362 O.2       1 <0>        -0.5158
     20 S2         -3.6615    5.2655    5.8003 S.3       1 <0>         0.0655
     21 C15        -2.3337    5.2299    7.0502 C.3       1 <0>        -0.1362
     22 C16        -1.0444    4.8390    6.3866 C.2       1 <0>         0.5193
     23 O2         -0.0360    5.3757    6.7953 O.2       1 <0>        -0.5031
     24 N3         -0.8965    3.9634    5.3958 N.am      1 <0>        -0.6382
     25 N4         -1.5747   -1.8371   -1.0439 N.4       1 <0>        -0.3882
     26 C17        -2.8932   -2.5146   -0.9502 C.3       1 <0>        -0.0117
     27 C18        -2.9810   -3.3047   -2.2801 C.3       1 <0>        -0.1428
     28 C19        -2.3238   -2.3438   -3.2972 C.3       1 <0>        -0.1435
     29 C20        -1.4425   -1.4052   -2.4522 C.3       1 <0>        -0.0043
     30 Cl1         3.6926    2.2057   -0.8165 Cl        1 <0>        -0.0332
     31 H2         -1.1087    1.9948   -0.2022 H         1 <0>         0.1360
     32 H3          1.0346    3.1746   -0.4793 H         1 <0>         0.1478
     33 H4          3.0615   -0.5715   -0.7356 H         1 <0>         0.1494
     34 H5          0.9167   -1.7495   -0.4633 H         1 <0>         0.1314
     35 H6         -2.5912   -1.7332    1.4004 H         1 <0>         0.1254
     36 H7         -0.8201   -1.7361    1.5776 H         1 <0>         0.1223
     37 H8          0.2815    0.0087    2.6217 H         1 <0>         0.2055
     38 H9         -2.2281    6.2181    7.4980 H         1 <0>         0.1635
     39 H10        -2.5806    4.5026    7.8236 H         1 <0>         0.1376
     40 H11         0.0063    3.7229    5.1350 H         1 <0>         0.4242
     41 H12        -2.9173   -3.1930   -0.0973 H         1 <0>         0.1388
     42 H13        -3.6980   -1.7826   -0.8837 H         1 <0>         0.1405
     43 H14        -2.4205   -4.2371   -2.2125 H         1 <0>         0.0999
     44 H15        -4.0203   -3.4967   -2.5467 H         1 <0>         0.1195
     45 H16        -1.7112   -2.9028   -4.0046 H         1 <0>         0.1069
     46 H17        -3.0870   -1.7723   -3.8255 H         1 <0>         0.1053
     47 H18        -1.7868   -0.3765   -2.5591 H         1 <0>         0.1304
     48 H19        -0.4029   -1.4865   -2.7695 H         1 <0>         0.1328
     49 H20        -0.8343   -2.4800   -0.8062 H         1 <0>         0.4235
@<TRIPOS>BOND
     1    1    6 ar
     2    1    2 ar
     3    1   31 1
     4    2    3 ar
     5    2   32 1
     6    3    4 ar
     7    3   30 1
     8    4    5 ar
     9    4   33 1
    10    5    6 ar
    11    5   34 1
    12    6    7 1
    13    7    8 1
    14    7    9 1
    15    7   25 1
    16    9   10 1
    17    9   35 1
    18    9   36 1
    19   10   18 am
    20   10   11 1
    21   11   12 2
    22   11   37 1
    23   12   13 1
    24   13   17 2
    25   13   14 1
    26   14   24 1
    27   14   15 2
    28   15   16 1
    29   15   20 1
    30   16   17 1
    31   17   18 1
    32   18   19 2
    33   20   21 1
    34   21   22 1
    35   21   38 1
    36   21   39 1
    37   22   23 2
    38   22   24 am
    39   24   40 1
    40   25   29 1
    41   25   26 1
    42   25   49 1
    43   26   27 1
    44   26   41 1
    45   26   42 1
    46   27   28 1
    47   27   43 1
    48   27   44 1
    49   28   29 1
    50   28   45 1
    51   28   46 1
    52   29   47 1
    53   29   48 1
@<TRIPOS>MOLECULE
ZINC39951177
   54    58     0     0     0
SMALL
USER_CHARGES

@<TRIPOS>ATOM
      1 C1         -0.0739    1.5116    0.0282 C.3       1 <0>        -0.1533
      2 C2         -0.0392   -0.0180    0.0156 C.3       1 <0>        -0.1352
      3 C3          0.6802   -0.5015   -1.2451 C.3       1 <0>        -0.0978
      4 C4          0.7149   -2.0310   -1.2577 C.3       1 <0>        -0.1468
      5 C5          1.4275   -2.5415   -2.4980 C.3       1 <0>        -0.0052
      6 N1          1.2716   -3.9260   -2.8308 N.4       1 <0>        -0.3714
      7 C6          2.1980   -4.8739   -2.2599 C.3       1 <0>        -0.0941
      8 C7          2.6127   -4.6185   -0.8540 C.3       1 <0>        -0.1188
      9 C8          1.5559   -4.0570    0.0467 C.3       1 <0>        -0.1400
     10 C9          1.4526   -2.5651   -0.0352 C.2       1 <0>         0.3678
     11 O1          1.9304   -1.8369    0.8012 O.2       1 <0>        -0.3843
     12 C10         0.1878   -4.6881   -0.2003 C.3       1 <0>         0.0458
     13 N2         -0.5624   -4.0816   -1.2881 N.3       1 <0>        -0.5023
     14 C11        -0.7068   -2.6084   -1.1603 C.3       1 <0>         0.0473
     15 C12        -0.0936   -4.4199   -2.6288 C.3       1 <0>         0.2508
     16 C13        -1.0193   -3.8798   -3.6747 C.ar      1 <0>        -0.1895
     17 C14        -1.3898   -2.5898   -3.9867 C.ar      1 <0>        -0.0206
     18 C15        -2.2905   -2.4278   -5.0350 C.ar      1 <0>        -0.1100
     19 C16        -2.7881   -3.5131   -5.7290 C.ar      1 <0>        -0.0222
     20 C17        -2.4186   -4.8130   -5.4207 C.ar      1 <0>        -0.1063
     21 C18        -1.5149   -4.9884   -4.3716 C.ar      1 <0>         0.1825
     22 N3         -0.9808   -6.1573   -3.8581 N.am      1 <0>        -0.6286
     23 C19        -0.1353   -5.9203   -2.8339 C.2       1 <0>         0.5397
     24 O2          0.4761   -6.7520   -2.1970 O.2       1 <0>        -0.4281
     25 Br1        -2.8449   -0.6858   -5.5188 Br        1 <0>        -0.0079
     26 C20         1.9503   -4.4058    1.4833 C.3       1 <0>        -0.1106
     27 C21         1.8975   -5.9232    1.6725 C.3       1 <0>        -0.1639
     28 H1          0.9452    1.8982    0.0206 H         1 <0>         0.0581
     29 H2         -0.6051    1.8702   -0.8534 H         1 <0>         0.0573
     30 H3         -0.5864    1.8560    0.9264 H         1 <0>         0.0624
     31 H4          0.4920   -0.3766    0.8973 H         1 <0>         0.0817
     32 H5         -1.0583   -0.4046    0.0233 H         1 <0>         0.0646
     33 H6          0.1490   -0.1428   -2.1267 H         1 <0>         0.0839
     34 H7          1.6994   -0.1149   -1.2527 H         1 <0>         0.0857
     35 H8          1.0809   -1.9532   -3.3477 H         1 <0>         0.1417
     36 H9          2.4927   -2.3460   -2.3749 H         1 <0>         0.1382
     37 H10         1.7428   -5.8632   -2.3054 H         1 <0>         0.1850
     38 H11         3.0938   -4.8894   -2.8808 H         1 <0>         0.1371
     39 H12         2.9612   -5.5582   -0.4256 H         1 <0>         0.1292
     40 H13         3.4527   -3.9241   -0.8675 H         1 <0>         0.0867
     41 H14         0.3296   -5.7453   -0.4246 H         1 <0>         0.1213
     42 H15        -0.4008   -4.6074    0.7136 H         1 <0>         0.1182
     43 H16        -1.1510   -2.3448   -0.2005 H         1 <0>         0.1274
     44 H17        -1.3214   -2.2243   -1.9745 H         1 <0>         0.1224
     45 H18        -0.9991   -1.7430   -3.4422 H         1 <0>         0.1583
     46 H19        -3.4862   -3.3440   -6.5356 H         1 <0>         0.1574
     47 H20        -2.8131   -5.6551   -5.9700 H         1 <0>         0.1644
     48 H21        -1.1899   -7.0426   -4.1947 H         1 <0>         0.4423
     49 H22         2.9619   -4.0502    1.6788 H         1 <0>         0.0821
     50 H23         1.2572   -3.9290    2.1763 H         1 <0>         0.0785
     51 H24         0.9115   -6.2907    1.3883 H         1 <0>         0.0620
     52 H25         2.6552   -6.3940    1.0460 H         1 <0>         0.0617
     53 H26         2.0884   -6.1658    2.7178 H         1 <0>         0.0714
     54 H27         1.4279   -3.9850   -3.8259 H         1 <0>         0.4241
@<TRIPOS>BOND
     1    1    2 1
     2    1   28 1
     3    1   29 1
     4    1   30 1
     5    2    3 1
     6    2   31 1
     7    2   32 1
     8    3    4 1
     9    3   33 1
    10    3   34 1
    11    4   10 1
    12    4   14 1
    13    4    5 1
    14    5    6 1
    15    5   35 1
    16    5   36 1
    17    6   15 1
    18    6    7 1
    19    6   54 1
    20    7    8 1
    21    7   37 1
    22    7   38 1
    23    8    9 1
    24    8   39 1
    25    8   40 1
    26    9   10 1
    27    9   12 1
    28    9   26 1
    29   10   11 2
    30   12   13 1
    31   12   41 1
    32   12   42 1
    33   13   14 1
    34   13   15 1
    35   14   43 1
    36   14   44 1
    37   15   23 1
    38   15   16 1
    39   16   21 ar
    40   16   17 ar
    41   17   18 ar
    42   17   45 1
    43   18   19 ar
    44   18   25 1
    45   19   20 ar
    46   19   46 1
    47   20   21 ar
    48   20   47 1
    49   21   22 1
    50   22   23 am
    51   22   48 1
    52   23   24 2
    53   26   27 1
    54   26   49 1
    55   26   50 1
    56   27   51 1
    57   27   52 1
    58   27   53 1
@<TRIPOS>MOLECULE
ZINC63187834
   57    61     0     0     0
SMALL
USER_CHARGES

@<TRIPOS>ATOM
      1 C1         -0.0187    1.5258    0.0104 C.3       1 <0>        -0.1344
      2 C2          0.0021   -0.0041    0.0020 C.3       1 <0>        -0.0628
      3 H1          0.5125   -0.3538   -0.8953 H         1 <0>         0.0925
      4 C3         -1.4257   -0.5280    0.0068 C.3       1 <0>        -0.1372
      5 C4         -1.5727   -2.0053   -0.2455 C.3       1 <0>         0.1175
      6 N1         -1.0284   -2.7978    0.8675 N.am      1 <0>        -0.5577
      7 C5          0.3189   -3.1817    0.8161 C.ar      1 <0>         0.1385
      8 C6          0.6482   -4.5076    0.5597 C.ar      1 <0>        -0.1228
      9 C7          1.9767   -4.8775    0.4619 C.ar      1 <0>        -0.0890
     10 C8          2.9836   -3.9413    0.6120 C.ar      1 <0>        -0.1095
     11 C9          2.6655   -2.6209    0.8857 C.ar      1 <0>        -0.0616
     12 C10         1.3377   -2.2592    1.0067 C.ar      1 <0>        -0.1005
     13 S1          0.8876   -0.6030    1.4715 S.3       1 <0>        -0.1461
     14 C11        -1.8059   -3.1461    1.9118 C.2       1 <0>         0.5213
     15 O1         -2.9698   -2.8057    1.9414 O.2       1 <0>        -0.5180
     16 C12        -1.2294   -3.9585    3.0425 C.3       1 <0>         0.1021
     17 N2         -2.2678   -4.2041    4.0464 N.am      1 <0>        -0.5581
     18 C13        -2.5198   -3.3893    5.0898 C.2       1 <0>         0.5322
     19 O2         -1.9517   -2.3541    5.3645 O.2       1 <0>        -0.4377
     20 C14        -3.6621   -4.0358    5.8481 C.3       1 <0>         0.1017
     21 H2         -4.5317   -3.3789    5.8648 H         1 <0>         0.1394
     22 N3         -3.9478   -5.2542    5.0708 N.am      1 <0>        -0.7297
     23 C15        -3.0868   -5.2620    4.0372 C.2       1 <0>         0.7102
     24 O3         -3.0543   -6.1342    3.1915 O.2       1 <0>        -0.5180
     25 C16        -3.2301   -4.3908    7.2722 C.3       1 <0>        -0.0929
     26 C17        -4.4151   -4.9174    8.0400 C.2       1 <0>         0.0599
     27 C18        -4.7606   -6.2135    8.2139 C.ar      1 <0>        -0.1640
     28 C19        -4.1603   -7.4725    7.7568 C.ar      1 <0>        -0.0199
     29 C20        -4.7487   -8.6416    8.0977 C.ar      1 <0>        -0.1440
     30 C21        -5.9149   -8.6809    8.8743 C.ar      1 <0>         0.0553
     31 C22        -6.5246   -7.5666    9.3312 C.ar      1 <0>        -0.2083
     32 C23        -5.9917   -6.2821    9.0332 C.ar      1 <0>         0.3289
     33 N4         -6.3917   -5.0754    9.3533 N.pl3     1 <0>        -0.5817
     34 C24        -5.4550   -4.1040    8.7777 C.3       1 <0>         0.0605
     35 H3          1.0039    1.9031    0.0027 H         1 <0>         0.0715
     36 H4         -0.5459    1.8868   -0.8726 H         1 <0>         0.0758
     37 H5         -0.5289    1.8773    0.9072 H         1 <0>         0.0645
     38 H6         -1.8704   -0.3005    0.9756 H         1 <0>         0.0784
     39 H7         -1.9892    0.0074   -0.7573 H         1 <0>         0.0888
     40 H8         -2.6295   -2.2424   -0.3685 H         1 <0>         0.0992
     41 H9         -1.0415   -2.2650   -1.1612 H         1 <0>         0.0830
     42 H10        -0.1306   -5.2459    0.4377 H         1 <0>         0.1340
     43 H11         2.2310   -5.9086    0.2658 H         1 <0>         0.1358
     44 H12         4.0172   -4.2393    0.5157 H         1 <0>         0.1377
     45 H13         3.4459   -1.8835    1.0026 H         1 <0>         0.1429
     46 H14        -0.8645   -4.9104    2.6568 H         1 <0>         0.1320
     47 H15        -0.4046   -3.4114    3.4993 H         1 <0>         0.1322
     48 H16        -4.6265   -5.9195    5.2648 H         1 <0>         0.4394
     49 H17        -2.4523   -5.1536    7.2365 H         1 <0>         0.1229
     50 H18        -2.8432   -3.5001    7.7672 H         1 <0>         0.1409
     51 H19        -3.2623   -7.4655    7.1569 H         1 <0>         0.1601
     52 H20        -4.3087   -9.5692    7.7624 H         1 <0>         0.1592
     53 H21        -6.3434   -9.6421    9.1168 H         1 <0>         0.1621
     54 H22        -7.4221   -7.6509    9.9261 H         1 <0>         0.1616
     55 H23        -4.9837   -3.5196    9.5679 H         1 <0>         0.1790
     56 H24        -5.9785   -3.4459    8.0842 H         1 <0>         0.1756
     57 H25        -7.1740   -4.8609    9.8853 H         1 <0>         0.4571
@<TRIPOS>BOND
     1    1    2 1
     2    1   35 1
     3    1   36 1
     4    1   37 1
     5    2    3 1
     6    2   13 1
     7    2    4 1
     8    4    5 1
     9    4   38 1
    10    4   39 1
    11    5    6 1
    12    5   40 1
    13    5   41 1
    14    6    7 1
    15    6   14 am
    16    7   12 ar
    17    7    8 ar
    18    8    9 ar
    19    8   42 1
    20    9   10 ar
    21    9   43 1
    22   10   11 ar
    23   10   44 1
    24   11   12 ar
    25   11   45 1
    26   12   13 1
    27   14   15 2
    28   14   16 1
    29   16   17 1
    30   16   46 1
    31   16   47 1
    32   17   23 am
    33   17   18 am
    34   18   19 2
    35   18   20 1
    36   20   21 1
    37   20   22 1
    38   20   25 1
    39   22   23 am
    40   22   48 1
    41   23   24 2
    42   25   26 1
    43   25   49 1
    44   25   50 1
    45   26   34 1
    46   26   27 2
    47   27   32 ar
    48   27   28 ar
    49   28   29 ar
    50   28   51 1
    51   29   30 ar
    52   29   52 1
    53   30   31 ar
    54   30   53 1
    55   31   32 ar
    56   31   54 1
    57   32   33 2
    58   33   34 1
    59   33   57 1
    60   34   55 1
    61   34   56 1
@<TRIPOS>MOLECULE
ZINC00335937
   37    40     0     0     0
SMALL
USER_CHARGES
(5-methyl-2-furyl)-methylsulfanyl-BLAH
@<TRIPOS>ATOM
      1 C1         -3.4883    4.2369    4.0101 C.3       1 <0>        -0.0777
      2 C2         -2.3526    5.1028    3.5290 C.2       1 <0>         0.0072
      3 C3         -1.9608    6.2650    4.0815 C.2       1 <0>        -0.2188
      4 C4         -0.8653    6.7320    3.3195 C.2       1 <0>        -0.1613
      5 C5         -0.6584    5.8314    2.3419 C.2       1 <0>        -0.0434
      6 O1         -1.5601    4.8452    2.4757 O.3       1 <0>        -0.1517
      7 C6          0.4084    5.9122    1.2806 C.3       1 <0>         0.4311
      8 H1          0.6025    6.9604    1.0533 H         1 <0>         0.1213
      9 N1         -0.0700    5.2445    0.0737 N.pl3     1 <0>        -0.7905
     10 C7         -0.0746    3.8467    0.0335 C.ar      1 <0>         0.1844
     11 C8         -1.2565    3.1296    0.0353 C.ar      1 <0>        -0.1122
     12 C9         -1.2231    1.7471    0.0173 C.ar      1 <0>        -0.0903
     13 C10        -0.0126    1.0758    0.0080 C.ar      1 <0>        -0.1237
     14 C11         1.1767    1.7782    0.0004 C.ar      1 <0>        -0.0666
     15 C12         1.1581    3.1676    0.0081 C.ar      1 <0>        -0.0622
     16 C13         2.4058    3.9580   -0.0239 C.ar      1 <0>         0.0555
     17 C14         2.5756    5.0311    0.8797 C.ar      1 <0>         0.3720
     18 N2          3.6933    5.7352    0.8279 N.ar      1 <0>        -0.4633
     19 C15         4.6252    5.4109   -0.0640 C.ar      1 <0>         0.2457
     20 N3          4.4495    4.3944   -0.8989 N.ar      1 <0>        -0.2905
     21 N4          3.3742    3.6851   -0.8850 N.ar      1 <0>        -0.1516
     22 S1          6.1168    6.3458   -0.1382 S.3       1 <0>         0.0438
     23 C16         6.9647    5.4788   -1.4819 C.3       1 <0>        -0.1548
     24 O2          1.6018    5.3166    1.7765 O.3       1 <0>        -0.3113
     25 H2         -3.5727    3.3593    3.3693 H         1 <0>         0.0775
     26 H3         -3.2953    3.9210    5.0353 H         1 <0>         0.0889
     27 H4         -4.4183    4.8042    3.9736 H         1 <0>         0.0881
     28 H5         -2.3966    6.7467    4.9443 H         1 <0>         0.1526
     29 H6         -0.3038    7.6390    3.4883 H         1 <0>         0.1537
     30 H7         -0.3788    5.7613   -0.6869 H         1 <0>         0.4159
     31 H8         -2.2039    3.6480    0.0470 H         1 <0>         0.1312
     32 H9         -2.1470    1.1878    0.0148 H         1 <0>         0.1307
     33 H10         0.0021   -0.0041    0.0020 H         1 <0>         0.1319
     34 H11         2.1182    1.2492   -0.0112 H         1 <0>         0.1303
     35 H12         7.9334    5.9453   -1.6610 H         1 <0>         0.1157
     36 H13         7.1098    4.4344   -1.2058 H         1 <0>         0.0962
     37 H14         6.3614    5.5347   -2.3880 H         1 <0>         0.0961
@<TRIPOS>BOND
     1    1    2 1
     2    1   25 1
     3    1   26 1
     4    1   27 1
     5    2    6 1
     6    2    3 2
     7    3    4 1
     8    3   28 1
     9    4    5 2
    10    4   29 1
    11    5    6 1
    12    5    7 1
    13    7    8 1
    14    7   24 1
    15    7    9 1
    16    9   10 1
    17    9   30 1
    18   10   15 ar
    19   10   11 ar
    20   11   12 ar
    21   11   31 1
    22   12   13 ar
    23   12   32 1
    24   13   14 ar
    25   13   33 1
    26   14   15 ar
    27   14   34 1
    28   15   16 1
    29   16   21 ar
    30   16   17 ar
    31   17   18 ar
    32   17   24 1
    33   18   19 ar
    34   19   20 ar
    35   19   22 1
    36   20   21 ar
    37   22   23 1
    38   23   35 1
    39   23   36 1
    40   23   37 1
@<TRIPOS>MOLECULE
ZINC12904977
   45    48     0     0     0
SMALL
USER_CHARGES
3-(1,3-benzoxazol-2-ylmethyl)-8-ethyl-1,3-diazaspiro[4.5]decane-2,4-dione
@<TRIPOS>ATOM
      1 C1         -4.2022   -6.3401   -7.8373 C.3       1 <0>        -0.1561
      2 C2         -3.0023   -5.4453   -7.5201 C.3       1 <0>        -0.1197
      3 C3         -3.2090   -4.7788   -6.1585 C.3       1 <0>        -0.0929
      4 C4         -2.0711   -3.7899   -5.8972 C.3       1 <0>        -0.1119
      5 C5         -2.2847   -3.1155   -4.5395 C.3       1 <0>        -0.1138
      6 C6         -2.3211   -4.1757   -3.4442 C.3       1 <0>         0.1282
      7 C7         -3.4377   -5.1811   -3.7033 C.3       1 <0>        -0.1143
      8 C8         -3.2201   -5.8479   -5.0641 C.3       1 <0>        -0.1135
      9 C9         -2.4993   -3.5341   -2.0875 C.2       1 <0>         0.5309
     10 O1         -3.4373   -2.8655   -1.7093 O.2       1 <0>        -0.4401
     11 N1         -1.3936   -3.8604   -1.3867 N.am      1 <0>        -0.5789
     12 C10        -0.5586   -4.6184   -2.1079 C.2       1 <0>         0.7017
     13 O2          0.5019   -5.0409   -1.6907 O.2       1 <0>        -0.5314
     14 N2         -1.0253   -4.8600   -3.3479 N.am      1 <0>        -0.7122
     15 C11        -1.1410   -3.4422   -0.0055 C.3       1 <0>         0.2151
     16 C12        -0.4020   -2.1288   -0.0055 C.2       1 <0>         0.2162
     17 N3         -0.9670   -0.9591    0.0061 N.2       1 <0>        -0.4472
     18 C13         0.0021   -0.0041    0.0020 C.ar      1 <0>         0.0139
     19 C14        -0.0169    1.3917    0.0097 C.ar      1 <0>        -0.0553
     20 C15         1.1693    2.0906    0.0021 C.ar      1 <0>        -0.1202
     21 C16         2.3817    1.4166   -0.0131 C.ar      1 <0>        -0.0859
     22 C17         2.4155    0.0380   -0.0208 C.ar      1 <0>        -0.0948
     23 C18         1.2304   -0.6820   -0.0134 C.ar      1 <0>         0.0154
     24 O3          0.9341   -2.0003   -0.0176 O.3       1 <0>        -0.2003
     25 H1         -4.2973   -7.1066   -7.0682 H         1 <0>         0.0566
     26 H2         -5.1092   -5.7361   -7.8624 H         1 <0>         0.0546
     27 H3         -4.0549   -6.8149   -8.8073 H         1 <0>         0.0539
     28 H4         -2.9072   -4.6788   -8.2892 H         1 <0>         0.0637
     29 H5         -2.0953   -6.0493   -7.4950 H         1 <0>         0.0622
     30 H6         -4.1603   -4.2466   -6.1558 H         1 <0>         0.0776
     31 H7         -2.0602   -3.0328   -6.6813 H         1 <0>         0.0759
     32 H8         -1.1203   -4.3227   -5.8929 H         1 <0>         0.0652
     33 H9         -3.2287   -2.5706   -4.5491 H         1 <0>         0.0918
     34 H10        -1.4668   -2.4214   -4.3460 H         1 <0>         0.0730
     35 H11        -3.4311   -5.9407   -2.9215 H         1 <0>         0.0768
     36 H12        -4.3982   -4.6659   -3.7008 H         1 <0>         0.0919
     37 H13        -4.0269   -6.5555   -5.2554 H         1 <0>         0.0791
     38 H14        -2.2664   -6.3757   -5.0619 H         1 <0>         0.0653
     39 H15        -0.5916   -5.3829   -4.0402 H         1 <0>         0.4412
     40 H16        -0.5386   -4.1980    0.4985 H         1 <0>         0.1331
     41 H17        -2.0898   -3.3253    0.5180 H         1 <0>         0.1442
     42 H18        -0.9581    1.9211    0.0170 H         1 <0>         0.1385
     43 H19         1.1558    3.1705    0.0077 H         1 <0>         0.1406
     44 H20         3.3058    1.9756   -0.0193 H         1 <0>         0.1437
     45 H21         3.3631   -0.4799   -0.0330 H         1 <0>         0.1380
@<TRIPOS>BOND
     1    1    2 1
     2    1   25 1
     3    1   26 1
     4    1   27 1
     5    2    3 1
     6    2   28 1
     7    2   29 1
     8    3    8 1
     9    3    4 1
    10    3   30 1
    11    4    5 1
    12    4   31 1
    13    4   32 1
    14    5    6 1
    15    5   33 1
    16    5   34 1
    17    6   14 1
    18    6    7 1
    19    6    9 1
    20    7    8 1
    21    7   35 1
    22    7   36 1
    23    8   37 1
    24    8   38 1
    25    9   10 2
    26    9   11 am
    27   11   12 am
    28   11   15 1
    29   12   13 2
    30   12   14 am
    31   14   39 1
    32   15   16 1
    33   15   40 1
    34   15   41 1
    35   16   24 1
    36   16   17 2
    37   17   18 1
    38   18   23 ar
    39   18   19 ar
    40   19   20 ar
    41   19   42 1
    42   20   21 ar
    43   20   43 1
    44   21   22 ar
    45   21   44 1
    46   22   23 ar
    47   22   45 1
    48   23   24 1
@<TRIPOS>MOLECULE
ZINC36275491
   32    34     0     0     0
SMALL
USER_CHARGES

@<TRIPOS>ATOM
      1 C1         -0.0187    1.5258    0.0104 C.3       1 <0>        -0.1566
      2 C2          0.0021   -0.0041    0.0020 C.3       1 <0>         0.0377
      3 H1         -1.0205   -0.3814    0.0098 H         1 <0>         0.1533
      4 C3          0.7309   -0.5033    1.2229 C.2       1 <0>         0.4053
      5 N1          2.0531   -0.7992    1.1361 N.am      1 <0>        -0.6269
      6 H2          2.5113   -0.6850    0.2888 H         1 <0>         0.4250
      7 C4          2.7407   -1.2476    2.2027 C.2       1 <0>         0.5567
      8 O1          3.9278   -1.5086    2.1085 O.2       1 <0>        -0.5100
      9 C5          2.0571   -1.4129    3.4494 C.2       1 <0>        -0.2411
     10 C6          2.5747   -1.8768    4.7311 C.2       1 <0>        -0.0256
     11 C7          1.7286   -1.9520    5.7868 C.2       1 <0>        -0.1694
     12 S1          0.1750   -1.3984    5.1107 S.3       1 <0>         0.1880
     13 C8          0.6922   -1.0821    3.4432 C.2       1 <0>         0.1066
     14 N2          0.0811   -0.6388    2.3477 N.2       1 <0>        -0.4748
     15 C9          3.9994   -2.2594    4.8764 C.ar      1 <0>        -0.0385
     16 C10         4.5848   -3.1372    3.9647 C.ar      1 <0>        -0.0100
     17 C11         5.9115   -3.4893    4.1047 C.ar      1 <0>        -0.1175
     18 C12         6.6608   -2.9733    5.1471 C.ar      1 <0>        -0.0475
     19 C13         6.0854   -2.1025    6.0548 C.ar      1 <0>        -0.0535
     20 C14         4.7607   -1.7386    5.9215 C.ar      1 <0>        -0.0412
     21 N3          6.8935   -1.5552    7.1676 N.pl3     1 <0>         0.0351
     22 O2          8.0553   -1.8692    7.2824 O.2       1 <0>        -0.1571
     23 O3          6.3917   -0.7940    7.9616 O.3       1 <0>        -0.1598
     24 Cl1         0.8460   -0.5855   -1.4814 Cl        1 <0>        -0.1387
     25 H3          1.0039    1.9031    0.0027 H         1 <0>         0.0740
     26 H4         -0.5459    1.8868   -0.8726 H         1 <0>         0.0946
     27 H5         -0.5289    1.8773    0.9072 H         1 <0>         0.0923
     28 H6          1.9438   -2.2713    6.7958 H         1 <0>         0.2047
     29 H7          4.0009   -3.5408    3.1508 H         1 <0>         0.1380
     30 H8          6.3659   -4.1693    3.3994 H         1 <0>         0.1493
     31 H9          7.6989   -3.2517    5.2527 H         1 <0>         0.1544
     32 H10         4.3137   -1.0548    6.6280 H         1 <0>         0.1536
@<TRIPOS>BOND
     1    1    2 1
     2    1   25 1
     3    1   26 1
     4    1   27 1
     5    2    3 1
     6    2    4 1
     7    2   24 1
     8    4   14 2
     9    4    5 1
    10    5    6 1
    11    5    7 am
    12    7    8 2
    13    7    9 1
    14    9   13 2
    15    9   10 1
    16   10   11 2
    17   10   15 1
    18   11   12 1
    19   11   28 1
    20   12   13 1
    21   13   14 1
    22   15   20 ar
    23   15   16 ar
    24   16   17 ar
    25   16   29 1
    26   17   18 ar
    27   17   30 1
    28   18   19 ar
    29   18   31 1
    30   19   20 ar
    31   19   21 1
    32   20   32 1
    33   21   22 2
    34   21   23 1
@<TRIPOS>MOLECULE
ZINC41637628
   43    46     0     0     0
SMALL
USER_CHARGES

@<TRIPOS>ATOM
      1 C1          0.9805    1.7692   -0.3502 C.3       1 <0>        -0.0798
      2 C2          0.6953    0.2905   -0.2951 C.2       1 <0>         0.0117
      3 C3         -0.5241   -0.2770   -0.3203 C.2       1 <0>        -0.2118
      4 C4         -0.3268   -1.6751   -0.2487 C.2       1 <0>        -0.1487
      5 C5          1.0013   -1.8785   -0.1840 C.2       1 <0>        -0.0632
      6 O1          1.6156   -0.6846   -0.2183 O.3       1 <0>        -0.1738
      7 C6          1.6844   -3.2188   -0.0940 C.3       1 <0>         0.2793
      8 H1          0.9648   -4.0085   -0.3098 H         1 <0>         0.1680
      9 C7          2.2370   -3.4087    1.2951 C.2       1 <0>        -0.4834
     10 C8          2.0976   -4.4493    2.1248 C.2       1 <0>         0.4796
     11 N1          2.6840   -4.4374    3.3676 N.pl3     1 <0>        -0.3690
     12 C9          3.4024   -3.3320    3.7074 C.2       1 <0>         0.2414
     13 S1          3.2567   -2.3070    2.2636 S.3       1 <0>         0.1026
     14 N2          3.8889   -3.4785    4.9096 N.2       1 <0>        -0.5033
     15 C10         3.5158   -4.6611    5.3941 C.2       1 <0>         0.2144
     16 N3          2.7873   -5.2804    4.5046 N.2       1 <0>        -0.2849
     17 O2          1.3680   -5.5291    1.7345 O.3       1 <0>        -0.6396
     18 N4          2.7813   -3.2759   -1.0694 N.4       1 <0>        -0.3764
     19 C11         3.8277   -2.3218   -0.6831 C.3       1 <0>        -0.0276
     20 C12         4.9353   -2.3186   -1.7389 C.3       1 <0>        -0.1362
     21 C13         5.5366   -3.7230   -1.8444 C.3       1 <0>        -0.1363
     22 C14         4.4229   -4.7209   -2.1746 C.3       1 <0>        -0.1356
     23 C15         3.3342   -4.6351   -1.1027 C.3       1 <0>         0.0358
     24 H2          3.7629   -4.8764   -0.1300 H         1 <0>         0.1345
     25 C16         2.2191   -5.6308   -1.4283 C.3       1 <0>        -0.1857
     26 H3          2.0576    1.9329   -0.3177 H         1 <0>         0.0783
     27 H4          0.5779    2.1827   -1.2749 H         1 <0>         0.0893
     28 H5          0.5122    2.2615    0.5021 H         1 <0>         0.0914
     29 H6         -1.4719    0.2369   -0.3827 H         1 <0>         0.1546
     30 H7         -1.0950   -2.4342   -0.2461 H         1 <0>         0.1558
     31 H8          3.7753   -5.0476    6.3687 H         1 <0>         0.2311
     32 H9          3.3976   -1.3233   -0.6053 H         1 <0>         0.1317
     33 H10         4.2459   -2.6124    0.2807 H         1 <0>         0.1416
     34 H11         4.5182   -2.0278   -2.7031 H         1 <0>         0.0799
     35 H12         5.7121   -1.6109   -1.4493 H         1 <0>         0.1052
     36 H13         6.2871   -3.7398   -2.6346 H         1 <0>         0.0873
     37 H14         5.9989   -3.9938   -0.8951 H         1 <0>         0.0802
     38 H15         3.9951   -4.4801   -3.1478 H         1 <0>         0.0820
     39 H16         4.8334   -5.7304   -2.1965 H         1 <0>         0.1042
     40 H17         1.7088   -5.3195   -2.3398 H         1 <0>         0.0688
     41 H18         2.6482   -6.6224   -1.5727 H         1 <0>         0.0951
     42 H19         1.5060   -5.6599   -0.6045 H         1 <0>         0.1036
     43 H20         2.4298   -3.0344   -1.9838 H         1 <0>         0.4076
@<TRIPOS>BOND
     1    1    2 1
     2    1   26 1
     3    1   27 1
     4    1   28 1
     5    2    6 1
     6    2    3 2
     7    3    4 1
     8    3   29 1
     9    4    5 2
    10    4   30 1
    11    5    6 1
    12    5    7 1
    13    7    8 1
    14    7    9 1
    15    7   18 1
    16    9   13 1
    17    9   10 2
    18   10   11 1
    19   10   17 1
    20   11   16 1
    21   11   12 1
    22   12   13 1
    23   12   14 2
    24   14   15 1
    25   15   16 2
    26   15   31 1
    27   18   23 1
    28   18   19 1
    29   18   43 1
    30   19   20 1
    31   19   32 1
    32   19   33 1
    33   20   21 1
    34   20   34 1
    35   20   35 1
    36   21   22 1
    37   21   36 1
    38   21   37 1
    39   22   23 1
    40   22   38 1
    41   22   39 1
    42   23   24 1
    43   23   25 1
    44   25   40 1
    45   25   41 1
    46   25   42 1
@<TRIPOS>MOLECULE
ZINC03592944
   53    55     0     0     0
SMALL
USER_CHARGES

@<TRIPOS>ATOM
      1 C1         -0.0178    1.4608    0.0101 C.3       1 <0>         0.0683
      2 N1          0.0021   -0.0041    0.0020 N.am      1 <0>        -0.6083
      3 C2          0.0241   -0.7433    1.2666 C.3       1 <0>         0.1399
      4 C3         -1.2223   -0.3950    2.0828 C.3       1 <0>        -0.1275
      5 C4         -1.1993   -1.1671    3.4035 C.3       1 <0>        -0.1174
      6 C5          0.0524   -0.7848    4.1959 C.3       1 <0>        -0.1218
      7 C6          1.2989   -1.1331    3.3798 C.3       1 <0>        -0.1176
      8 C7          1.2758   -0.3610    2.0591 C.3       1 <0>        -0.1260
      9 C8          0.0001   -0.6716   -1.1688 C.2       1 <0>         0.5039
     10 O1          0.0165   -1.8843   -1.1755 O.2       1 <0>        -0.5268
     11 C9         -0.0226    0.0888   -2.4697 C.3       1 <0>         0.1002
     12 N2         -0.0203   -0.8571   -3.5884 N.am      1 <0>        -0.5637
     13 C10         1.0968   -1.3357   -4.1747 C.2       1 <0>         0.5394
     14 O2          2.2457   -1.0752   -3.8881 O.2       1 <0>        -0.4593
     15 C11         0.6134   -2.2646   -5.2635 C.3       1 <0>         0.1316
     16 C12         1.1025   -1.8393   -6.6188 C.3       1 <0>        -0.1135
     17 C13         0.0616   -2.1017   -7.7283 C.3       1 <0>        -0.1135
     18 C14        -0.6457   -3.4621   -7.5713 C.3       1 <0>        -0.1260
     19 C15         0.3023   -4.5603   -7.1739 C.3       1 <0>        -0.1223
     20 C16         0.2727   -4.6974   -5.6390 C.3       1 <0>        -0.1228
     21 C17         1.0988   -3.6988   -4.9737 C.3       1 <0>        -0.1108
     22 N3         -0.8491   -2.2048   -5.1629 N.am      1 <0>        -0.7133
     23 C18        -1.1263   -1.3584   -4.1522 C.2       1 <0>         0.7049
     24 O3         -2.2537   -1.0787   -3.7946 O.2       1 <0>        -0.5413
     25 H1          1.0048    1.8381    0.0023 H         1 <0>         0.0629
     26 H2         -0.5450    1.8219   -0.8730 H         1 <0>         0.0733
     27 H3         -0.5280    1.8123    0.9069 H         1 <0>         0.0799
     28 H4          0.0368   -1.8138    1.0616 H         1 <0>         0.1011
     29 H5         -1.2349    0.6754    2.2878 H         1 <0>         0.0670
     30 H6         -2.1140   -0.6674    1.5182 H         1 <0>         0.0663
     31 H7         -2.0872   -0.9190    3.9849 H         1 <0>         0.0672
     32 H8         -1.1866   -2.2375    3.1984 H         1 <0>         0.0647
     33 H9          0.0398    0.2857    4.4010 H         1 <0>         0.0629
     34 H10         0.0688   -1.3348    5.1369 H         1 <0>         0.0648
     35 H11         2.1906   -0.8607    3.9444 H         1 <0>         0.0670
     36 H12         1.3115   -2.2035    3.1748 H         1 <0>         0.0646
     37 H13         2.1638   -0.6091    1.4777 H         1 <0>         0.0654
     38 H14         1.2632    0.7094    2.2641 H         1 <0>         0.0665
     39 H15        -0.9215    0.7036   -2.5156 H         1 <0>         0.1280
     40 H16         0.8582    0.7278   -2.5324 H         1 <0>         0.1253
     41 H17         1.3306   -0.7737   -6.5935 H         1 <0>         0.0727
     42 H18         2.0145   -2.3882   -6.8534 H         1 <0>         0.0902
     43 H19        -0.6876   -1.3104   -7.7021 H         1 <0>         0.0661
     44 H20         0.5640   -2.0758   -8.6953 H         1 <0>         0.0741
     45 H21        -1.4199   -3.3714   -6.8094 H         1 <0>         0.0591
     46 H22        -1.1152   -3.7270   -8.5187 H         1 <0>         0.0711
     47 H23        -0.0102   -5.4986   -7.6322 H         1 <0>         0.0704
     48 H24         1.3116   -4.3100   -7.5006 H         1 <0>         0.0730
     49 H25        -0.7560   -4.5899   -5.2952 H         1 <0>         0.0646
     50 H26         0.6315   -5.6900   -5.3667 H         1 <0>         0.0737
     51 H27         2.1273   -3.8019   -5.3196 H         1 <0>         0.0870
     52 H28         1.0687   -3.8730   -3.8982 H         1 <0>         0.0740
     53 H29        -1.4895   -2.6831   -5.7126 H         1 <0>         0.4406
@<TRIPOS>BOND
     1    1    2 1
     2    1   25 1
     3    1   26 1
     4    1   27 1
     5    2    3 1
     6    2    9 am
     7    3    8 1
     8    3    4 1
     9    3   28 1
    10    4    5 1
    11    4   29 1
    12    4   30 1
    13    5    6 1
    14    5   31 1
    15    5   32 1
    16    6    7 1
    17    6   33 1
    18    6   34 1
    19    7    8 1
    20    7   35 1
    21    7   36 1
    22    8   37 1
    23    8   38 1
    24    9   10 2
    25    9   11 1
    26   11   12 1
    27   11   39 1
    28   11   40 1
    29   12   23 am
    30   12   13 am
    31   13   14 2
    32   13   15 1
    33   15   21 1
    34   15   16 1
    35   15   22 1
    36   16   17 1
    37   16   41 1
    38   16   42 1
    39   17   18 1
    40   17   43 1
    41   17   44 1
    42   18   19 1
    43   18   45 1
    44   18   46 1
    45   19   20 1
    46   19   47 1
    47   19   48 1
    48   20   21 1
    49   20   49 1
    50   20   50 1
    51   21   51 1
    52   21   52 1
    53   22   23 am
    54   22   53 1
    55   23   24 2
@<TRIPOS>MOLECULE
ZINC66813896
   36    39     0     0     0
SMALL
USER_CHARGES

@<TRIPOS>ATOM
      1 C1         -0.0167    1.3780    0.0096 C.ar      1 <0>        -0.0699
      2 C2          1.1704    2.0864    0.0021 C.ar      1 <0>        -0.1407
      3 C3          2.3786    1.4116   -0.0131 C.ar      1 <0>         0.1159
      4 C4          2.3968    0.0258   -0.0207 C.ar      1 <0>        -0.0771
      5 C5          1.2079   -0.6803   -0.0132 C.ar      1 <0>        -0.0524
      6 C6          0.0021   -0.0041    0.0020 C.ar      1 <0>        -0.0851
      7 C7         -1.2930   -0.7746    0.0103 C.3       1 <0>         0.1239
      8 H1         -2.0861   -0.1581   -0.4131 H         1 <0>         0.0786
      9 C8         -1.6536   -1.1545    1.4510 C.3       1 <0>         0.0939
     10 N1         -2.8130   -2.0601    1.4158 N.pl3     1 <0>        -0.5809
     11 C9         -2.7520   -3.2273    0.5218 C.3       1 <0>         0.0624
     12 C10        -2.3379   -2.7464   -0.8736 C.3       1 <0>         0.0515
     13 O1         -1.1458   -1.9644   -0.7685 O.3       1 <0>        -0.3720
     14 C11        -3.9275   -1.8214    2.2007 C.ar      1 <0>         0.5082
     15 C12        -5.0321   -2.6890    2.1636 C.ar      1 <0>        -0.1081
     16 C13        -6.1346   -2.3947    2.9837 C.ar      1 <0>         0.3049
     17 N2         -7.0532   -3.3872    2.7528 N.pl3     1 <0>        -0.5786
     18 C14        -6.5151   -4.2360    1.8318 C.2       1 <0>         0.2571
     19 N3         -5.3294   -3.8246    1.4874 N.2       1 <0>        -0.4674
     20 H2         -7.9256   -3.4700    3.1688 H         1 <0>         0.4328
     21 N4         -6.0936   -1.3157    3.7583 N.ar      1 <0>        -0.5629
     22 C15        -5.0367   -0.5308    3.7602 C.ar      1 <0>         0.3691
     23 N5         -3.9756   -0.7691    3.0112 N.ar      1 <0>        -0.5920
     24 Cl1         3.9111   -0.8229   -0.0404 Cl        1 <0>        -0.0445
     25 F1          3.5392    2.1031   -0.0209 F         1 <0>        -0.1241
     26 H3         -0.9593    1.9048    0.0260 H         1 <0>         0.1428
     27 H4          1.1549    3.1663    0.0077 H         1 <0>         0.1498
     28 H5          1.2213   -1.7602   -0.0195 H         1 <0>         0.1497
     29 H6         -0.8085   -1.6581    1.9203 H         1 <0>         0.0794
     30 H7         -1.9054   -0.2566    2.0153 H         1 <0>         0.1131
     31 H8         -2.0175   -3.9396    0.8976 H         1 <0>         0.0772
     32 H9         -3.7318   -3.7021    0.4707 H         1 <0>         0.1402
     33 H10        -2.1528   -3.6077   -1.5155 H         1 <0>         0.1137
     34 H11        -3.1352   -2.1379   -1.3005 H         1 <0>         0.0575
     35 H12        -7.0009   -5.1196    1.4451 H         1 <0>         0.2278
     36 H13        -5.0359    0.3384    4.4012 H         1 <0>         0.2062
@<TRIPOS>BOND
     1    1    6 ar
     2    1    2 ar
     3    1   26 1
     4    2    3 ar
     5    2   27 1
     6    3    4 ar
     7    3   25 1
     8    4    5 ar
     9    4   24 1
    10    5    6 ar
    11    5   28 1
    12    6    7 1
    13    7    8 1
    14    7   13 1
    15    7    9 1
    16    9   29 1
    17    9   30 1
    18    9   10 1
    19   10   11 1
    20   10   14 1
    21   11   12 1
    22   11   31 1
    23   11   32 1
    24   12   13 1
    25   12   33 1
    26   12   34 1
    27   14   15 ar
    28   14   23 ar
    29   15   19 1
    30   15   16 ar
    31   16   17 1
    32   16   21 ar
    33   17   18 1
    34   17   20 1
    35   18   19 2
    36   18   35 1
    37   21   22 ar
    38   22   36 1
    39   22   23 ar
@<TRIPOS>MOLECULE
ZINC09821798
   45    48     0     0     0
SMALL
USER_CHARGES
N-(6-methylbenzothiazol-2-yl)-2-(2-phenylsulfonylaminothiazol-4-yl)-acetamide
@<TRIPOS>ATOM
      1 C1         -1.2880   -0.7829    0.0106 C.3       1 <0>        -0.1132
      2 C2          0.0021   -0.0041    0.0020 C.ar      1 <0>        -0.0674
      3 C3         -0.0167    1.3833    0.0096 C.ar      1 <0>        -0.1060
      4 C4          1.1417    2.1152    0.0025 C.ar      1 <0>        -0.0607
      5 C5          2.4018    1.4735   -0.0129 C.ar      1 <0>         0.0966
      6 C6          2.3822    0.0601   -0.0203 C.ar      1 <0>        -0.1427
      7 C7          1.2167   -0.6648   -0.0131 C.ar      1 <0>        -0.0646
      8 S1          4.1127   -0.3419   -0.0390 S.3       1 <0>        -0.0027
      9 C8          4.7326    1.3345   -0.0359 C.2       1 <0>         0.3742
     10 N1          3.6269    2.0417   -0.0215 N.2       1 <0>        -0.5050
     11 N2          6.0460    1.7753   -0.0460 N.am      1 <0>        -0.6212
     12 C9          6.3135    3.0962   -0.0420 C.2       1 <0>         0.5083
     13 O1          5.4046    3.8989   -0.0295 O.2       1 <0>        -0.4409
     14 C10         7.7421    3.5757   -0.0530 C.3       1 <0>        -0.0594
     15 C11         7.7663    5.0825   -0.0458 C.2       1 <0>         0.0966
     16 C12         8.4538    5.7596    0.9045 C.2       1 <0>        -0.2236
     17 S2          8.1251    7.4463    0.4147 S.3       1 <0>         0.0899
     18 C13         7.1339    7.0918   -0.9664 C.2       1 <0>         0.3176
     19 N3          7.1225    5.7725   -0.9686 N.2       1 <0>        -0.5120
     20 N4          6.5176    7.9695   -1.8444 N.pl3     1 <0>        -0.9923
     21 S3          6.6871    9.6037   -1.6368 S.o2      1 <0>         2.6788
     22 O2          5.9712   10.2241   -2.6960 O.2       1 <0>        -0.9250
     23 O3          6.4074    9.8706   -0.2694 O.2       1 <0>        -0.9235
     24 C14         8.3887    9.9868   -1.8869 C.ar      1 <0>        -0.6838
     25 C15         9.2647    9.9727   -0.8177 C.ar      1 <0>        -0.0141
     26 C16        10.6007   10.2682   -1.0148 C.ar      1 <0>        -0.1351
     27 C17        11.0585   10.5883   -2.2792 C.ar      1 <0>        -0.0540
     28 C18        10.1814   10.6080   -3.3474 C.ar      1 <0>        -0.1384
     29 C19         8.8465   10.3070   -3.1513 C.ar      1 <0>        -0.0136
     30 H1         -1.6093   -0.9651   -1.0149 H         1 <0>         0.0761
     31 H2         -1.1341   -1.7353    0.5179 H         1 <0>         0.0704
     32 H3         -2.0539   -0.2115    0.5351 H         1 <0>         0.0724
     33 H4         -0.9661    1.8981    0.0169 H         1 <0>         0.1349
     34 H5          1.0918    3.1941    0.0088 H         1 <0>         0.1342
     35 H6          1.2480   -1.7443   -0.0188 H         1 <0>         0.1336
     36 H7          6.7730    1.1332   -0.0560 H         1 <0>         0.4288
     37 H8          8.2584    3.1998    0.8303 H         1 <0>         0.1220
     38 H9          8.2417    3.2086   -0.9496 H         1 <0>         0.1202
     39 H10         9.0391    5.3838    1.7308 H         1 <0>         0.2053
     40 H11         5.9869    7.6266   -2.5804 H         1 <0>         0.4418
     41 H12         8.9062    9.7269    0.1710 H         1 <0>         0.1424
     42 H13        11.2861   10.2525   -0.1802 H         1 <0>         0.1385
     43 H14        12.1015   10.8228   -2.4325 H         1 <0>         0.1357
     44 H15        10.5390   10.8581   -4.3353 H         1 <0>         0.1375
     45 H16         8.1612   10.3224   -3.9859 H         1 <0>         0.1435
@<TRIPOS>BOND
     1    1    2 1
     2    1   30 1
     3    1   31 1
     4    1   32 1
     5    2    7 ar
     6    2    3 ar
     7    3    4 ar
     8    3   33 1
     9    4    5 ar
    10    4   34 1
    11    5   10 1
    12    5    6 ar
    13    6    7 ar
    14    6    8 1
    15    7   35 1
    16    8    9 1
    17    9   10 2
    18    9   11 1
    19   11   12 am
    20   11   36 1
    21   12   13 2
    22   12   14 1
    23   14   15 1
    24   14   37 1
    25   14   38 1
    26   15   19 1
    27   15   16 2
    28   16   17 1
    29   16   39 1
    30   17   18 1
    31   18   19 2
    32   18   20 1
    33   20   21 1
    34   20   40 1
    35   21   22 2
    36   21   23 2
    37   21   24 1
    38   24   29 ar
    39   24   25 ar
    40   25   26 ar
    41   25   41 1
    42   26   27 ar
    43   26   42 1
    44   27   28 ar
    45   27   43 1
    46   28   29 ar
    47   28   44 1
    48   29   45 1
@<TRIPOS>MOLECULE
ZINC16361157
   51    54     0     0     0
SMALL
USER_CHARGES
methyl 4-[(5R)-2-allylsulfanyl-4,6-dioxo-3,5,7,8,9,10-hexahydropyrimido[4,5-b]quinolin-5-yl]benzoate
@<TRIPOS>ATOM
      1 C1          1.2684    2.0196    0.0008 C.3       1 <0>         0.0362
      2 O1         -0.0162    1.3429    0.0094 O.3       1 <0>        -0.3568
      3 C2          0.0021   -0.0041    0.0020 C.2       1 <0>         0.5090
      4 O2          1.0621   -0.5970   -0.0113 O.2       1 <0>        -0.5052
      5 C3         -1.2671   -0.7600    0.0101 C.ar      1 <0>        -0.1332
      6 C4         -2.4873   -0.0816    0.0311 C.ar      1 <0>        -0.0652
      7 C5         -3.6687   -0.7938    0.0327 C.ar      1 <0>        -0.1261
      8 C6         -3.6463   -2.1772    0.0251 C.ar      1 <0>        -0.0243
      9 C7         -2.4406   -2.8559    0.0100 C.ar      1 <0>        -0.0999
     10 C8         -1.2518   -2.1562    0.0024 C.ar      1 <0>        -0.0522
     11 C9         -4.9410   -2.9484    0.0328 C.3       1 <0>         0.0913
     12 H1         -4.7202   -4.0158    0.0246 H         1 <0>         0.0994
     13 C10        -5.7035   -2.6147    1.2802 C.2       1 <0>        -0.2998
     14 C11        -5.3292   -3.1761    2.5079 C.2       1 <0>         0.5471
     15 O3         -4.3831   -3.9444    2.5786 O.2       1 <0>        -0.5159
     16 N1         -6.0352   -2.8515    3.6116 N.am      1 <0>        -0.6204
     17 H2         -5.7928   -3.2317    4.4705 H         1 <0>         0.4241
     18 C12        -7.0876   -1.9914    3.5215 C.2       1 <0>         0.3981
     19 N2         -7.4439   -1.4620    2.3688 N.2       1 <0>        -0.5628
     20 C13        -6.7829   -1.7514    1.2428 C.2       1 <0>         0.4276
     21 N3         -7.1706   -1.1938    0.0404 N.pl3     1 <0>        -0.6228
     22 C14        -6.7846   -1.7575   -1.1453 C.2       1 <0>         0.2238
     23 C15        -5.7308   -2.5987   -1.2030 C.2       1 <0>        -0.2684
     24 C16        -5.3316   -3.1760   -2.4217 C.2       1 <0>         0.3995
     25 O4         -4.3901   -3.9441   -2.4367 O.2       1 <0>        -0.4602
     26 C17        -6.0465   -2.8614   -3.7069 C.3       1 <0>        -0.1591
     27 C18        -6.6533   -1.4577   -3.6080 C.3       1 <0>        -0.1127
     28 C19        -7.5731   -1.4139   -2.3860 C.3       1 <0>        -0.0953
     29 S1         -7.9908   -1.5777    4.9768 S.3       1 <0>         0.0177
     30 C20        -9.2179   -0.4475    4.2745 C.3       1 <0>        -0.0705
     31 C21       -10.1281    0.0485    5.3684 C.2       1 <0>        -0.1653
     32 C22       -10.1325    1.3180    5.6915 C.2       1 <0>        -0.1455
     33 H3          1.8378    1.7296    0.8838 H         1 <0>         0.0640
     34 H4          1.8208    1.7391   -0.8960 H         1 <0>         0.0643
     35 H5          1.1110    3.0982    0.0081 H         1 <0>         0.1031
     36 H6         -2.5061    0.9981    0.0417 H         1 <0>         0.1347
     37 H7         -4.6133   -0.2703    0.0449 H         1 <0>         0.1183
     38 H8         -2.4302   -3.9358    0.0037 H         1 <0>         0.1352
     39 H9         -0.3114   -2.6871   -0.0097 H         1 <0>         0.1376
     40 H10        -7.7211   -0.3951    0.0363 H         1 <0>         0.4221
     41 H11        -5.3974   -2.8971   -4.4667 H         1 <0>         0.0885
     42 H12        -6.8395   -3.5909   -3.8714 H         1 <0>         0.1012
     43 H13        -5.8578   -0.7211   -3.4951 H         1 <0>         0.0776
     44 H14        -7.2281   -1.2420   -4.5086 H         1 <0>         0.0894
     45 H15        -7.9930   -0.4133   -2.2835 H         1 <0>         0.0922
     46 H16        -8.3805   -2.1350   -2.5135 H         1 <0>         0.1038
     47 H17        -8.7098    0.3991    3.8129 H         1 <0>         0.1068
     48 H18        -9.8065   -0.9723    3.5221 H         1 <0>         0.1123
     49 H19       -10.7767   -0.6427    5.8860 H         1 <0>         0.1232
     50 H20        -9.4839    2.0092    5.1739 H         1 <0>         0.1031
     51 H21       -10.7849    1.6734    6.4754 H         1 <0>         0.1104
@<TRIPOS>BOND
     1    1    2 1
     2    1   33 1
     3    1   34 1
     4    1   35 1
     5    2    3 1
     6    3    4 2
     7    3    5 1
     8    5   10 ar
     9    5    6 ar
    10    6    7 ar
    11    6   36 1
    12    7    8 ar
    13    7   37 1
    14    8    9 ar
    15    8   11 1
    16    9   10 ar
    17    9   38 1
    18   10   39 1
    19   11   12 1
    20   11   23 1
    21   11   13 1
    22   13   20 2
    23   13   14 1
    24   14   15 2
    25   14   16 am
    26   16   17 1
    27   16   18 1
    28   18   19 2
    29   18   29 1
    30   19   20 1
    31   20   21 1
    32   21   22 1
    33   21   40 1
    34   22   28 1
    35   22   23 2
    36   23   24 1
    37   24   25 2
    38   24   26 1
    39   26   27 1
    40   26   41 1
    41   26   42 1
    42   27   28 1
    43   27   43 1
    44   27   44 1
    45   28   45 1
    46   28   46 1
    47   29   30 1
    48   30   31 1
    49   30   47 1
    50   30   48 1
    51   31   32 2
    52   31   49 1
    53   32   50 1
    54   32   51 1
@<TRIPOS>MOLECULE
ZINC23564324
   57    60     0     0     0
SMALL
USER_CHARGES
(2R)-N-[2-[(2,6-dimethylphenyl)amino]-2-oxo-ethyl]-2-[(5-methyl-[1,2,4]triazolo[4,5-a]quinolin-1-yl)sulfanyl]propanamide
@<TRIPOS>ATOM
      1 C1          1.8519    1.3307    1.4930 C.3       1 <0>        -0.1134
      2 C2          0.8008    2.1066    0.7417 C.ar      1 <0>        -0.0892
      3 C3          0.7135    3.4767    0.8922 C.ar      1 <0>        -0.1173
      4 C4         -0.2547    4.1886    0.2079 C.ar      1 <0>        -0.1126
      5 C5         -1.1344    3.5324   -0.6333 C.ar      1 <0>        -0.1175
      6 C6         -1.0483    2.1632   -0.7929 C.ar      1 <0>        -0.0662
      7 C7         -0.0772    1.4454   -0.1072 C.ar      1 <0>         0.1331
      8 N1          0.0128    0.0582   -0.2667 N.am      1 <0>        -0.6830
      9 C8         -1.0560   -0.7207   -0.0070 C.2       1 <0>         0.5130
     10 O1         -2.1235   -0.2140    0.2666 O.2       1 <0>        -0.5173
     11 C9         -0.9248   -2.2211   -0.0567 C.3       1 <0>         0.1045
     12 N2         -2.2165   -2.8351    0.2608 N.am      1 <0>        -0.7236
     13 C10        -2.3390   -4.1772    0.2766 C.2       1 <0>         0.5387
     14 O2         -1.3799   -4.8766    0.0280 O.2       1 <0>        -0.5295
     15 C11        -3.6678   -4.8087    0.6031 C.3       1 <0>        -0.1218
     16 H1         -4.1691   -4.0588    1.2326 H         1 <0>         0.1271
     17 C12        -4.5182   -4.8928   -0.6660 C.3       1 <0>        -0.1493
     18 S1         -3.3992   -6.4735    1.2608 S.3       1 <0>         0.1026
     19 C13        -5.0536   -6.9046    1.6872 C.2       1 <0>         0.1301
     20 N3         -6.1209   -6.1527    1.5303 N.2       1 <0>        -0.2573
     21 N4         -7.1671   -6.7737    1.9456 N.2       1 <0>        -0.2654
     22 C14        -6.8297   -7.9682    2.3962 C.2       1 <0>         0.2156
     23 N5         -5.4669   -8.0829    2.2364 N.pl3     1 <0>        -0.3919
     24 C15        -4.8014   -9.2324    2.6256 C.ar      1 <0>         0.1350
     25 C16        -3.4263   -9.3483    2.4704 C.ar      1 <0>        -0.1248
     26 C17        -2.7841  -10.5050    2.8607 C.ar      1 <0>        -0.0787
     27 C18        -3.4994  -11.5594    3.4091 C.ar      1 <0>        -0.1148
     28 C19        -4.8635  -11.4658    3.5715 C.ar      1 <0>        -0.0766
     29 C20        -5.5287  -10.2999    3.1808 C.ar      1 <0>        -0.0650
     30 C21        -6.9804  -10.1703    3.3415 C.2       1 <0>        -0.0400
     31 C22        -7.5869   -9.0264    2.9519 C.2       1 <0>        -0.0865
     32 C23        -7.7862  -11.2980    3.9330 C.3       1 <0>        -0.1175
     33 C24        -2.0068    1.4490   -1.7106 C.3       1 <0>        -0.1081
     34 H2          2.4468    2.0210    2.1091 H         1 <0>         0.0693
     35 H3          2.5108    0.8177    0.7769 H         1 <0>         0.0689
     36 H4          1.3653    0.5871    2.1413 H         1 <0>         0.0684
     37 H5          1.3991    3.9921    1.5484 H         1 <0>         0.1260
     38 H6         -0.3241    5.2593    0.3310 H         1 <0>         0.1251
     39 H7         -1.8894    4.0911   -1.1664 H         1 <0>         0.1253
     40 H8          0.9559   -0.3966   -0.6040 H         1 <0>         0.4348
     41 H9         -0.6107   -2.5285   -1.0651 H         1 <0>         0.1028
     42 H10        -0.1732   -2.5480    0.6770 H         1 <0>         0.1039
     43 H11        -3.0864   -2.2007    0.4863 H         1 <0>         0.4402
     44 H12        -5.4881   -5.3538   -0.4276 H         1 <0>         0.0908
     45 H13        -3.9965   -5.5040   -1.4171 H         1 <0>         0.0702
     46 H14        -4.6814   -3.8811   -1.0657 H         1 <0>         0.0745
     47 H15        -2.8600   -8.5334    2.0441 H         1 <0>         0.1373
     48 H16        -1.7145  -10.5904    2.7384 H         1 <0>         0.1415
     49 H17        -2.9834  -12.4591    3.7102 H         1 <0>         0.1394
     50 H18        -5.4169  -12.2889    3.9989 H         1 <0>         0.1445
     51 H19        -8.6556   -8.9197    3.0659 H         1 <0>         0.1609
     52 H20        -8.8473  -11.0105    3.9697 H         1 <0>         0.0798
     53 H21        -7.4282  -11.5096    4.9513 H         1 <0>         0.0822
     54 H22        -7.6713  -12.1970    3.3097 H         1 <0>         0.0823
     55 H23        -1.7839    0.3718   -1.7071 H         1 <0>         0.0625
     56 H24        -1.8985    1.8426   -2.7321 H         1 <0>         0.0625
     57 H25        -3.0375    1.6113   -1.3624 H         1 <0>         0.0743
@<TRIPOS>BOND
     1    1    2 1
     2    1   34 1
     3    1   35 1
     4    1   36 1
     5    2    7 ar
     6    2    3 ar
     7    3    4 ar
     8    3   37 1
     9    4    5 ar
    10    4   38 1
    11    5    6 ar
    12    5   39 1
    13    6    7 ar
    14    6   33 1
    15    7    8 1
    16    8    9 am
    17    8   40 1
    18    9   10 2
    19    9   11 1
    20   11   12 1
    21   11   41 1
    22   11   42 1
    23   12   13 am
    24   12   43 1
    25   13   14 2
    26   13   15 1
    27   15   16 1
    28   15   17 1
    29   15   18 1
    30   17   44 1
    31   17   45 1
    32   17   46 1
    33   18   19 1
    34   19   23 1
    35   19   20 2
    36   20   21 1
    37   21   22 2
    38   22   31 1
    39   22   23 1
    40   23   24 1
    41   24   29 ar
    42   24   25 ar
    43   25   26 ar
    44   25   47 1
    45   26   27 ar
    46   26   48 1
    47   27   28 ar
    48   27   49 1
    49   28   29 ar
    50   28   50 1
    51   29   30 1
    52   30   31 2
    53   30   32 1
    54   31   51 1
    55   32   52 1
    56   32   53 1
    57   32   54 1
    58   33   55 1
    59   33   56 1
    60   33   57 1
@<TRIPOS>MOLECULE
ZINC45259520
   55    59     0     0     0
SMALL
USER_CHARGES

@<TRIPOS>ATOM
      1 C1         -0.0187    1.5258    0.0104 C.3       1 <0>        -0.1430
      2 C2          0.0021   -0.0041    0.0020 C.3       1 <0>        -0.0713
      3 C3          0.7309   -0.5033    1.2229 C.ar      1 <0>         0.1348
      4 C4          0.1062   -1.3985    2.0711 C.ar      1 <0>        -0.1711
      5 C5          0.7802   -1.8569    3.1954 C.ar      1 <0>        -0.0727
      6 C6          2.0636   -1.3980    3.4294 C.ar      1 <0>        -0.1479
      7 C7          2.6346   -0.4942    2.5316 C.ar      1 <0>         0.2108
      8 N1          1.9567   -0.0846    1.4642 N.ar      1 <0>        -0.4630
      9 C8          4.0051    0.0066    2.7668 C.2       1 <0>         0.0593
     10 C9          4.8819    0.4907    1.8016 C.2       1 <0>         0.0738
     11 N2          6.0325    0.8416    2.4732 N.pl3     1 <0>        -0.5508
     12 C10         5.8302    0.5695    3.7893 C.2       1 <0>         0.1951
     13 N3          4.6327    0.0837    3.9558 N.2       1 <0>        -0.4441
     14 C11         6.8348    0.8002    4.8887 C.3       1 <0>         0.2149
     15 N4          6.5862    2.1025    5.5120 N.pl3     1 <0>        -0.7426
     16 C12         7.3957    2.5396    6.5634 C.ar      1 <0>         0.2173
     17 C13         8.4408    1.7412    7.0143 C.ar      1 <0>        -0.1688
     18 C14         9.2446    2.1689    8.0541 C.ar      1 <0>        -0.0698
     19 C15         9.0155    3.3915    8.6520 C.ar      1 <0>        -0.1267
     20 C16         7.9686    4.2012    8.2068 C.ar      1 <0>         0.0206
     21 C17         7.1605    3.7718    7.1532 C.ar      1 <0>        -0.1456
     22 C18         7.7283    5.4700    8.8257 C.1       1 <0>         0.2520
     23 N5          7.5377    6.4765    9.3166 N.1       1 <0>        -0.4131
     24 C19         4.6330    0.6041    0.3659 C.2       1 <0>        -0.0434
     25 C20         4.6467   -0.5127   -0.3920 C.2       1 <0>        -0.0706
     26 C21         4.4423   -0.4321   -1.7989 C.2       1 <0>        -0.1182
     27 C22         4.5489    0.7681   -2.3713 C.2       1 <0>         0.0205
     28 C23         4.9685    2.0316   -1.6310 C.3       1 <0>         0.0846
     29 H1          6.0537    2.1285   -1.6003 H         1 <0>         0.1098
     30 C24         4.3623    1.9642   -0.2250 C.3       1 <0>        -0.0782
     31 O1          4.3742    3.0982   -2.3893 O.3       1 <0>        -0.3724
     32 C25         3.7119    2.4637   -3.5027 C.3       1 <0>         0.2032
     33 O2          4.3446    1.1705   -3.6494 O.3       1 <0>        -0.3082
     34 H2          1.0039    1.9031    0.0027 H         1 <0>         0.0627
     35 H3         -0.5459    1.8868   -0.8726 H         1 <0>         0.0575
     36 H4         -0.5289    1.8773    0.9072 H         1 <0>         0.0522
     37 H5         -1.0205   -0.3814    0.0098 H         1 <0>         0.0783
     38 H6          0.5123   -0.3556   -0.8948 H         1 <0>         0.0809
     39 H7         -0.8973   -1.7381    1.8614 H         1 <0>         0.1339
     40 H8          0.3121   -2.5562    3.8725 H         1 <0>         0.1364
     41 H9          2.6161   -1.7338    4.2945 H         1 <0>         0.1387
     42 H10         6.7399    0.0146    5.6383 H         1 <0>         0.0977
     43 H11         7.8412    0.7838    4.4705 H         1 <0>         0.0808
     44 H12         5.8596    2.6612    5.1947 H         1 <0>         0.4054
     45 H13         8.6250    0.7833    6.5508 H         1 <0>         0.1291
     46 H14        10.0547    1.5440    8.4002 H         1 <0>         0.1342
     47 H15         9.6457    3.7219    9.4645 H         1 <0>         0.1301
     48 H16         6.3522    4.3957    6.8012 H         1 <0>         0.1299
     49 H17         4.8142   -1.4737    0.0716 H         1 <0>         0.1257
     50 H18         4.2090   -1.3110   -2.3815 H         1 <0>         0.1403
     51 H19         3.2863    2.1290   -0.2808 H         1 <0>         0.1011
     52 H20         4.8161    2.7306    0.4033 H         1 <0>         0.0819
     53 H21         2.6501    2.3412   -3.2891 H         1 <0>         0.0794
     54 H22         3.8486    3.0545   -4.4085 H         1 <0>         0.1232
     55 H23         6.8373    1.2137    2.0799 H         1 <0>         0.4256
@<TRIPOS>BOND
     1    1    2 1
     2    1   34 1
     3    1   35 1
     4    1   36 1
     5    2    3 1
     6    2   37 1
     7    2   38 1
     8    3    8 ar
     9    3    4 ar
    10    4    5 ar
    11    4   39 1
    12    5    6 ar
    13    5   40 1
    14    6    7 ar
    15    6   41 1
    16    7    8 ar
    17    7    9 1
    18    9   13 1
    19    9   10 2
    20   10   11 1
    21   10   24 1
    22   11   12 1
    23   11   55 1
    24   12   13 2
    25   12   14 1
    26   14   15 1
    27   14   42 1
    28   14   43 1
    29   15   16 1
    30   15   44 1
    31   16   21 ar
    32   16   17 ar
    33   17   18 ar
    34   17   45 1
    35   18   19 ar
    36   18   46 1
    37   19   20 ar
    38   19   47 1
    39   20   21 ar
    40   20   22 1
    41   21   48 1
    42   22   23 3
    43   24   30 1
    44   24   25 2
    45   25   26 1
    46   25   49 1
    47   26   27 2
    48   26   50 1
    49   27   33 1
    50   27   28 1
    51   28   29 1
    52   28   30 1
    53   28   31 1
    54   30   51 1
    55   30   52 1
    56   31   32 1
    57   32   33 1
    58   32   53 1
    59   32   54 1
@<TRIPOS>MOLECULE
ZINC02305208
   59    61     0     0     0
SMALL
USER_CHARGES

@<TRIPOS>ATOM
      1 C1         -0.0380    1.4496    0.0511 C.3       1 <0>        -0.1739
      2 C2          0.0026   -0.0795    0.0215 C.3       1 <0>         0.1162
      3 N1          0.6901   -0.5264   -1.1925 N.pl3     1 <0>        -0.6241
      4 C3          2.1405   -0.7325   -1.1792 C.3       1 <0>         0.1162
      5 C4          2.4467   -2.1778   -0.7815 C.3       1 <0>        -0.1740
      6 C5         -0.0381   -0.7563   -2.3641 C.ar      1 <0>         0.2137
      7 C6         -1.4125   -0.5554   -2.3783 C.ar      1 <0>        -0.1684
      8 C7         -2.1313   -0.7819   -3.5348 C.ar      1 <0>        -0.0833
      9 C8         -1.4802   -1.2111   -4.6843 C.ar      1 <0>         0.0580
     10 C9         -0.1058   -1.4120   -4.6701 C.ar      1 <0>        -0.1001
     11 C10         0.6138   -1.1801   -3.5152 C.ar      1 <0>        -0.1664
     12 N2         -2.2090   -1.4416   -5.8566 N.pl3     1 <0>        -0.5878
     13 C11        -1.5769   -1.8583   -6.9725 C.2       1 <0>         0.3282
     14 C12        -2.3086   -2.1913   -8.0984 C.2       1 <0>        -0.4272
     15 C13        -1.6665   -2.7832   -9.2855 C.2       1 <0>         0.5898
     16 N3         -2.4425   -3.0827  -10.3474 N.am      1 <0>        -0.6625
     17 C14        -3.7632   -2.8534  -10.3369 C.2       1 <0>         0.7108
     18 O1         -4.4061   -3.1464  -11.3258 O.2       1 <0>        -0.5201
     19 N4         -4.4123   -2.3187   -9.2932 N.am      1 <0>        -0.5083
     20 C15        -3.7647   -1.9755   -8.1607 C.2       1 <0>         0.5828
     21 O2         -4.3661   -1.4961   -7.2179 O.2       1 <0>        -0.5130
     22 C16        -5.7966   -2.1169   -9.3782 C.ar      1 <0>         0.1161
     23 C17        -6.2959   -0.9194   -9.8724 C.ar      1 <0>        -0.0489
     24 C18        -7.6607   -0.7235   -9.9550 C.ar      1 <0>        -0.1213
     25 C19        -8.5294   -1.7186   -9.5460 C.ar      1 <0>        -0.0606
     26 C20        -8.0351   -2.9124   -9.0534 C.ar      1 <0>        -0.1213
     27 C21        -6.6713   -3.1163   -8.9738 C.ar      1 <0>        -0.0490
     28 C22        -6.1334   -4.4200   -8.4426 C.3       1 <0>        -0.1152
     29 C23       -10.0179   -1.5015   -9.6370 C.3       1 <0>        -0.1173
     30 C24        -5.3499    0.1657  -10.3179 C.3       1 <0>        -0.1160
     31 O3         -0.4687   -2.9956   -9.3072 O.2       1 <0>        -0.5095
     32 H1          0.9796    1.8403    0.0451 H         1 <0>         0.0570
     33 H2         -0.5729    1.8159   -0.8252 H         1 <0>         0.0588
     34 H3         -0.5495    1.7821    0.9543 H         1 <0>         0.0658
     35 H4          0.5376   -0.4458    0.8977 H         1 <0>         0.0758
     36 H5         -1.0150   -0.4702    0.0275 H         1 <0>         0.0763
     37 H6          2.5446   -0.5355   -2.1722 H         1 <0>         0.0767
     38 H7          2.5974   -0.0531   -0.4597 H         1 <0>         0.0758
     39 H8          3.5258   -2.3311   -0.7716 H         1 <0>         0.0661
     40 H9          2.0426   -2.3748    0.2115 H         1 <0>         0.0568
     41 H10         1.9897   -2.8572   -1.5011 H         1 <0>         0.0590
     42 H11        -1.9188   -0.2224   -1.4843 H         1 <0>         0.1324
     43 H12        -3.1998   -0.6257   -3.5458 H         1 <0>         0.1308
     44 H13         0.4004   -1.7457   -5.5639 H         1 <0>         0.1318
     45 H14         1.6830   -1.3320   -3.5054 H         1 <0>         0.1330
     46 H15        -0.4996   -1.9320   -6.9873 H         1 <0>         0.1814
     47 H16        -8.0497    0.2079  -10.3390 H         1 <0>         0.1303
     48 H17        -8.7160   -3.6876   -8.7344 H         1 <0>         0.1303
     49 H18        -6.0057   -4.3472   -7.3625 H         1 <0>         0.0751
     50 H19        -6.8340   -5.2228   -8.6724 H         1 <0>         0.0756
     51 H20        -5.1713   -4.6329   -8.9086 H         1 <0>         0.0583
     52 H21       -10.3758   -1.8405  -10.6091 H         1 <0>         0.0749
     53 H22       -10.5163   -2.0663   -8.8492 H         1 <0>         0.0692
     54 H23       -10.2382   -0.4406   -9.5184 H         1 <0>         0.0692
     55 H24        -5.1202    0.0359  -11.3754 H         1 <0>         0.0766
     56 H25        -5.8154    1.1393  -10.1640 H         1 <0>         0.0750
     57 H26        -4.4299    0.1069   -9.7363 H         1 <0>         0.0585
     58 H27        -2.0355   -3.4725  -11.1369 H         1 <0>         0.4349
     59 H28        -3.1688   -1.3016   -5.8664 H         1 <0>         0.4310
@<TRIPOS>BOND
     1    1    2 1
     2    1   32 1
     3    1   33 1
     4    1   34 1
     5    2    3 1
     6    2   35 1
     7    2   36 1
     8    3    4 1
     9    3    6 1
    10    4    5 1
    11    4   37 1
    12    4   38 1
    13    5   39 1
    14    5   40 1
    15    5   41 1
    16    6   11 ar
    17    6    7 ar
    18    7    8 ar
    19    7   42 1
    20    8    9 ar
    21    8   43 1
    22    9   10 ar
    23    9   12 1
    24   10   11 ar
    25   10   44 1
    26   11   45 1
    27   12   13 1
    28   12   59 1
    29   13   46 1
    30   13   14 2
    31   14   20 1
    32   14   15 1
    33   15   16 am
    34   15   31 2
    35   16   17 am
    36   16   58 1
    37   17   18 2
    38   17   19 am
    39   19   20 am
    40   19   22 1
    41   20   21 2
    42   22   27 ar
    43   22   23 ar
    44   23   24 ar
    45   23   30 1
    46   24   25 ar
    47   24   47 1
    48   25   26 ar
    49   25   29 1
    50   26   27 ar
    51   26   48 1
    52   27   28 1
    53   28   49 1
    54   28   50 1
    55   28   51 1
    56   29   52 1
    57   29   53 1
    58   29   54 1
    59   30   55 1
    60   30   56 1
    61   30   57 1
@<TRIPOS>MOLECULE
ZINC01437508
   65    69     0     0     0
SMALL
USER_CHARGES
(6R,9R)-6-[4-(trifluoromethyl)phenyl]-9-(3,4,5-trimethoxyphenyl)-5,6,8,9,10,11-hexahydrobenzo[c][1,5]benzodiazepin-7-one
@<TRIPOS>ATOM
      1 C1         -5.8473   -0.9171   11.9534 C.3       1 <0>         0.0239
      2 O1         -5.9939   -2.1605   11.2647 O.3       1 <0>        -0.3014
      3 C2         -5.6455   -2.1831    9.9503 C.ar      1 <0>         0.1536
      4 C3         -5.1727   -1.0325    9.3375 C.ar      1 <0>        -0.2256
      5 C4         -4.8183   -1.0544    8.0016 C.ar      1 <0>        -0.0052
      6 C5         -4.9383   -2.2210    7.2699 C.ar      1 <0>        -0.2288
      7 C6         -5.4044   -3.3774    7.8767 C.ar      1 <0>         0.1545
      8 C7         -5.7623   -3.3595    9.2195 C.ar      1 <0>         0.0274
      9 O2         -6.2254   -4.4910    9.8174 O.3       1 <0>        -0.3125
     10 C8         -7.6366   -4.7127    9.7814 C.3       1 <0>         0.0356
     11 O3         -5.5173   -4.5260    7.1573 O.3       1 <0>        -0.3009
     12 C9         -5.1313   -4.4709    5.7825 C.3       1 <0>         0.0237
     13 C10        -4.3055    0.1985    7.3396 C.3       1 <0>        -0.0395
     14 H1         -4.2685    1.0109    8.0653 H         1 <0>         0.0952
     15 C11        -5.2212    0.5826    6.1786 C.3       1 <0>        -0.1015
     16 C12        -4.6983    1.8389    5.5013 C.2       1 <0>         0.2641
     17 C13        -3.3786    2.0755    5.4357 C.2       1 <0>        -0.2986
     18 C14        -2.7217    3.2582    4.7642 C.3       1 <0>         0.2740
     19 H2         -1.9770    3.6700    5.4453 H         1 <0>         0.1001
     20 N1         -3.6353    4.3165    4.3882 N.pl3     1 <0>        -0.7664
     21 C15        -4.6247    4.1071    3.4293 C.ar      1 <0>         0.1689
     22 C16        -4.6132    4.7801    2.2180 C.ar      1 <0>        -0.1252
     23 C17        -5.5916    4.5058    1.2782 C.ar      1 <0>        -0.1047
     24 C18        -6.5719    3.5665    1.5418 C.ar      1 <0>        -0.1200
     25 C19        -6.5960    2.9047    2.7578 C.ar      1 <0>        -0.1138
     26 C20        -5.6306    3.1935    3.7065 C.ar      1 <0>         0.1115
     27 N2         -5.6592    2.6458    4.9841 N.pl3     1 <0>        -0.6838
     28 C21        -2.0163    2.7727    3.5241 C.ar      1 <0>        -0.0550
     29 C22        -0.6378    2.8371    3.4432 C.ar      1 <0>        -0.0903
     30 C23         0.0094    2.3909    2.3061 C.ar      1 <0>        -0.0733
     31 C24        -0.7220    1.8808    1.2497 C.ar      1 <0>        -0.1832
     32 C25        -2.1008    1.8217    1.3284 C.ar      1 <0>        -0.0742
     33 C26        -2.7476    2.2626    2.4678 C.ar      1 <0>        -0.1087
     34 C27        -0.0165    1.3948    0.0099 C.3       1 <0>         0.5076
     35 F1          0.2889    0.0367    0.1492 F         1 <0>        -0.1771
     36 F2          1.1649    2.1224   -0.1699 F         1 <0>        -0.1773
     37 F3         -0.8483    1.5743   -1.1005 F         1 <0>        -0.1780
     38 C28        -2.4620    1.1769    6.0320 C.2       1 <0>         0.3997
     39 O4         -1.2723    1.4102    5.9458 O.2       1 <0>        -0.4676
     40 C29        -2.9056   -0.0523    6.7666 C.3       1 <0>        -0.1495
     41 H3         -6.1593   -1.0374   12.9909 H         1 <0>         0.1041
     42 H4         -4.8034   -0.6050   11.9218 H         1 <0>         0.0592
     43 H5         -6.4675   -0.1603   11.4730 H         1 <0>         0.0573
     44 H6         -5.0816   -0.1179    9.9047 H         1 <0>         0.1366
     45 H7         -4.6645   -2.2329    6.2252 H         1 <0>         0.1351
     46 H8         -8.1468   -3.8883   10.2796 H         1 <0>         0.0441
     47 H9         -7.9687   -4.7722    8.7449 H         1 <0>         0.0441
     48 H10        -7.8708   -5.6467   10.2921 H         1 <0>         0.0933
     49 H11        -5.2704   -5.4511    5.3265 H         1 <0>         0.1045
     50 H12        -5.7465   -3.7373    5.2615 H         1 <0>         0.0568
     51 H13        -4.0827   -4.1823    5.7108 H         1 <0>         0.0590
     52 H14        -6.2269    0.7668    6.5564 H         1 <0>         0.0896
     53 H15        -5.2510   -0.2328    5.4559 H         1 <0>         0.0986
     54 H16        -3.5576    5.1860    4.8111 H         1 <0>         0.4017
     55 H17        -3.8476    5.5126    2.0092 H         1 <0>         0.1268
     56 H18        -5.5896    5.0286    0.3332 H         1 <0>         0.1263
     57 H19        -7.3220    3.3485    0.7961 H         1 <0>         0.1278
     58 H20        -7.3609    2.1707    2.9641 H         1 <0>         0.1278
     59 H21        -6.4209    2.8558    5.5467 H         1 <0>         0.4077
     60 H22        -0.0664    3.2356    4.2684 H         1 <0>         0.1351
     61 H23         1.0863    2.4412    2.2428 H         1 <0>         0.1346
     62 H24        -2.6725    1.4273    0.5014 H         1 <0>         0.1312
     63 H25        -3.8246    2.2120    2.5312 H         1 <0>         0.1293
     64 H26        -2.2706   -0.2512    7.5131 H         1 <0>         0.0904
     65 H27        -2.9370   -0.8997    6.0817 H         1 <0>         0.1010
@<TRIPOS>BOND
     1    1    2 1
     2    1   41 1
     3    1   42 1
     4    1   43 1
     5    2    3 1
     6    3    8 ar
     7    3    4 ar
     8    4    5 ar
     9    4   44 1
    10    5    6 ar
    11    5   13 1
    12    6    7 ar
    13    6   45 1
    14    7    8 ar
    15    7   11 1
    16    8    9 1
    17    9   10 1
    18   10   46 1
    19   10   47 1
    20   10   48 1
    21   11   12 1
    22   12   49 1
    23   12   50 1
    24   12   51 1
    25   13   14 1
    26   13   40 1
    27   13   15 1
    28   15   16 1
    29   15   52 1
    30   15   53 1
    31   16   27 1
    32   16   17 2
    33   17   18 1
    34   17   38 1
    35   18   19 1
    36   18   20 1
    37   18   28 1
    38   20   21 1
    39   20   54 1
    40   21   26 ar
    41   21   22 ar
    42   22   23 ar
    43   22   55 1
    44   23   24 ar
    45   23   56 1
    46   24   25 ar
    47   24   57 1
    48   25   26 ar
    49   25   58 1
    50   26   27 1
    51   27   59 1
    52   28   33 ar
    53   28   29 ar
    54   29   30 ar
    55   29   60 1
    56   30   31 ar
    57   30   61 1
    58   31   32 ar
    59   31   34 1
    60   32   33 ar
    61   32   62 1
    62   33   63 1
    63   34   35 1
    64   34   36 1
    65   34   37 1
    66   38   39 2
    67   38   40 1
    68   40   64 1
    69   40   65 1
@<TRIPOS>MOLECULE
ZINC21240380
   72    76     0     0     0
SMALL
USER_CHARGES
(6S,9R)-6-(2,4-dimethoxyphenyl)-9-(4-isopropoxy-3-methoxy-phenyl)-5,6,8,9,10,11-hexahydrobenzo[c][1,5]benzodiazepin-7-one
@<TRIPOS>ATOM
      1 C1         -2.3321    4.9112   -5.1435 C.3       1 <0>        -0.1821
      2 C2         -3.3900    4.4904   -4.1214 C.3       1 <0>         0.0762
      3 C3         -4.7764    4.8953   -4.6263 C.3       1 <0>        -0.1501
      4 O1         -3.3431    3.0733   -3.9432 O.3       1 <0>        -0.3046
      5 C4         -2.4353    2.5928   -3.0520 C.ar      1 <0>         0.1070
      6 C5         -1.5383    3.4547   -2.4415 C.ar      1 <0>        -0.1736
      7 C6         -0.6158    2.9646   -1.5361 C.ar      1 <0>        -0.1084
      8 C7         -0.5858    1.6151   -1.2371 C.ar      1 <0>        -0.0797
      9 C8         -1.4744    0.7490   -1.8465 C.ar      1 <0>        -0.1642
     10 C9         -2.4048    1.2345   -2.7513 C.ar      1 <0>         0.1004
     11 O2         -3.2831    0.3846   -3.3478 O.3       1 <0>        -0.3051
     12 C10        -3.1936   -0.9962   -2.9911 C.3       1 <0>         0.0225
     13 C11         0.4220    1.0862   -0.2493 C.3       1 <0>        -0.0304
     14 H1          0.2647    0.0010   -0.1623 H         1 <0>         0.0852
     15 C12         0.2318    1.7708    1.1030 C.3       1 <0>        -0.1040
     16 C13         1.2601    1.2557    2.0955 C.2       1 <0>         0.2682
     17 C14         2.4812    0.8769    1.6791 C.2       1 <0>        -0.3066
     18 C15         3.5957    0.3612    2.5569 C.3       1 <0>         0.3008
     19 H2          4.4895    0.9693    2.3538 H         1 <0>         0.0920
     20 N1          3.3722    0.5316    3.9767 N.pl3     1 <0>        -0.7753
     21 C16         2.3322   -0.1337    4.6238 C.ar      1 <0>         0.1789
     22 C17         2.5772   -1.0903    5.5958 C.ar      1 <0>        -0.1284
     23 C18         1.5128   -1.7580    6.1762 C.ar      1 <0>        -0.1096
     24 C19         0.2151   -1.4770    5.7893 C.ar      1 <0>        -0.1270
     25 C20        -0.0340   -0.5089    4.8311 C.ar      1 <0>        -0.1160
     26 C21         1.0282    0.1750    4.2664 C.ar      1 <0>         0.1165
     27 N2          0.8452    1.2357    3.3868 N.pl3     1 <0>        -0.6965
     28 C22         3.7834   -1.1075    2.2763 C.ar      1 <0>        -0.1370
     29 C23         2.7937   -1.8177    1.6236 C.ar      1 <0>        -0.0274
     30 C24         2.9628   -3.1642    1.3650 C.ar      1 <0>        -0.2449
     31 C25         4.1275   -3.8072    1.7606 C.ar      1 <0>         0.1651
     32 C26         5.1216   -3.0970    2.4154 C.ar      1 <0>        -0.2465
     33 C27         4.9521   -1.7443    2.6685 C.ar      1 <0>         0.1860
     34 O3          5.9273   -1.0442    3.3053 O.3       1 <0>        -0.3029
     35 C28         7.1035   -1.7640    3.6801 C.3       1 <0>         0.0222
     36 O4          4.2932   -5.1317    1.5059 O.3       1 <0>        -0.3174
     37 C29         3.2281   -5.8001    0.8271 C.3       1 <0>         0.0249
     38 C30         2.8158    0.9394    0.3058 C.2       1 <0>         0.3972
     39 O5          3.9322    0.6070   -0.0414 O.2       1 <0>        -0.4672
     40 C31         1.8415    1.4007   -0.7363 C.3       1 <0>        -0.1605
     41 H3         -1.3354    4.6201   -4.7805 H         1 <0>         0.0632
     42 H4         -2.3683    6.0020   -5.2807 H         1 <0>         0.0736
     43 H5         -2.5322    4.4140   -6.1041 H         1 <0>         0.0699
     44 H6         -3.1834    4.9243   -3.1319 H         1 <0>         0.0725
     45 H7         -5.5370    4.5928   -3.8915 H         1 <0>         0.0656
     46 H8         -4.9764    4.3981   -5.5869 H         1 <0>         0.0692
     47 H9         -4.8125    5.9861   -4.7635 H         1 <0>         0.0784
     48 H10        -1.5601    4.5094   -2.6729 H         1 <0>         0.1378
     49 H11         0.0828    3.6374   -1.0610 H         1 <0>         0.1271
     50 H12        -1.4462   -0.3053   -1.6142 H         1 <0>         0.1342
     51 H13        -3.9554   -1.5673   -3.5420 H         1 <0>         0.1026
     52 H14        -3.3627   -1.1073   -1.9099 H         1 <0>         0.0552
     53 H15        -2.1938   -1.3769   -3.2469 H         1 <0>         0.0557
     54 H16         0.3559    2.8573    0.9846 H         1 <0>         0.0935
     55 H17        -0.7777    1.5564    1.4838 H         1 <0>         0.0902
     56 H18         4.0279    1.1939    4.5611 H         1 <0>         0.4148
     57 H19         3.5900   -1.3132    5.8976 H         1 <0>         0.1210
     58 H20         1.6968   -2.5029    6.9363 H         1 <0>         0.1199
     59 H21        -0.6077   -2.0148    6.2367 H         1 <0>         0.1220
     60 H22        -1.0471   -0.2896    4.5278 H         1 <0>         0.1227
     61 H23         0.3200    2.1050    3.8093 H         1 <0>         0.4253
     62 H24         1.8868   -1.3192    1.3149 H         1 <0>         0.1203
     63 H25         2.1880   -3.7171    0.8547 H         1 <0>         0.1249
     64 H26         6.0287   -3.5955    2.7238 H         1 <0>         0.1338
     65 H27         7.8056   -1.0828    4.1831 H         1 <0>         0.1015
     66 H28         7.5793   -2.1826    2.7810 H         1 <0>         0.0565
     67 H29         6.8310   -2.5807    4.3647 H         1 <0>         0.0555
     68 H30         3.4907   -6.8589    0.6858 H         1 <0>         0.1018
     69 H31         3.0652   -5.3287   -0.1533 H         1 <0>         0.0569
     70 H32         2.3085   -5.7272    1.4263 H         1 <0>         0.0565
     71 H33         2.0289    0.8748   -1.6841 H         1 <0>         0.0970
     72 H34         1.9440    2.4848   -0.8920 H         1 <0>         0.1030
@<TRIPOS>BOND
     1    1    2 1
     2    1   41 1
     3    1   42 1
     4    1   43 1
     5    2    3 1
     6    2    4 1
     7    2   44 1
     8    3   45 1
     9    3   46 1
    10    3   47 1
    11    4    5 1
    12    5   10 ar
    13    5    6 ar
    14    6    7 ar
    15    6   48 1
    16    7    8 ar
    17    7   49 1
    18    8    9 ar
    19    8   13 1
    20    9   10 ar
    21    9   50 1
    22   10   11 1
    23   11   12 1
    24   12   51 1
    25   12   52 1
    26   12   53 1
    27   13   14 1
    28   13   40 1
    29   13   15 1
    30   15   16 1
    31   15   54 1
    32   15   55 1
    33   16   27 1
    34   16   17 2
    35   17   18 1
    36   17   38 1
    37   18   19 1
    38   18   20 1
    39   18   28 1
    40   20   21 1
    41   20   56 1
    42   21   26 ar
    43   21   22 ar
    44   22   23 ar
    45   22   57 1
    46   23   24 ar
    47   23   58 1
    48   24   25 ar
    49   24   59 1
    50   25   26 ar
    51   25   60 1
    52   26   27 1
    53   27   61 1
    54   28   33 ar
    55   28   29 ar
    56   29   30 ar
    57   29   62 1
    58   30   31 ar
    59   30   63 1
    60   31   32 ar
    61   31   36 1
    62   32   33 ar
    63   32   64 1
    64   33   34 1
    65   34   35 1
    66   35   65 1
    67   35   66 1
    68   35   67 1
    69   36   37 1
    70   37   68 1
    71   37   69 1
    72   37   70 1
    73   38   39 2
    74   38   40 1
    75   40   71 1
    76   40   72 1
@<TRIPOS>MOLECULE
ZINC36493789
   70    73     0     0     0
SMALL
USER_CHARGES

@<TRIPOS>ATOM
      1 C1         -1.9748    2.9851   -1.3852 C.3       1 <0>        -0.1641
      2 C2         -2.1312    1.4873   -1.1147 C.3       1 <0>         0.1726
      3 C3         -1.9485    1.2172    0.3801 C.3       1 <0>        -0.1628
      4 C4         -3.5266    1.0337   -1.5481 C.3       1 <0>        -0.1566
      5 N1         -1.1196    0.7461   -1.8721 N.am      1 <0>        -0.7165
      6 C5          0.1899    0.9810   -1.6564 C.2       1 <0>         0.5076
      7 O1          0.5309    1.8060   -0.8354 O.2       1 <0>        -0.5018
      8 C6          1.2305    0.2186   -2.4355 C.3       1 <0>         0.1643
      9 H1          1.1003    0.4110   -3.5005 H         1 <0>         0.1233
     10 C7          1.0765   -1.2567   -2.1691 C.ar      1 <0>        -0.0774
     11 C8          1.6906   -1.8279   -1.0696 C.ar      1 <0>        -0.1233
     12 C9          1.5513   -3.1809   -0.8225 C.ar      1 <0>        -0.0905
     13 C10         0.7982   -3.9660   -1.6742 C.ar      1 <0>        -0.1354
     14 C11         0.1812   -3.3954   -2.7777 C.ar      1 <0>         0.1169
     15 C12         0.3176   -2.0360   -3.0202 C.ar      1 <0>        -0.1343
     16 O2         -0.5601   -4.1655   -3.6170 O.3       1 <0>        -0.4970
     17 N2          2.5667    0.6529   -2.0205 N.am      1 <0>        -0.5767
     18 C13         2.9297    0.6507   -0.6012 C.3       1 <0>         0.2097
     19 C14         3.1825    2.0646   -0.1451 C.2       1 <0>        -0.0369
     20 C15         2.3051    2.8502    0.5048 C.2       1 <0>        -0.1542
     21 C16         2.9540    4.0848    0.7362 C.2       1 <0>        -0.2296
     22 C17         4.1891    3.9798    0.2140 C.2       1 <0>        -0.0401
     23 O3          4.3239    2.7520   -0.3134 O.3       1 <0>        -0.1539
     24 C18         3.4619    1.0546   -2.9444 C.2       1 <0>         0.5769
     25 O4          4.5473    1.4787   -2.5956 O.2       1 <0>        -0.5024
     26 C19         3.1263    0.9801   -4.3756 C.2       1 <0>        -0.1263
     27 C20         3.1773   -0.2138   -5.0246 C.2       1 <0>        -0.0447
     28 C21         3.7267   -1.3958   -4.3465 C.ar      1 <0>        -0.0780
     29 C22         3.2031   -2.6663   -4.6124 C.ar      1 <0>        -0.0864
     30 C23         3.7247   -3.7702   -3.9722 C.ar      1 <0>        -0.1165
     31 C24         4.7632   -3.6246   -3.0686 C.ar      1 <0>        -0.1056
     32 C25         5.2864   -2.3716   -2.7997 C.ar      1 <0>        -0.1187
     33 C26         4.7803   -1.2581   -3.4355 C.ar      1 <0>        -0.1109
     34 C27         2.7331    2.2052   -5.1086 C.ar      1 <0>        -0.0457
     35 C28         3.6660    3.2182   -5.3309 C.ar      1 <0>        -0.0919
     36 C29         3.2935    4.3573   -6.0145 C.ar      1 <0>        -0.1160
     37 C30         1.9978    4.4960   -6.4792 C.ar      1 <0>        -0.1136
     38 C31         1.0678    3.4951   -6.2615 C.ar      1 <0>        -0.1180
     39 C32         1.4297    2.3485   -5.5847 C.ar      1 <0>        -0.1077
     40 H2         -0.9807    3.3082   -1.0764 H         1 <0>         0.0800
     41 H3         -2.1050    3.1775   -2.4501 H         1 <0>         0.0531
     42 H4         -2.7275    3.5365   -0.8217 H         1 <0>         0.0628
     43 H5         -2.7011    1.7687    0.9436 H         1 <0>         0.0633
     44 H6         -2.0598    0.1502    0.5728 H         1 <0>         0.0536
     45 H7         -0.9543    1.5404    0.6889 H         1 <0>         0.0778
     46 H8         -3.6568    1.2261   -2.6131 H         1 <0>         0.0620
     47 H9         -3.6380   -0.0333   -1.3554 H         1 <0>         0.0617
     48 H10        -4.2792    1.5852   -0.9846 H         1 <0>         0.0749
     49 H11        -1.3923    0.0863   -2.5288 H         1 <0>         0.3968
     50 H12         2.2803   -1.2161   -0.4030 H         1 <0>         0.1345
     51 H13         2.0319   -3.6247    0.0369 H         1 <0>         0.1278
     52 H14         0.6902   -5.0231   -1.4811 H         1 <0>         0.1281
     53 H15        -0.1657   -1.5885   -3.8761 H         1 <0>         0.1269
     54 H16        -1.4941   -4.2257   -3.3736 H         1 <0>         0.3912
     55 H17         2.1149    0.2211   -0.0184 H         1 <0>         0.1149
     56 H18         3.8318    0.0559   -0.4579 H         1 <0>         0.0828
     57 H19         1.2979    2.5884    0.7937 H         1 <0>         0.1560
     58 H20         2.5378    4.9469    1.2361 H         1 <0>         0.1402
     59 H21         4.9455    4.7506    0.2211 H         1 <0>         0.1942
     60 H22         2.8139   -0.2931   -6.0386 H         1 <0>         0.1375
     61 H23         2.3926   -2.7815   -5.3168 H         1 <0>         0.1209
     62 H24         3.3217   -4.7512   -4.1759 H         1 <0>         0.1202
     63 H25         5.1673   -4.4935   -2.5704 H         1 <0>         0.1192
     64 H26         6.0965   -2.2666   -2.0931 H         1 <0>         0.1208
     65 H27         5.1928   -0.2817   -3.2282 H         1 <0>         0.1409
     66 H28         4.6777    3.1112   -4.9683 H         1 <0>         0.1279
     67 H29         4.0148    5.1424   -6.1870 H         1 <0>         0.1257
     68 H30         1.7110    5.3895   -7.0138 H         1 <0>         0.1237
     69 H31         0.0577    3.6094   -6.6264 H         1 <0>         0.1246
     70 H32         0.7041    1.5658   -5.4195 H         1 <0>         0.1187
@<TRIPOS>BOND
     1    1    2 1
     2    1   40 1
     3    1   41 1
     4    1   42 1
     5    2    3 1
     6    2    4 1
     7    2    5 1
     8    3   43 1
     9    3   44 1
    10    3   45 1
    11    4   46 1
    12    4   47 1
    13    4   48 1
    14    5    6 am
    15    5   49 1
    16    6    7 2
    17    6    8 1
    18    8    9 1
    19    8   10 1
    20    8   17 1
    21   10   15 ar
    22   10   11 ar
    23   11   12 ar
    24   11   50 1
    25   12   13 ar
    26   12   51 1
    27   13   14 ar
    28   13   52 1
    29   14   15 ar
    30   14   16 1
    31   15   53 1
    32   16   54 1
    33   17   18 1
    34   17   24 am
    35   18   19 1
    36   18   55 1
    37   18   56 1
    38   19   23 1
    39   19   20 2
    40   20   21 1
    41   20   57 1
    42   21   22 2
    43   21   58 1
    44   22   23 1
    45   22   59 1
    46   24   25 2
    47   24   26 1
    48   26   27 2
    49   26   34 1
    50   27   28 1
    51   27   60 1
    52   28   33 ar
    53   28   29 ar
    54   29   30 ar
    55   29   61 1
    56   30   31 ar
    57   30   62 1
    58   31   32 ar
    59   31   63 1
    60   32   33 ar
    61   32   64 1
    62   33   65 1
    63   34   39 ar
    64   34   35 ar
    65   35   36 ar
    66   35   66 1
    67   36   37 ar
    68   36   67 1
    69   37   38 ar
    70   37   68 1
    71   38   39 ar
    72   38   69 1
    73   39   70 1
@<TRIPOS>MOLECULE
ZINC08432410
   66    68     0     0     0
SMALL
USER_CHARGES

@<TRIPOS>ATOM
      1 C1         -0.0187    1.5272    0.0104 C.3       1 <0>        -0.1526
      2 C2          0.0021   -0.0041    0.0020 C.3       1 <0>        -0.0537
      3 C3         -1.4182   -0.5441   -0.1227 C.3       1 <0>        -0.1175
      4 C4         -2.1907   -0.3434    1.1791 C.3       1 <0>         0.1514
      5 H1         -2.2483    0.7126    1.4286 H         1 <0>         0.0968
      6 C5         -1.4905   -1.1187    2.2928 C.3       1 <0>        -0.1187
      7 C6         -0.0731   -0.5992    2.5053 C.3       1 <0>        -0.0500
      8 C7          0.7288   -0.5476    1.2180 C.3       1 <0>        -0.0993
      9 C8         -0.1143    0.7725    3.1849 C.3       1 <0>        -0.1465
     10 C9          0.6407   -1.5697    3.4723 C.3       1 <0>        -0.1468
     11 N1         -3.5539   -0.8652    1.0142 N.am      1 <0>        -0.7271
     12 C10        -4.5562   -0.3848    1.7764 C.2       1 <0>         0.5170
     13 O1         -4.3326    0.4783    2.5986 O.2       1 <0>        -0.5086
     14 C11        -5.9547   -0.9202    1.6072 C.3       1 <0>         0.0382
     15 O2         -6.8318   -0.2585    2.5210 O.3       1 <0>        -0.2853
     16 C12        -8.1398   -0.6274    2.4975 C.ar      1 <0>         0.1335
     17 C13        -8.5687   -1.6099    1.6171 C.ar      1 <0>        -0.1997
     18 C14        -9.8985   -1.9834    1.5947 C.ar      1 <0>        -0.0682
     19 C15       -10.8026   -1.3778    2.4493 C.ar      1 <0>        -0.0722
     20 C16       -10.3768   -0.3973    3.3279 C.ar      1 <0>        -0.0679
     21 C17        -9.0466   -0.0258    3.3579 C.ar      1 <0>        -0.1341
     22 Cl1       -12.4733   -1.8485    2.4189 Cl        1 <0>        -0.0673
     23 C18         0.7825   -0.4459   -1.2560 C.3       1 <0>         0.1265
     24 N2          0.1098    0.0659   -2.4527 N.am      1 <0>        -0.7256
     25 C19         0.6153   -0.1969   -3.6741 C.2       1 <0>         0.5150
     26 O3          1.6269   -0.8570   -3.7826 O.2       1 <0>        -0.5104
     27 C20        -0.0766    0.3295   -4.9051 C.3       1 <0>         0.0388
     28 O4          0.6452   -0.0791   -6.0687 O.3       1 <0>        -0.2852
     29 C21         0.1509    0.3155   -7.2717 C.ar      1 <0>         0.1335
     30 C22        -1.0019    1.0851   -7.3303 C.ar      1 <0>        -0.1998
     31 C23        -1.5028    1.4852   -8.5539 C.ar      1 <0>        -0.0682
     32 C24        -0.8557    1.1185   -9.7207 C.ar      1 <0>        -0.0722
     33 C25         0.2939    0.3506   -9.6644 C.ar      1 <0>        -0.0678
     34 C26         0.8016   -0.0459   -8.4423 C.ar      1 <0>        -0.1341
     35 Cl2        -1.4875    1.6221  -11.2573 Cl        1 <0>        -0.0674
     36 H2          1.0039    1.9045    0.0027 H         1 <0>         0.0634
     37 H3         -0.5459    1.8883   -0.8726 H         1 <0>         0.0544
     38 H4         -0.5289    1.8787    0.9072 H         1 <0>         0.0689
     39 H5         -1.9353   -0.0234   -0.9328 H         1 <0>         0.0686
     40 H6         -1.3824   -1.6102   -0.3606 H         1 <0>         0.0743
     41 H7         -2.0597   -1.0115    3.2198 H         1 <0>         0.0702
     42 H8         -1.4536   -2.1783    2.0271 H         1 <0>         0.0656
     43 H9          1.0877   -1.5643    0.9871 H         1 <0>         0.0666
     44 H10         1.6317    0.0612    1.3899 H         1 <0>         0.0705
     45 H11        -0.6124    0.6847    4.1504 H         1 <0>         0.0571
     46 H12         0.9028    1.1355    3.3325 H         1 <0>         0.0565
     47 H13        -0.6625    1.4735    2.5555 H         1 <0>         0.0594
     48 H14         0.6637   -2.5676    3.0344 H         1 <0>         0.0545
     49 H15         1.6603   -1.2255    3.6457 H         1 <0>         0.0573
     50 H16         0.1018   -1.6009    4.4193 H         1 <0>         0.0566
     51 H17        -3.7327   -1.5555    0.3566 H         1 <0>         0.4007
     52 H18        -6.2913   -0.7408    0.5861 H         1 <0>         0.0951
     53 H19        -5.9606   -1.9913    1.8089 H         1 <0>         0.0954
     54 H20        -7.8634   -2.0823    0.9493 H         1 <0>         0.1367
     55 H21       -10.2327   -2.7482    0.9094 H         1 <0>         0.1377
     56 H22       -11.0841    0.0745    3.9940 H         1 <0>         0.1428
     57 H23        -8.7138    0.7362    4.0471 H         1 <0>         0.1436
     58 H24         1.7970   -0.0497   -1.2120 H         1 <0>         0.0744
     59 H25         0.8190   -1.5345   -1.2973 H         1 <0>         0.0725
     60 H26        -0.6992    0.5938   -2.3659 H         1 <0>         0.4009
     61 H27        -1.0911   -0.0666   -4.9491 H         1 <0>         0.0950
     62 H28        -0.1131    1.4181   -4.8638 H         1 <0>         0.0956
     63 H29        -1.5076    1.3709   -6.4198 H         1 <0>         0.1367
     64 H30        -2.4002    2.0843   -8.5999 H         1 <0>         0.1377
     65 H31         0.7974    0.0651  -10.5762 H         1 <0>         0.1429
     66 H32         1.7016   -0.6412   -8.3986 H         1 <0>         0.1437
@<TRIPOS>BOND
     1    1    2 1
     2    1   36 1
     3    1   37 1
     4    1   38 1
     5    2    8 1
     6    2    3 1
     7    2   23 1
     8    3    4 1
     9    3   39 1
    10    3   40 1
    11    4    5 1
    12    4    6 1
    13    4   11 1
    14    6    7 1
    15    6   41 1
    16    6   42 1
    17    7    8 1
    18    7    9 1
    19    7   10 1
    20    8   43 1
    21    8   44 1
    22    9   45 1
    23    9   46 1
    24    9   47 1
    25   10   48 1
    26   10   49 1
    27   10   50 1
    28   11   12 am
    29   11   51 1
    30   12   13 2
    31   12   14 1
    32   14   15 1
    33   14   52 1
    34   14   53 1
    35   15   16 1
    36   16   21 ar
    37   16   17 ar
    38   17   18 ar
    39   17   54 1
    40   18   19 ar
    41   18   55 1
    42   19   20 ar
    43   19   22 1
    44   20   21 ar
    45   20   56 1
    46   21   57 1
    47   23   24 1
    48   23   58 1
    49   23   59 1
    50   24   25 am
    51   24   60 1
    52   25   26 2
    53   25   27 1
    54   27   28 1
    55   27   61 1
    56   27   62 1
    57   28   29 1
    58   29   34 ar
    59   29   30 ar
    60   30   31 ar
    61   30   63 1
    62   31   32 ar
    63   31   64 1
    64   32   33 ar
    65   32   35 1
    66   33   34 ar
    67   33   65 1
    68   34   66 1
@<TRIPOS>MOLECULE
ZINC09243649
   62    66     0     0     0
SMALL
USER_CHARGES

@<TRIPOS>ATOM
      1 C1         -0.0187    1.5258    0.0104 C.3       1 <0>        -0.1520
      2 C2          0.0021   -0.0041    0.0020 C.3       1 <0>         0.0543
      3 O1          0.6709   -0.4649   -1.1737 O.3       1 <0>        -0.3046
      4 C3          0.7768   -1.8109   -1.3363 C.ar      1 <0>         0.1059
      5 C4          0.2435   -2.6690   -0.3879 C.ar      1 <0>        -0.1768
      6 C5          0.3516   -4.0370   -0.5549 C.ar      1 <0>        -0.0682
      7 C6          0.9916   -4.5523   -1.6668 C.ar      1 <0>        -0.0979
      8 C7          1.5263   -3.7019   -2.6164 C.ar      1 <0>        -0.0996
      9 C8          1.4160   -2.3297   -2.4582 C.ar      1 <0>         0.0815
     10 O2          1.9361   -1.4917   -3.3945 O.3       1 <0>        -0.4857
     11 C9         -0.2290   -4.9686    0.4775 C.3       1 <0>         0.2611
     12 H1         -0.9862   -4.4500    1.0655 H         1 <0>         0.1106
     13 C10         0.8599   -5.4850    1.3779 C.2       1 <0>        -0.1729
     14 C11         1.8392   -5.1996    2.2748 C.2       1 <0>         0.1011
     15 N1          2.4024   -6.3913    2.6320 N.pl3     1 <0>        -0.3744
     16 H2          3.1315   -6.4956    3.2632 H         1 <0>         0.4535
     17 N2          1.8227   -7.3545    2.0083 N.2       1 <0>        -0.1971
     18 C12         0.8711   -6.8898    1.2235 C.2       1 <0>        -0.0344
     19 C13        -0.1803   -7.2470    0.2541 C.2       1 <0>         0.6097
     20 O3         -0.4368   -8.3798   -0.1049 O.2       1 <0>        -0.5051
     21 N3         -0.8167   -6.1431   -0.1773 N.am      1 <0>        -0.5947
     22 C14        -1.9175   -6.1168   -1.1437 C.3       1 <0>         0.1817
     23 C15        -1.3595   -5.9836   -2.5372 C.ar      1 <0>        -0.1277
     24 C16        -1.1512   -4.7300   -3.0814 C.ar      1 <0>        -0.0773
     25 C17        -0.6393   -4.6079   -4.3597 C.ar      1 <0>        -0.1214
     26 C18        -0.3353   -5.7392   -5.0936 C.ar      1 <0>        -0.0747
     27 C19        -0.5428   -6.9927   -4.5490 C.ar      1 <0>        -0.1276
     28 C20        -1.0506   -7.1149   -3.2691 C.ar      1 <0>        -0.0897
     29 C21         0.2218   -5.6060   -6.4875 C.3       1 <0>        -0.1173
     30 C22         2.2217   -3.8584    2.7683 C.ar      1 <0>        -0.0563
     31 C23         3.4808   -3.3363    2.4736 C.ar      1 <0>        -0.0671
     32 C24         3.8321   -2.0838    2.9365 C.ar      1 <0>        -0.0466
     33 C25         2.9384   -1.3441    3.6931 C.ar      1 <0>        -0.0418
     34 C26         1.6883   -1.8525    3.9907 C.ar      1 <0>        -0.1356
     35 C27         1.3198   -3.1054    3.5282 C.ar      1 <0>         0.1484
     36 O4          0.0888   -3.6033    3.8158 O.3       1 <0>        -0.4859
     37 C28         3.3314    0.0215    4.1947 C.3       1 <0>        -0.1264
     38 Cl1         5.3996   -1.4342    2.5694 Cl        1 <0>        -0.0533
     39 H3          1.0039    1.9031    0.0027 H         1 <0>         0.0660
     40 H4         -0.5459    1.8868   -0.8726 H         1 <0>         0.0674
     41 H5         -0.5289    1.8773    0.9072 H         1 <0>         0.0785
     42 H6          0.5293   -0.3651    0.8851 H         1 <0>         0.0597
     43 H7         -1.0205   -0.3814    0.0098 H         1 <0>         0.0613
     44 H8         -0.2563   -2.2690    0.4819 H         1 <0>         0.1318
     45 H9          1.0743   -5.6217   -1.7935 H         1 <0>         0.1226
     46 H10         2.0261   -4.1070   -3.4839 H         1 <0>         0.1327
     47 H11         2.8557   -1.2414   -3.2309 H         1 <0>         0.3859
     48 H12        -2.4895   -7.0416   -1.0682 H         1 <0>         0.0998
     49 H13        -2.5681   -5.2687   -0.9302 H         1 <0>         0.0947
     50 H14        -1.3886   -3.8462   -2.5080 H         1 <0>         0.1166
     51 H15        -0.4772   -3.6285   -4.7851 H         1 <0>         0.1204
     52 H16        -0.3056   -7.8766   -5.1225 H         1 <0>         0.1202
     53 H17        -1.2092   -8.0942   -2.8423 H         1 <0>         0.1250
     54 H18         1.3100   -5.5654   -6.4415 H         1 <0>         0.0699
     55 H19        -0.0849   -6.4646   -7.0849 H         1 <0>         0.0660
     56 H20        -0.1569   -4.6916   -6.9442 H         1 <0>         0.0665
     57 H21         4.1801   -3.9109    1.8844 H         1 <0>         0.1396
     58 H22         0.9960   -1.2707    4.5812 H         1 <0>         0.1456
     59 H23         0.0520   -4.1105    4.6382 H         1 <0>         0.3966
     60 H24         3.0502    0.7740    3.4580 H         1 <0>         0.0826
     61 H25         2.8189    0.2245    5.1351 H         1 <0>         0.0765
     62 H26         4.4092    0.0539    4.3540 H         1 <0>         0.0788
@<TRIPOS>BOND
     1    1    2 1
     2    1   39 1
     3    1   40 1
     4    1   41 1
     5    2    3 1
     6    2   42 1
     7    2   43 1
     8    3    4 1
     9    4    9 ar
    10    4    5 ar
    11    5    6 ar
    12    5   44 1
    13    6    7 ar
    14    6   11 1
    15    7    8 ar
    16    7   45 1
    17    8    9 ar
    18    8   46 1
    19    9   10 1
    20   10   47 1
    21   11   12 1
    22   11   21 1
    23   11   13 1
    24   13   18 1
    25   13   14 2
    26   14   15 1
    27   14   30 1
    28   15   16 1
    29   15   17 1
    30   17   18 2
    31   18   19 1
    32   19   20 2
    33   19   21 am
    34   21   22 1
    35   22   23 1
    36   22   48 1
    37   22   49 1
    38   23   28 ar
    39   23   24 ar
    40   24   25 ar
    41   24   50 1
    42   25   26 ar
    43   25   51 1
    44   26   27 ar
    45   26   29 1
    46   27   28 ar
    47   27   52 1
    48   28   53 1
    49   29   54 1
    50   29   55 1
    51   29   56 1
    52   30   35 ar
    53   30   31 ar
    54   31   32 ar
    55   31   57 1
    56   32   33 ar
    57   32   38 1
    58   33   34 ar
    59   33   37 1
    60   34   35 ar
    61   34   58 1
    62   35   36 1
    63   36   59 1
    64   37   60 1
    65   37   61 1
    66   37   62 1
@<TRIPOS>MOLECULE
ZINC10001358
   69    72     0     0     0
SMALL
USER_CHARGES
N-[1-[[3-methoxy-4-(1-naphthylmethoxy)phenyl]methyleneaminocarbamoyl]-2-methyl-propyl]benzamide
@<TRIPOS>ATOM
      1 C1         -4.0757    6.5972    2.3794 C.3       1 <0>        -0.1516
      2 C2         -4.7142    5.8939    1.1800 C.3       1 <0>        -0.1005
      3 C3         -6.1300    6.4333    0.9668 C.3       1 <0>        -0.1388
      4 C4         -3.8745    6.1566   -0.0717 C.3       1 <0>         0.1403
      5 H1         -4.3807    5.7406   -0.9428 H         1 <0>         0.1159
      6 C5         -2.5244    5.5053    0.0833 C.2       1 <0>         0.5340
      7 O1         -1.5678    6.1669    0.4283 O.2       1 <0>        -0.4946
      8 N1         -2.3796    4.1879   -0.1613 N.am      1 <0>        -0.5802
      9 N2         -1.1071    3.6033   -0.1196 N.2       1 <0>        -0.2291
     10 C6         -0.9677    2.3346   -0.3552 C.2       1 <0>         0.1205
     11 C7          0.3714    1.7195   -0.3114 C.ar      1 <0>        -0.0585
     12 C8          1.4923    2.5018   -0.0220 C.ar      1 <0>        -0.0672
     13 C9          2.7446    1.9257    0.0124 C.ar      1 <0>        -0.1797
     14 C10         2.8952    0.5697   -0.2392 C.ar      1 <0>         0.1248
     15 C11         1.7819   -0.2166   -0.5279 C.ar      1 <0>         0.0976
     16 C12         0.5234    0.3539   -0.5647 C.ar      1 <0>        -0.1422
     17 O2          1.9335   -1.5455   -0.7740 O.3       1 <0>        -0.3040
     18 C13         0.7492   -2.2909   -1.0636 C.3       1 <0>         0.0243
     19 O3          4.1321    0.0069   -0.2043 O.3       1 <0>        -0.2963
     20 C14         5.2295    0.8708    0.0979 C.3       1 <0>         0.1014
     21 C15         6.5103    0.0766    0.0919 C.ar      1 <0>        -0.0869
     22 C16         6.4861   -1.2588   -0.1710 C.ar      1 <0>        -0.0880
     23 C17         7.6608   -2.0080   -0.1877 C.ar      1 <0>        -0.1153
     24 C18         8.8652   -1.4289    0.0711 C.ar      1 <0>        -0.1027
     25 C19         8.9292   -0.0540    0.3530 C.ar      1 <0>        -0.0522
     26 C20         7.7350    0.7096    0.3634 C.ar      1 <0>        -0.0397
     27 C21         7.7991    2.0849    0.6459 C.ar      1 <0>        -0.1161
     28 C22         9.0033    2.6636    0.9050 C.ar      1 <0>        -0.1090
     29 C23        10.1775    1.9127    0.8952 C.ar      1 <0>        -0.1188
     30 C24        10.1541    0.5789    0.6258 C.ar      1 <0>        -0.1012
     31 N3         -3.7026    7.6005   -0.2502 N.am      1 <0>        -0.7088
     32 C25        -4.6471    8.3175   -0.8907 C.2       1 <0>         0.5659
     33 O4         -5.6416    7.7662   -1.3202 O.2       1 <0>        -0.5274
     34 C26        -4.4735    9.7747   -1.0708 C.ar      1 <0>        -0.1384
     35 C27        -3.3355   10.4118   -0.5737 C.ar      1 <0>        -0.0851
     36 C28        -3.1772   11.7709   -0.7497 C.ar      1 <0>        -0.1267
     37 C29        -4.1487   12.5041   -1.4077 C.ar      1 <0>        -0.0908
     38 C30        -5.2819   11.8796   -1.8979 C.ar      1 <0>        -0.1281
     39 C31        -5.4498   10.5202   -1.7336 C.ar      1 <0>        -0.0578
     40 H2         -4.0312    7.6697    2.1902 H         1 <0>         0.0605
     41 H3         -4.6740    6.4100    3.2711 H         1 <0>         0.0622
     42 H4         -3.0671    6.2129    2.5313 H         1 <0>         0.0576
     43 H5         -4.7587    4.8213    1.3691 H         1 <0>         0.0823
     44 H6         -6.5439    6.0149    0.0493 H         1 <0>         0.0669
     45 H7         -6.7580    6.1494    1.8112 H         1 <0>         0.0551
     46 H8         -6.0968    7.5199    0.8879 H         1 <0>         0.0582
     47 H9         -3.1565    3.6444   -0.3663 H         1 <0>         0.3890
     48 H10        -1.8327    1.7296   -0.5834 H         1 <0>         0.1222
     49 H11         1.3780    3.5578    0.1739 H         1 <0>         0.1412
     50 H12         3.6104    2.5316    0.2355 H         1 <0>         0.1400
     51 H13        -0.3404   -0.2546   -0.7884 H         1 <0>         0.1420
     52 H14         0.0634   -2.2258   -0.2189 H         1 <0>         0.0561
     53 H15         0.2703   -1.8811   -1.9528 H         1 <0>         0.0561
     54 H16         1.0106   -3.3343   -1.2398 H         1 <0>         0.1024
     55 H17         5.2879    1.6600   -0.6516 H         1 <0>         0.0794
     56 H18         5.0820    1.3148    1.0824 H         1 <0>         0.0794
     57 H19         5.5429   -1.7437   -0.3749 H         1 <0>         0.1362
     58 H20         7.6144   -3.0651   -0.4041 H         1 <0>         0.1264
     59 H21         9.7669   -2.0232    0.0594 H         1 <0>         0.1288
     60 H22         6.8975    2.6792    0.6578 H         1 <0>         0.1252
     61 H23         9.0497    3.7206    1.1219 H         1 <0>         0.1246
     62 H24        11.1201    2.3966    1.1042 H         1 <0>         0.1245
     63 H25        11.0719    0.0097    0.6221 H         1 <0>         0.1286
     64 H26        -2.9089    8.0404    0.0926 H         1 <0>         0.4111
     65 H27        -2.5785    9.8413   -0.0560 H         1 <0>         0.1267
     66 H28        -2.2950   12.2644   -0.3695 H         1 <0>         0.1305
     67 H29        -4.0218   13.5684   -1.5396 H         1 <0>         0.1288
     68 H30        -6.0366   12.4576   -2.4106 H         1 <0>         0.1314
     69 H31        -6.3348   10.0339   -2.1167 H         1 <0>         0.1371
@<TRIPOS>BOND
     1    1    2 1
     2    1   40 1
     3    1   41 1
     4    1   42 1
     5    2    3 1
     6    2    4 1
     7    2   43 1
     8    3   44 1
     9    3   45 1
    10    3   46 1
    11    4    5 1
    12    4    6 1
    13    4   31 1
    14    6    7 2
    15    6    8 am
    16    8    9 1
    17    8   47 1
    18    9   10 2
    19   10   11 1
    20   10   48 1
    21   11   16 ar
    22   11   12 ar
    23   12   13 ar
    24   12   49 1
    25   13   14 ar
    26   13   50 1
    27   14   15 ar
    28   14   19 1
    29   15   16 ar
    30   15   17 1
    31   16   51 1
    32   17   18 1
    33   18   52 1
    34   18   53 1
    35   18   54 1
    36   19   20 1
    37   20   21 1
    38   20   55 1
    39   20   56 1
    40   21   26 ar
    41   21   22 ar
    42   22   23 ar
    43   22   57 1
    44   23   24 ar
    45   23   58 1
    46   24   25 ar
    47   24   59 1
    48   25   30 ar
    49   25   26 ar
    50   26   27 ar
    51   27   28 ar
    52   27   60 1
    53   28   29 ar
    54   28   61 1
    55   29   30 ar
    56   29   62 1
    57   30   63 1
    58   31   32 am
    59   31   64 1
    60   32   33 2
    61   32   34 1
    62   34   39 ar
    63   34   35 ar
    64   35   36 ar
    65   35   65 1
    66   36   37 ar
    67   36   66 1
    68   37   38 ar
    69   37   67 1
    70   38   39 ar
    71   38   68 1
    72   39   69 1
@<TRIPOS>MOLECULE
ZINC34657459
   62    64     0     0     0
SMALL
USER_CHARGES

@<TRIPOS>ATOM
      1 C1          4.2730    5.6501    3.2655 C.3       1 <0>        -0.1474
      2 C2          3.4234    4.4133    2.9664 C.3       1 <0>        -0.0875
      3 H1          3.5575    4.1238    1.9241 H         1 <0>         0.0727
      4 C3          1.9491    4.7335    3.2211 C.3       1 <0>        -0.1193
      5 C4          1.0996    3.4967    2.9220 C.3       1 <0>        -0.1163
      6 C5          1.5360    2.3461    3.8311 C.3       1 <0>        -0.0763
      7 H2          1.4020    2.6356    4.8734 H         1 <0>         0.0833
      8 C6          3.0103    2.0259    3.5764 C.3       1 <0>         0.0932
      9 H3          3.1444    1.7364    2.5341 H         1 <0>         0.0898
     10 C7          3.8599    3.2627    3.8755 C.3       1 <0>        -0.1324
     11 O1          3.4180    0.9513    4.4255 O.3       1 <0>        -0.3382
     12 C8          4.3876    0.1452    3.9653 C.2       1 <0>         0.4631
     13 O2          4.8742    0.3454    2.8776 O.2       1 <0>        -0.4807
     14 C9          4.8694   -1.0095    4.8053 C.3       1 <0>         0.0762
     15 O3          5.8969   -1.7127    4.1039 O.3       1 <0>        -0.3320
     16 C10         6.4386   -2.7806    4.7218 C.2       1 <0>         0.5152
     17 O4          6.0494   -3.1058    5.8260 O.2       1 <0>        -0.4785
     18 C11         7.5036   -3.5543    4.0583 C.ar      1 <0>        -0.1527
     19 C12         7.9579   -3.1798    2.7907 C.ar      1 <0>        -0.0366
     20 C13         8.9579   -3.9112    2.1742 C.ar      1 <0>         0.0983
     21 C14         9.5103   -5.0168    2.8131 C.ar      1 <0>        -0.0463
     22 C15         9.0663   -5.3926    4.0646 C.ar      1 <0>        -0.1481
     23 C16         8.0694   -4.6655    4.6978 C.ar      1 <0>         0.1910
     24 O5          7.6386   -5.0329    5.9314 O.3       1 <0>        -0.4761
     25 N1          9.4145   -3.5380    0.9049 N.pl3     1 <0>        -1.0586
     26 S1         10.8775   -2.7796    0.7410 S.o2      1 <0>         2.7253
     27 O6         11.8227   -3.5614    1.4584 O.2       1 <0>        -0.9369
     28 O7         11.0275   -2.4807   -0.6401 O.2       1 <0>        -0.9412
     29 C17        10.7606   -1.2350    1.5808 C.2       1 <0>        -0.7727
     30 C18        10.9624   -0.9591    2.8924 C.2       1 <0>         0.0023
     31 C19        10.8138    0.3422    3.3343 C.2       1 <0>        -0.1934
     32 C20        10.4706    1.3039    2.4429 C.2       1 <0>        -0.1269
     33 S2         10.3532    0.3740    0.9234 S.3       1 <0>         0.1758
     34 C21         0.6865    1.1093    3.5320 C.3       1 <0>        -0.0942
     35 C22        -0.7690    1.3858    3.9141 C.3       1 <0>        -0.1477
     36 C23         0.7688    0.7828    2.0395 C.3       1 <0>        -0.1553
     37 H4          5.3233    5.4220    3.0840 H         1 <0>         0.0548
     38 H5          3.9620    6.4698    2.6178 H         1 <0>         0.0584
     39 H6          4.1389    5.9396    4.3077 H         1 <0>         0.0560
     40 H7          1.8151    5.0230    4.2634 H         1 <0>         0.0657
     41 H8          1.6382    5.5532    2.5734 H         1 <0>         0.0679
     42 H9          0.0493    3.7248    3.1035 H         1 <0>         0.0763
     43 H10         1.2336    3.2072    1.8797 H         1 <0>         0.0703
     44 H11         4.9102    3.0346    3.6940 H         1 <0>         0.0675
     45 H12         3.7258    3.5522    4.9177 H         1 <0>         0.0741
     46 H13         5.2658   -0.6325    5.7481 H         1 <0>         0.1149
     47 H14         4.0379   -1.6853    5.0051 H         1 <0>         0.1151
     48 H15         7.5294   -2.3222    2.2935 H         1 <0>         0.1521
     49 H16        10.2903   -5.5841    2.3271 H         1 <0>         0.1508
     50 H17         9.4993   -6.2524    4.5540 H         1 <0>         0.1521
     51 H18         6.9042   -5.6618    5.9204 H         1 <0>         0.4027
     52 H19         8.8739   -3.7236    0.1211 H         1 <0>         0.4304
     53 H20        11.2350   -1.7443    3.5820 H         1 <0>         0.1458
     54 H21        10.9685    0.5889    4.3743 H         1 <0>         0.1456
     55 H22        10.3130    2.3595    2.6082 H         1 <0>         0.1968
     56 H23         1.0595    0.2638    4.1100 H         1 <0>         0.0743
     57 H24        -1.1718    2.1670    3.2693 H         1 <0>         0.0573
     58 H25        -1.3559    0.4755    3.7921 H         1 <0>         0.0553
     59 H26        -0.8163    1.7121    4.9530 H         1 <0>         0.0558
     60 H27         0.1635   -0.0983    1.8264 H         1 <0>         0.0560
     61 H28         0.3957    1.6283    1.4615 H         1 <0>         0.0613
     62 H29         1.8057    0.5858    1.7673 H         1 <0>         0.0518
@<TRIPOS>BOND
     1    1    2 1
     2    1   37 1
     3    1   38 1
     4    1   39 1
     5    2    3 1
     6    2   10 1
     7    2    4 1
     8    4    5 1
     9    4   40 1
    10    4   41 1
    11    5    6 1
    12    5   42 1
    13    5   43 1
    14    6    7 1
    15    6    8 1
    16    6   34 1
    17    8    9 1
    18    8   10 1
    19    8   11 1
    20   10   44 1
    21   10   45 1
    22   11   12 1
    23   12   13 2
    24   12   14 1
    25   14   15 1
    26   14   46 1
    27   14   47 1
    28   15   16 1
    29   16   17 2
    30   16   18 1
    31   18   23 ar
    32   18   19 ar
    33   19   20 ar
    34   19   48 1
    35   20   21 ar
    36   20   25 1
    37   21   22 ar
    38   21   49 1
    39   22   23 ar
    40   22   50 1
    41   23   24 1
    42   24   51 1
    43   25   26 1
    44   25   52 1
    45   26   27 2
    46   26   28 2
    47   26   29 1
    48   29   33 1
    49   29   30 2
    50   30   31 1
    51   30   53 1
    52   31   32 2
    53   31   54 1
    54   32   33 1
    55   32   55 1
    56   34   35 1
    57   34   36 1
    58   34   56 1
    59   35   57 1
    60   35   58 1
    61   35   59 1
    62   36   60 1
    63   36   61 1
    64   36   62 1
@<TRIPOS>MOLECULE
ZINC38650917
   65    69     0     0     0
SMALL
USER_CHARGES

@<TRIPOS>ATOM
      1 C1          5.0602   -1.2694    2.2538 C.3       1 <0>        -0.1099
      2 C2          3.9582   -2.1664    1.7520 C.ar      1 <0>        -0.1070
      3 C3          4.1713   -2.9743    0.6516 C.ar      1 <0>        -0.0832
      4 C4          3.1606   -3.7971    0.1905 C.ar      1 <0>        -0.1478
      5 C5          1.9342   -3.8141    0.8292 C.ar      1 <0>        -0.0856
      6 C6          1.7162   -3.0087    1.9300 C.ar      1 <0>        -0.2048
      7 C7          2.7308   -2.1859    2.3979 C.ar      1 <0>         0.1226
      8 O1          2.5206   -1.3967    3.4841 O.3       1 <0>        -0.2921
      9 C8          1.2326   -1.4685    4.0988 C.3       1 <0>         0.0730
     10 C9          1.1857   -0.5313    5.2780 C.2       1 <0>         0.4624
     11 O2          2.1559    0.1302    5.5628 O.2       1 <0>        -0.4574
     12 O3          0.0660   -0.4314    6.0121 O.3       1 <0>        -0.2880
     13 C10         0.1002    0.3475    7.1254 C.ar      1 <0>         0.1136
     14 C11         0.0378    1.7292    7.0092 C.ar      1 <0>        -0.1234
     15 C12         0.0727    2.5191    8.1412 C.ar      1 <0>        -0.0602
     16 C13         0.1702    1.9390    9.3936 C.ar      1 <0>        -0.1109
     17 C14         0.2328    0.5597    9.5155 C.ar      1 <0>         0.1308
     18 C15         0.1917   -0.2366    8.3781 C.ar      1 <0>        -0.1201
     19 O4          0.3285   -0.0272   10.7340 O.3       1 <0>        -0.2421
     20 C16         0.7455    0.6884   11.7917 C.2       1 <0>         0.4402
     21 C17         0.7139    2.0420   11.7986 C.2       1 <0>        -0.2756
     22 C18         0.2067    2.8178   10.6158 C.3       1 <0>         0.0877
     23 H1          0.8657    3.6661   10.4309 H         1 <0>         0.1010
     24 C19        -1.1824    3.3235   10.9087 C.ar      1 <0>        -0.1149
     25 C20        -2.2012    2.4273   11.1746 C.ar      1 <0>        -0.0603
     26 C21        -3.4755    2.8883   11.4431 C.ar      1 <0>        -0.1483
     27 C22        -3.7324    4.2516   11.4461 C.ar      1 <0>         0.1319
     28 C23        -2.7083    5.1487   11.1795 C.ar      1 <0>        -0.2069
     29 C24        -1.4346    4.6829   10.9168 C.ar      1 <0>        -0.0687
     30 O5         -4.9853    4.7075   11.7095 O.3       1 <0>        -0.3086
     31 C25        -5.1766    6.1236   11.6957 C.3       1 <0>         0.1023
     32 C26        -6.6170    6.4390   12.0068 C.ar      1 <0>        -0.0986
     33 C27        -7.5411    6.5312   10.9829 C.ar      1 <0>        -0.0951
     34 C28        -8.8624    6.8205   11.2683 C.ar      1 <0>        -0.1231
     35 C29        -9.2596    7.0171   12.5776 C.ar      1 <0>        -0.1088
     36 C30        -8.3357    6.9239   13.6016 C.ar      1 <0>        -0.1230
     37 C31        -7.0153    6.6304   13.3166 C.ar      1 <0>        -0.0953
     38 C32         1.1728    2.7486   12.9566 C.1       1 <0>         0.2731
     39 N1          1.5367    3.3091   13.8752 N.1       1 <0>        -0.4434
     40 N2          1.2171    0.0276   12.8986 N.pl3     1 <0>        -0.8295
     41 H2          5.6605   -1.8071    2.9878 H         1 <0>         0.0701
     42 H3          5.6921   -0.9679    1.4184 H         1 <0>         0.0668
     43 H4          4.6253   -0.3844    2.7183 H         1 <0>         0.0727
     44 H5          5.1283   -2.9628    0.1511 H         1 <0>         0.1316
     45 H6          3.3289   -4.4273   -0.6702 H         1 <0>         0.1262
     46 H7          1.1460   -4.4575    0.4669 H         1 <0>         0.1273
     47 H8          0.7582   -3.0224    2.4284 H         1 <0>         0.1300
     48 H9          0.4686   -1.1816    3.3761 H         1 <0>         0.1118
     49 H10         1.0478   -2.4880    4.4373 H         1 <0>         0.1120
     50 H11        -0.0376    2.1863    6.0336 H         1 <0>         0.1390
     51 H12         0.0241    3.5941    8.0486 H         1 <0>         0.1446
     52 H13         0.2359   -1.3117    8.4703 H         1 <0>         0.1485
     53 H14        -2.0007    1.3661   11.1721 H         1 <0>         0.1223
     54 H15        -4.2712    2.1879   11.6500 H         1 <0>         0.1303
     55 H16        -2.9058    6.2105   11.1813 H         1 <0>         0.1283
     56 H17        -0.6360    5.3810   10.7135 H         1 <0>         0.1259
     57 H18        -4.5336    6.5844   12.4456 H         1 <0>         0.0715
     58 H19        -4.9237    6.5148   10.7103 H         1 <0>         0.0722
     59 H20        -7.2307    6.3776    9.9599 H         1 <0>         0.1243
     60 H21        -9.5842    6.8933   10.4682 H         1 <0>         0.1260
     61 H22       -10.2918    7.2438   12.8005 H         1 <0>         0.1250
     62 H23        -8.6460    7.0778   14.6246 H         1 <0>         0.1258
     63 H24        -6.2942    6.5539   14.1170 H         1 <0>         0.1240
     64 H25         1.2457   -0.9419   12.9091 H         1 <0>         0.4120
     65 H26         1.5218    0.5302   13.6702 H         1 <0>         0.4263
@<TRIPOS>BOND
     1    1    2 1
     2    1   41 1
     3    1   42 1
     4    1   43 1
     5    2    7 ar
     6    2    3 ar
     7    3    4 ar
     8    3   44 1
     9    4    5 ar
    10    4   45 1
    11    5    6 ar
    12    5   46 1
    13    6    7 ar
    14    6   47 1
    15    7    8 1
    16    8    9 1
    17    9   10 1
    18    9   48 1
    19    9   49 1
    20   10   11 2
    21   10   12 1
    22   12   13 1
    23   13   18 ar
    24   13   14 ar
    25   14   15 ar
    26   14   50 1
    27   15   16 ar
    28   15   51 1
    29   16   22 1
    30   16   17 ar
    31   17   18 ar
    32   17   19 1
    33   18   52 1
    34   19   20 1
    35   20   21 2
    36   20   40 1
    37   21   22 1
    38   21   38 1
    39   22   23 1
    40   22   24 1
    41   24   29 ar
    42   24   25 ar
    43   25   26 ar
    44   25   53 1
    45   26   27 ar
    46   26   54 1
    47   27   28 ar
    48   27   30 1
    49   28   29 ar
    50   28   55 1
    51   29   56 1
    52   30   31 1
    53   31   32 1
    54   31   57 1
    55   31   58 1
    56   32   37 ar
    57   32   33 ar
    58   33   34 ar
    59   33   59 1
    60   34   35 ar
    61   34   60 1
    62   35   36 ar
    63   35   61 1
    64   36   37 ar
    65   36   62 1
    66   37   63 1
    67   38   39 3
    68   40   64 1
    69   40   65 1
@<TRIPOS>MOLECULE
ZINC39211254
   67    71     0     0     0
SMALL
USER_CHARGES

@<TRIPOS>ATOM
      1 C1          1.1905    1.2363   -0.1764 C.3       1 <0>        -0.1158
      2 C2          0.5620   -0.1304   -0.0863 C.ar      1 <0>        -0.0680
      3 C3         -0.0493   -0.6842   -1.1965 C.ar      1 <0>        -0.1357
      4 C4         -0.6271   -1.9378   -1.1180 C.ar      1 <0>        -0.1013
      5 C5         -0.5960   -2.6412    0.0704 C.ar      1 <0>        -0.1157
      6 C6          0.0170   -2.0880    1.1870 C.ar      1 <0>         0.1625
      7 C7          0.6020   -0.8308    1.1031 C.ar      1 <0>        -0.1176
      8 C8          1.2740   -0.2294    2.3105 C.3       1 <0>        -0.1172
      9 N1          0.0498   -2.7972    2.3917 N.pl3     1 <0>        -0.6208
     10 C9         -0.0367   -4.1760    2.3843 C.ar      1 <0>         0.6469
     11 N2         -0.0278   -4.8363    1.2304 N.ar      1 <0>        -0.6286
     12 C10        -0.1107   -6.1631    1.2233 C.ar      1 <0>         0.6719
     13 N3         -0.2024   -6.8297    2.3702 N.ar      1 <0>        -0.6687
     14 C11        -0.2113   -6.1694    3.5237 C.ar      1 <0>         0.6606
     15 N4         -0.1233   -4.8427    3.5310 N.ar      1 <0>        -0.6657
     16 N5         -0.3065   -6.8612    4.7142 N.pl3     1 <0>        -0.5672
     17 C12        -0.3237   -6.1449    5.9969 C.3       1 <0>         0.1239
     18 C13         0.7715   -6.7227    6.8989 C.3       1 <0>        -0.1300
     19 C14         0.5801   -8.2361    7.0215 C.3       1 <0>        -0.0946
     20 C15         0.7028   -8.8811    5.6391 C.3       1 <0>        -0.1299
     21 C16        -0.3988   -8.3275    4.7225 C.3       1 <0>         0.1239
     22 C17         1.6516   -8.8119    7.9495 C.3       1 <0>        -0.1478
     23 N6         -0.1019   -6.8493    0.0244 N.pl3     1 <0>        -0.5360
     24 N7         -0.0057   -6.1469   -1.1840 N.2       1 <0>        -0.1869
     25 C18         0.0024   -6.7827   -2.2950 C.2       1 <0>         0.0800
     26 C19         0.1059   -6.0272   -3.5948 C.3       1 <0>        -0.0749
     27 H1          0.1776   -4.9554   -3.4101 H         1 <0>         0.1565
     28 C20         1.2948   -6.5111   -4.4007 C.2       1 <0>         0.0983
     29 N8          0.8124   -6.9842   -5.5036 N.2       1 <0>        -0.2979
     30 N9         -0.5739   -6.8878   -5.5632 N.2       1 <0>        -0.3003
     31 C21        -1.0786   -6.3373   -4.4888 C.2       1 <0>         0.1594
     32 C22        -2.4977   -6.0749   -4.2043 C.ar      1 <0>        -0.0601
     33 C23        -2.8727   -5.4709   -2.9995 C.ar      1 <0>        -0.0533
     34 C24        -4.2038   -5.2274   -2.7395 C.ar      1 <0>        -0.1563
     35 C25        -5.1708   -5.5802   -3.6688 C.ar      1 <0>         0.1270
     36 C26        -4.8058   -6.1793   -4.8650 C.ar      1 <0>        -0.1582
     37 C27        -3.4777   -6.4230   -5.1399 C.ar      1 <0>        -0.0391
     38 F1         -6.4742   -5.3396   -3.4073 F         1 <0>        -0.1320
     39 H2          2.2327    1.1377   -0.4802 H         1 <0>         0.0701
     40 H3          0.6530    1.8357   -0.9112 H         1 <0>         0.0669
     41 H4          1.1404    1.7242    0.7971 H         1 <0>         0.0676
     42 H5         -0.0756   -0.1360   -2.1266 H         1 <0>         0.1195
     43 H6         -1.1036   -2.3674   -1.9868 H         1 <0>         0.1201
     44 H7         -1.0481   -3.6201    0.1312 H         1 <0>         0.1523
     45 H8          0.5456    0.3440    2.8838 H         1 <0>         0.0703
     46 H9          1.6815   -1.0254    2.9337 H         1 <0>         0.0610
     47 H10         2.0810    0.4282    1.9872 H         1 <0>         0.0737
     48 H11         0.1334   -2.3210    3.2327 H         1 <0>         0.4244
     49 H12        -0.1351   -5.0850    5.8262 H         1 <0>         0.1010
     50 H13        -1.2953   -6.2730    6.4740 H         1 <0>         0.0687
     51 H14         1.7488   -6.5136    6.4641 H         1 <0>         0.0666
     52 H15         0.7072   -6.2667    7.8869 H         1 <0>         0.0784
     53 H16        -0.4072   -8.4451    7.4334 H         1 <0>         0.0731
     54 H17         1.6808   -8.6517    5.2161 H         1 <0>         0.0666
     55 H18         0.5897   -9.9614    5.7304 H         1 <0>         0.0777
     56 H19        -1.3764   -8.6300    5.0978 H         1 <0>         0.0690
     57 H20        -0.2597   -8.7082    3.7107 H         1 <0>         0.0999
     58 H21         1.5636   -8.3535    8.9345 H         1 <0>         0.0563
     59 H22         1.5155   -9.8898    8.0370 H         1 <0>         0.0561
     60 H23         2.6391   -8.6025    7.5383 H         1 <0>         0.0539
     61 H24        -0.1624   -7.8174    0.0192 H         1 <0>         0.4078
     62 H25        -0.0649   -7.8606   -2.3008 H         1 <0>         0.1225
     63 H26         2.3347   -6.4693   -4.1123 H         1 <0>         0.2089
     64 H27        -2.1206   -5.1963   -2.2747 H         1 <0>         0.1407
     65 H28        -4.4947   -4.7612   -1.8098 H         1 <0>         0.1425
     66 H29        -5.5639   -6.4519   -5.5843 H         1 <0>         0.1454
     67 H30        -3.1945   -6.8859   -6.0737 H         1 <0>         0.1476
@<TRIPOS>BOND
     1    1    2 1
     2    1   39 1
     3    1   40 1
     4    1   41 1
     5    2    7 ar
     6    2    3 ar
     7    3    4 ar
     8    3   42 1
     9    4    5 ar
    10    4   43 1
    11    5    6 ar
    12    5   44 1
    13    6    7 ar
    14    6    9 1
    15    7    8 1
    16    8   45 1
    17    8   46 1
    18    8   47 1
    19    9   10 1
    20    9   48 1
    21   10   15 ar
    22   10   11 ar
    23   11   12 ar
    24   12   13 ar
    25   12   23 1
    26   13   14 ar
    27   14   15 ar
    28   14   16 1
    29   16   21 1
    30   16   17 1
    31   17   18 1
    32   17   49 1
    33   17   50 1
    34   18   19 1
    35   18   51 1
    36   18   52 1
    37   19   20 1
    38   19   22 1
    39   19   53 1
    40   20   21 1
    41   20   54 1
    42   20   55 1
    43   21   56 1
    44   21   57 1
    45   22   58 1
    46   22   59 1
    47   22   60 1
    48   23   24 1
    49   23   61 1
    50   24   25 2
    51   25   26 1
    52   25   62 1
    53   26   27 1
    54   26   31 1
    55   26   28 1
    56   28   29 2
    57   28   63 1
    58   29   30 1
    59   30   31 2
    60   31   32 1
    61   32   37 ar
    62   32   33 ar
    63   33   34 ar
    64   33   64 1
    65   34   35 ar
    66   34   65 1
    67   35   36 ar
    68   35   38 1
    69   36   37 ar
    70   36   66 1
    71   37   67 1
@<TRIPOS>MOLECULE
ZINC01422895
   68    72     0     0     0
SMALL
USER_CHARGES

@<TRIPOS>ATOM
      1 C1          3.4230   -2.1360    2.3303 C.3       1 <0>        -0.1527
      2 C2          2.2346   -1.9974    1.3767 C.3       1 <0>         0.0581
      3 O1          2.6230   -2.4173    0.0672 O.3       1 <0>        -0.3396
      4 C3          1.6587   -2.4525   -0.8761 C.2       1 <0>         0.5415
      5 O2          0.5246   -2.1089   -0.5999 O.2       1 <0>        -0.4812
      6 C4          1.9664   -2.8886   -2.1861 C.2       1 <0>        -0.2163
      7 C5          2.0514   -4.2034   -2.4823 C.2       1 <0>         0.2146
      8 N1          2.3480   -4.6231   -3.7475 N.am      1 <0>        -0.6466
      9 C6          2.5737   -3.7911   -4.7721 C.2       1 <0>         0.7108
     10 O3          2.8310   -4.2593   -5.8639 O.2       1 <0>        -0.5571
     11 N2          2.5244   -2.4516   -4.6324 N.am      1 <0>        -0.7092
     12 C7          2.2055   -1.8965   -3.3062 C.3       1 <0>         0.2401
     13 H1          1.3136   -1.2774   -3.4028 H         1 <0>         0.1036
     14 C8          3.3454   -0.9997   -2.8970 C.ar      1 <0>        -0.1119
     15 C9          4.6422   -1.3263   -3.2478 C.ar      1 <0>        -0.0905
     16 C10         5.6877   -0.5038   -2.8725 C.ar      1 <0>        -0.0879
     17 C11         5.4366    0.6458   -2.1466 C.ar      1 <0>        -0.1074
     18 C12         4.1401    0.9727   -1.7966 C.ar      1 <0>        -0.1121
     19 C13         3.0939    0.1522   -2.1758 C.ar      1 <0>        -0.0739
     20 C14         1.6797    0.5115   -1.7987 C.3       1 <0>        -0.1278
     21 C15         7.1013   -0.8604   -3.2541 C.3       1 <0>        -0.1156
     22 C16         1.8155   -5.2241   -1.3989 C.3       1 <0>        -0.1026
     23 S1          0.1905   -5.9942   -1.6371 S.3       1 <0>         0.0630
     24 C17         0.0663   -7.1467   -0.3101 C.ar      1 <0>         0.2568
     25 N3         -1.0243   -7.8934   -0.1967 N.ar      1 <0>        -0.4756
     26 C18        -1.1159   -8.7627    0.8050 C.ar      1 <0>         0.3756
     27 C19        -0.0402   -8.8547    1.7124 C.ar      1 <0>         0.0049
     28 C20        -0.4174   -9.8820    2.6985 C.ar      1 <0>        -0.0864
     29 C21         0.2138  -10.4143    3.8204 C.ar      1 <0>        -0.0397
     30 C22        -0.4150  -11.3922    4.5607 C.ar      1 <0>        -0.1390
     31 C23        -1.6718  -11.8469    4.1925 C.ar      1 <0>        -0.0659
     32 C24        -2.3077  -11.3288    3.0845 C.ar      1 <0>        -0.1320
     33 C25        -1.6896  -10.3413    2.3246 C.ar      1 <0>         0.1547
     34 N4         -2.0860   -9.6555    1.1878 N.pl3     1 <0>        -0.4692
     35 C26        -3.3602   -9.8547    0.4929 C.3       1 <0>         0.1353
     36 C27        -4.1459   -8.5418    0.4822 C.3       1 <0>        -0.1700
     37 C28        -3.0923  -10.3004   -0.9460 C.3       1 <0>        -0.1697
     38 N5          1.0218   -8.0809    1.5438 N.ar      1 <0>        -0.1257
     39 N6          1.0695   -7.2551    0.5551 N.ar      1 <0>        -0.3077
     40 H2          3.7432   -3.1774    2.3627 H         1 <0>         0.0680
     41 H3          4.2458   -1.5137    1.9783 H         1 <0>         0.0681
     42 H4          3.1267   -1.8157    3.3291 H         1 <0>         0.0803
     43 H5          1.4118   -2.6197    1.7287 H         1 <0>         0.0683
     44 H6          1.9144   -0.9560    1.3442 H         1 <0>         0.0697
     45 H7          2.3984   -5.5776   -3.9132 H         1 <0>         0.4311
     46 H8          2.6916   -1.8671   -5.3882 H         1 <0>         0.4365
     47 H9          4.8384   -2.2243   -3.8148 H         1 <0>         0.1188
     48 H10         6.2536    1.2881   -1.8527 H         1 <0>         0.1231
     49 H11         3.9440    1.8706   -1.2293 H         1 <0>         0.1242
     50 H12         1.4406    0.0759   -0.8286 H         1 <0>         0.0721
     51 H13         1.5826    1.5958   -1.7441 H         1 <0>         0.0723
     52 H14         0.9932    0.1226   -2.5508 H         1 <0>         0.0707
     53 H15         7.3396   -0.4168   -4.2208 H         1 <0>         0.0710
     54 H16         7.7887   -0.4780   -2.4995 H         1 <0>         0.0673
     55 H17         7.1981   -1.9442   -3.3178 H         1 <0>         0.0656
     56 H18         2.5905   -5.9892   -1.4456 H         1 <0>         0.1317
     57 H19         1.8465   -4.7345   -0.4256 H         1 <0>         0.1251
     58 H20         1.1930  -10.0620    4.1090 H         1 <0>         0.1378
     59 H21         0.0733  -11.8061    5.4305 H         1 <0>         0.1372
     60 H22        -2.1567  -12.6137    4.7784 H         1 <0>         0.1391
     61 H23        -3.2868  -11.6899    2.8063 H         1 <0>         0.1332
     62 H24        -3.9395  -10.6206    1.0086 H         1 <0>         0.1061
     63 H25        -3.5667   -7.7759   -0.0335 H         1 <0>         0.0753
     64 H26        -5.0940   -8.6900   -0.0348 H         1 <0>         0.0819
     65 H27        -4.3368   -8.2243    1.5073 H         1 <0>         0.0615
     66 H28        -2.5325  -11.2357   -0.9383 H         1 <0>         0.0615
     67 H29        -4.0403  -10.4485   -1.4630 H         1 <0>         0.0819
     68 H30        -2.5130   -9.5345   -1.4617 H         1 <0>         0.0751
@<TRIPOS>BOND
     1    1    2 1
     2    1   40 1
     3    1   41 1
     4    1   42 1
     5    2    3 1
     6    2   43 1
     7    2   44 1
     8    3    4 1
     9    4    5 2
    10    4    6 1
    11    6   12 1
    12    6    7 2
    13    7    8 1
    14    7   22 1
    15    8    9 am
    16    8   45 1
    17    9   10 2
    18    9   11 am
    19   11   12 1
    20   11   46 1
    21   12   13 1
    22   12   14 1
    23   14   19 ar
    24   14   15 ar
    25   15   16 ar
    26   15   47 1
    27   16   17 ar
    28   16   21 1
    29   17   18 ar
    30   17   48 1
    31   18   19 ar
    32   18   49 1
    33   19   20 1
    34   20   50 1
    35   20   51 1
    36   20   52 1
    37   21   53 1
    38   21   54 1
    39   21   55 1
    40   22   23 1
    41   22   56 1
    42   22   57 1
    43   23   24 1
    44   24   39 ar
    45   24   25 ar
    46   25   26 ar
    47   26   34 1
    48   26   27 ar
    49   27   28 1
    50   27   38 ar
    51   28   33 ar
    52   28   29 ar
    53   29   30 ar
    54   29   58 1
    55   30   31 ar
    56   30   59 1
    57   31   32 ar
    58   31   60 1
    59   32   33 ar
    60   32   61 1
    61   33   34 1
    62   34   35 1
    63   35   36 1
    64   35   37 1
    65   35   62 1
    66   36   63 1
    67   36   64 1
    68   36   65 1
    69   37   66 1
    70   37   67 1
    71   37   68 1
    72   38   39 ar
@<TRIPOS>MOLECULE
ZINC00630347
   55    59     0     0     0
SMALL
USER_CHARGES
amino-(2,5-dioxabicyclo[4.4.0]deca-7,9,11-trien-8-ylcarbonyl)-ethyl-dimethyl-BLAHone
@<TRIPOS>ATOM
      1 C1          7.5745   -5.0947    0.1721 C.3       1 <0>        -0.1425
      2 C2          6.8032   -4.4876    1.3457 C.3       1 <0>        -0.1219
      3 C3          5.3452   -4.8506    1.2302 C.ar      1 <0>         0.0920
      4 C4          4.4462   -4.0019    0.5483 C.ar      1 <0>        -0.2106
      5 C5          4.7189   -2.7343   -0.1130 C.2       1 <0>         0.3096
      6 C6          3.6695   -2.0765   -0.7224 C.2       1 <0>        -0.3501
      7 S1          2.2769   -3.1447   -0.4153 S.3       1 <0>         0.1543
      8 C7          3.0979   -4.4316    0.4935 C.ar      1 <0>         0.1444
      9 N1          2.6840   -5.5543    1.0441 N.ar      1 <0>        -0.4660
     10 C8          3.5038   -6.3619    1.6893 C.ar      1 <0>         0.2432
     11 C9          4.8620   -6.0293    1.7946 C.ar      1 <0>        -0.2441
     12 C10         5.7894   -6.9301    2.5015 C.2       1 <0>         0.4072
     13 O1          6.9904   -6.7772    2.4289 O.2       1 <0>        -0.4402
     14 C11         5.1906   -8.0532    3.3223 C.3       1 <0>        -0.1462
     15 C12         4.0494   -8.6650    2.4995 C.3       1 <0>        -0.0561
     16 C13         2.9531   -7.6223    2.3000 C.3       1 <0>        -0.0719
     17 C14         3.4755   -9.8732    3.2423 C.3       1 <0>        -0.1418
     18 C15         4.5841   -9.1104    1.1369 C.3       1 <0>        -0.1532
     19 C16         3.6929   -0.8449   -1.4193 C.2       1 <0>         0.4916
     20 O2          4.7532   -0.2793   -1.6216 O.2       1 <0>        -0.4670
     21 C17         2.4318   -0.2449   -1.9016 C.ar      1 <0>        -0.1515
     22 C18         2.4457    0.6417   -2.9810 C.ar      1 <0>        -0.0551
     23 C19         1.2687    1.2009   -3.4273 C.ar      1 <0>        -0.1215
     24 C20         0.0647    0.8867   -2.8078 C.ar      1 <0>         0.0801
     25 C21         0.0437    0.0013   -1.7331 C.ar      1 <0>         0.0470
     26 C22         1.2225   -0.5621   -1.2794 C.ar      1 <0>        -0.0759
     27 O3         -1.1283   -0.3234   -1.1213 O.3       1 <0>        -0.3022
     28 C23        -2.2413    0.5446   -1.3609 C.3       1 <0>         0.0190
     29 C24        -2.3109    0.8322   -2.8668 C.3       1 <0>         0.0181
     30 O4         -1.0839    1.4571   -3.2602 O.3       1 <0>        -0.3024
     31 N2          5.9977   -2.2024   -0.1308 N.pl3     1 <0>        -0.8327
     32 H1          7.4677   -6.1793    0.1893 H         1 <0>         0.0687
     33 H2          7.1762   -4.7052   -0.7648 H         1 <0>         0.0513
     34 H3          8.6291   -4.8321    0.2556 H         1 <0>         0.0722
     35 H4          6.9100   -3.4029    1.3285 H         1 <0>         0.0836
     36 H5          7.2015   -4.8771    2.2826 H         1 <0>         0.1120
     37 H6          4.8464   -7.6872    4.1869 H         1 <0>         0.0961
     38 H7          5.9490   -8.8098    3.5239 H         1 <0>         0.1016
     39 H8          2.5056   -7.3854    3.2653 H         1 <0>         0.1042
     40 H9          2.1859   -8.0319    1.6429 H         1 <0>         0.1044
     41 H10         2.6638  -10.3068    2.6582 H         1 <0>         0.0658
     42 H11         4.2587  -10.6178    3.3846 H         1 <0>         0.0650
     43 H12         3.0952   -9.5558    4.2132 H         1 <0>         0.0628
     44 H13         4.9934   -8.2496    0.6082 H         1 <0>         0.0528
     45 H14         5.3671   -9.8551    1.2796 H         1 <0>         0.0655
     46 H15         3.7727   -9.5438    0.5522 H         1 <0>         0.0673
     47 H16         3.3790    0.8888   -3.4652 H         1 <0>         0.1446
     48 H17         1.2814    1.8860   -4.2621 H         1 <0>         0.1440
     49 H18         1.2078   -1.2467   -0.4442 H         1 <0>         0.1458
     50 H19        -3.1620    0.0599   -1.0363 H         1 <0>         0.1265
     51 H20        -2.1044    1.4775   -0.8139 H         1 <0>         0.0802
     52 H21        -2.4411   -0.1017   -3.4136 H         1 <0>         0.0823
     53 H22        -3.1465    1.5004   -3.0751 H         1 <0>         0.1262
     54 H23         6.1228   -1.2417   -0.1788 H         1 <0>         0.4170
     55 H24         6.7682   -2.7906   -0.0952 H         1 <0>         0.4066
@<TRIPOS>BOND
     1    1    2 1
     2    1   32 1
     3    1   33 1
     4    1   34 1
     5    2    3 1
     6    2   35 1
     7    2   36 1
     8    3   11 ar
     9    3    4 ar
    10    4    8 ar
    11    4    5 1
    12    5    6 2
    13    5   31 1
    14    6    7 1
    15    6   19 1
    16    7    8 1
    17    8    9 ar
    18    9   10 ar
    19   10   16 1
    20   10   11 ar
    21   11   12 1
    22   12   13 2
    23   12   14 1
    24   14   15 1
    25   14   37 1
    26   14   38 1
    27   15   16 1
    28   15   17 1
    29   15   18 1
    30   16   39 1
    31   16   40 1
    32   17   41 1
    33   17   42 1
    34   17   43 1
    35   18   44 1
    36   18   45 1
    37   18   46 1
    38   19   20 2
    39   19   21 1
    40   21   26 ar
    41   21   22 ar
    42   22   23 ar
    43   22   47 1
    44   23   24 ar
    45   23   48 1
    46   24   30 1
    47   24   25 ar
    48   25   26 ar
    49   25   27 1
    50   26   49 1
    51   27   28 1
    52   28   29 1
    53   28   50 1
    54   28   51 1
    55   29   30 1
    56   29   52 1
    57   29   53 1
    58   31   54 1
    59   31   55 1
@<TRIPOS>MOLECULE
ZINC00898879
   52    56     0     0     0
SMALL
USER_CHARGES
(4R)-6-amino-4-(2-chloro-6,8-dimethyl-3-quinolyl)-3-methyl-1-phenyl-4H-pyrano[5,6-d]pyrazole-5-carbonitrile
@<TRIPOS>ATOM
      1 C1          3.2378    2.6836   -7.3669 C.3       1 <0>        -0.1186
      2 C2          3.3766    1.8791   -6.1002 C.ar      1 <0>        -0.0691
      3 C3          3.8733    0.5787   -6.1625 C.ar      1 <0>        -0.1022
      4 C4          4.0113   -0.1750   -5.0378 C.ar      1 <0>        -0.0495
      5 C5          3.6486    0.3612   -3.7898 C.ar      1 <0>         0.1376
      6 C6          3.1437    1.6837   -3.7290 C.ar      1 <0>        -0.0874
      7 C7          3.0145    2.4322   -4.9100 C.ar      1 <0>        -0.1074
      8 C8          2.7808    2.2195   -2.4788 C.ar      1 <0>        -0.0268
      9 C9          2.9329    1.4344   -1.3722 C.ar      1 <0>        -0.1125
     10 C10         3.4414    0.1421   -1.5005 C.ar      1 <0>         0.2095
     11 N1          3.7728   -0.3559   -2.6685 N.ar      1 <0>        -0.4548
     12 Cl1         3.6336   -0.8359   -0.0791 Cl        1 <0>        -0.0213
     13 C11         2.5575    1.9657   -0.0128 C.3       1 <0>         0.1195
     14 H1          2.7560    1.2090    0.7462 H         1 <0>         0.1109
     15 C12         1.0957    2.3317    0.0041 C.2       1 <0>        -0.2569
     16 C13        -0.0184    1.5028    0.0103 C.2       1 <0>         0.1277
     17 N2         -1.0920    2.2572    0.0189 N.2       1 <0>        -0.2573
     18 N3         -0.6902    3.6022    0.0272 N.pl3     1 <0>        -0.2978
     19 C14         0.6604    3.6276    0.0155 C.2       1 <0>         0.2761
     20 O1          1.5084    4.6856    0.0150 O.3       1 <0>        -0.2249
     21 C15         2.8084    4.4437    0.2799 C.2       1 <0>         0.4402
     22 C16         3.3577    3.2089    0.2853 C.2       1 <0>        -0.2594
     23 C17         4.7516    3.0759    0.5854 C.1       1 <0>         0.2665
     24 N4          5.8574    2.9704    0.8235 N.1       1 <0>        -0.4288
     25 N5          3.6211    5.5140    0.5599 N.pl3     1 <0>        -0.8280
     26 C18        -1.5379    4.7184    0.0399 C.ar      1 <0>         0.1400
     27 C19        -1.1715    5.8623    0.7363 C.ar      1 <0>        -0.1207
     28 C20        -2.0069    6.9622    0.7430 C.ar      1 <0>        -0.0981
     29 C21        -3.2119    6.9212    0.0659 C.ar      1 <0>        -0.1142
     30 C22        -3.5820    5.7814   -0.6242 C.ar      1 <0>        -0.1004
     31 C23        -2.7485    4.6802   -0.6390 C.ar      1 <0>        -0.1018
     32 C24         0.0021   -0.0041    0.0020 C.3       1 <0>        -0.0822
     33 C25         4.5504   -1.5792   -5.1298 C.3       1 <0>        -0.1113
     34 H2          2.2494    2.5187   -7.7957 H         1 <0>         0.0753
     35 H3          3.3636    3.7424   -7.1405 H         1 <0>         0.0691
     36 H4          4.0002    2.3717   -8.0808 H         1 <0>         0.0709
     37 H5          4.1530    0.1621   -7.1188 H         1 <0>         0.1331
     38 H6          2.6308    3.4411   -4.8743 H         1 <0>         0.1304
     39 H7          2.3931    3.2242   -2.3972 H         1 <0>         0.1387
     40 H8          3.2558    6.4126    0.5632 H         1 <0>         0.4124
     41 H9          4.5607    5.3718    0.7544 H         1 <0>         0.4291
     42 H10        -0.2326    5.8934    1.2689 H         1 <0>         0.1289
     43 H11        -1.7204    7.8539    1.2808 H         1 <0>         0.1350
     44 H12        -3.8651    7.7811    0.0758 H         1 <0>         0.1323
     45 H13        -4.5235    5.7525   -1.1523 H         1 <0>         0.1358
     46 H14        -3.0382    3.7902   -1.1778 H         1 <0>         0.1371
     47 H15         0.0168   -0.3729    1.0276 H         1 <0>         0.0903
     48 H16        -0.8878   -0.3767   -0.5053 H         1 <0>         0.0825
     49 H17         0.8920   -0.3525   -0.5222 H         1 <0>         0.0806
     50 H18         3.7253   -2.2764   -5.2756 H         1 <0>         0.0748
     51 H19         5.2387   -1.6497   -5.9721 H         1 <0>         0.0677
     52 H20         5.0772   -1.8273   -4.2084 H         1 <0>         0.0796
@<TRIPOS>BOND
     1    1    2 1
     2    1   34 1
     3    1   35 1
     4    1   36 1
     5    2    7 ar
     6    2    3 ar
     7    3    4 ar
     8    3   37 1
     9    4    5 ar
    10    4   33 1
    11    5   11 ar
    12    5    6 ar
    13    6    7 ar
    14    6    8 ar
    15    7   38 1
    16    8    9 ar
    17    8   39 1
    18    9   10 ar
    19    9   13 1
    20   10   11 ar
    21   10   12 1
    22   13   14 1
    23   13   22 1
    24   13   15 1
    25   15   19 2
    26   15   16 1
    27   16   17 2
    28   16   32 1
    29   17   18 1
    30   18   19 1
    31   18   26 1
    32   19   20 1
    33   20   21 1
    34   21   22 2
    35   21   25 1
    36   22   23 1
    37   23   24 3
    38   25   40 1
    39   25   41 1
    40   26   31 ar
    41   26   27 ar
    42   27   28 ar
    43   27   42 1
    44   28   29 ar
    45   28   43 1
    46   29   30 ar
    47   29   44 1
    48   30   31 ar
    49   30   45 1
    50   31   46 1
    51   32   47 1
    52   32   48 1
    53   32   49 1
    54   33   50 1
    55   33   51 1
    56   33   52 1
@<TRIPOS>MOLECULE
ZINC21254741
   52    56     0     0     0
SMALL
USER_CHARGES
(6S,9S)-9-(4-fluorophenyl)-6-(2-nitrophenyl)-5,6,8,9,10,11-hexahydrobenzo[c][1,5]benzodiazepin-7-one
@<TRIPOS>ATOM
      1 C1         -0.8208    2.4140   -1.1183 C.ar      1 <0>        -0.0674
      2 C2         -1.3109    1.9399    0.0844 C.ar      1 <0>        -0.1210
      3 C3         -0.5230    1.9883    1.2190 C.ar      1 <0>        -0.0576
      4 C4          0.7590    2.5012    1.1489 C.ar      1 <0>        -0.0297
      5 C5          1.2508    2.9703   -0.0545 C.ar      1 <0>        -0.0020
      6 C6          0.4608    2.9268   -1.1883 C.ar      1 <0>        -0.1092
      7 C7          2.6484    3.5289   -0.1310 C.3       1 <0>         0.2737
      8 H1          3.3821    2.9616    0.4605 H         1 <0>         0.1206
      9 C8          3.0962    3.5037   -1.5732 C.2       1 <0>        -0.3150
     10 C9          3.2688    4.5708   -2.3667 C.2       1 <0>         0.2784
     11 C10         3.6894    4.3930   -3.8165 C.3       1 <0>        -0.1029
     12 C11         4.6039    3.1762   -3.9469 C.3       1 <0>        -0.0376
     13 H2          5.5220    3.3123   -3.3565 H         1 <0>         0.0952
     14 C12         3.8190    1.9490   -3.4688 C.3       1 <0>        -0.1608
     15 C13         3.3466    2.1990   -2.0682 C.2       1 <0>         0.3989
     16 O1          3.1714    1.2487   -1.3310 O.2       1 <0>        -0.4734
     17 C14         5.0105    2.9949   -5.3867 C.ar      1 <0>        -0.0933
     18 C15         4.0469    2.7820   -6.3549 C.ar      1 <0>        -0.0855
     19 C16         4.4182    2.6203   -7.6762 C.ar      1 <0>        -0.1504
     20 C17         5.7566    2.6612   -8.0286 C.ar      1 <0>         0.0989
     21 C18         6.7211    2.8693   -7.0573 C.ar      1 <0>        -0.1501
     22 C19         6.3471    3.0359   -5.7374 C.ar      1 <0>        -0.0816
     23 F1          6.1211    2.4987   -9.3193 F         1 <0>        -0.1384
     24 N1          3.0802    5.8595   -1.9852 N.pl3     1 <0>        -0.6948
     25 C20         1.9749    6.3236   -1.2809 C.ar      1 <0>         0.1167
     26 C21         1.1120    7.2715   -1.8027 C.ar      1 <0>        -0.1140
     27 C22         0.0936    7.7720   -1.0093 C.ar      1 <0>        -0.1230
     28 C23        -0.0599    7.3276    0.2913 C.ar      1 <0>        -0.1071
     29 C24         0.7894    6.3641    0.8073 C.ar      1 <0>        -0.1314
     30 C25         1.7991    5.8489    0.0102 C.ar      1 <0>         0.1687
     31 N2          2.6501    4.8458    0.4704 N.pl3     1 <0>        -0.7694
     32 N3          1.6050    2.5474    2.3627 N.pl3     1 <0>         0.0377
     33 O2          1.2143    2.0367    3.3971 O.2       1 <0>        -0.1738
     34 O3          2.6918    3.0960    2.3269 O.3       1 <0>        -0.1529
     35 H3         -1.4378    2.3797   -2.0040 H         1 <0>         0.1396
     36 H4         -2.3107    1.5351    0.1382 H         1 <0>         0.1458
     37 H5         -0.9072    1.6214    2.1593 H         1 <0>         0.1514
     38 H6          0.8452    3.2930   -2.1287 H         1 <0>         0.1349
     39 H7          2.7966    4.2446   -4.4417 H         1 <0>         0.0980
     40 H8          4.2287    5.2902   -4.1545 H         1 <0>         0.0908
     41 H9          2.9563    1.7847   -4.1312 H         1 <0>         0.1020
     42 H10         4.4723    1.0643   -3.4913 H         1 <0>         0.1010
     43 H11         3.0033    2.7460   -6.0792 H         1 <0>         0.1316
     44 H12         3.6650    2.4581   -8.4330 H         1 <0>         0.1365
     45 H13         7.7654    2.9010   -7.3310 H         1 <0>         0.1373
     46 H14         7.0992    3.1986   -4.9796 H         1 <0>         0.1347
     47 H15         3.8335    6.6221   -2.2321 H         1 <0>         0.4297
     48 H16         1.2316    7.6172   -2.8189 H         1 <0>         0.1257
     49 H17        -0.5837    8.5129   -1.4077 H         1 <0>         0.1251
     50 H18        -0.8475    7.7345    0.9081 H         1 <0>         0.1225
     51 H19         0.6664    6.0171    1.8226 H         1 <0>         0.1185
     52 H20         3.3309    5.0683    1.3052 H         1 <0>         0.4282
@<TRIPOS>BOND
     1    1    6 ar
     2    1    2 ar
     3    1   35 1
     4    2    3 ar
     5    2   36 1
     6    3    4 ar
     7    3   37 1
     8    4    5 ar
     9    4   32 1
    10    5    6 ar
    11    5    7 1
    12    6   38 1
    13    7    8 1
    14    7   31 1
    15    7    9 1
    16    9   15 1
    17    9   10 2
    18   10   11 1
    19   10   24 1
    20   11   12 1
    21   11   39 1
    22   11   40 1
    23   12   13 1
    24   12   14 1
    25   12   17 1
    26   14   15 1
    27   14   41 1
    28   14   42 1
    29   15   16 2
    30   17   22 ar
    31   17   18 ar
    32   18   19 ar
    33   18   43 1
    34   19   20 ar
    35   19   44 1
    36   20   21 ar
    37   20   23 1
    38   21   22 ar
    39   21   45 1
    40   22   46 1
    41   24   25 1
    42   24   47 1
    43   25   30 ar
    44   25   26 ar
    45   26   27 ar
    46   26   48 1
    47   27   28 ar
    48   27   49 1
    49   28   29 ar
    50   28   50 1
    51   29   30 ar
    52   29   51 1
    53   30   31 1
    54   31   52 1
    55   32   33 2
    56   32   34 1
@<TRIPOS>MOLECULE
ZINC39573894
   37    39     0     0     0
SMALL
USER_CHARGES

@<TRIPOS>ATOM
      1 C1         -0.0168    1.3894    0.0097 C.ar      1 <0>        -0.0776
      2 C2          1.1701    2.0932    0.0021 C.ar      1 <0>        -0.0899
      3 C3          2.3780    1.4175   -0.0135 C.ar      1 <0>        -0.0797
      4 C4          2.4023    0.0335   -0.0212 C.ar      1 <0>        -0.0904
      5 C5          1.2209   -0.6796   -0.0137 C.ar      1 <0>        -0.0941
      6 C6          0.0021   -0.0041    0.0020 C.ar      1 <0>        -0.0206
      7 C7         -1.2711   -0.7658    0.0106 C.2       1 <0>         0.0212
      8 C8         -1.3626   -2.1097    0.0096 C.2       1 <0>        -0.1442
      9 C9         -2.8580   -2.3724    0.0204 C.3       1 <0>        -0.0579
     10 H1         -3.1464   -2.9182    0.9188 H         1 <0>         0.1784
     11 N1         -3.4366   -1.0186    0.0264 N.2       1 <0>        -0.1068
     12 N2         -2.5093   -0.2062    0.0264 N.2       1 <0>        -0.1421
     13 C10        -3.2746   -3.1276   -1.2154 C.2       1 <0>         0.5725
     14 O1         -3.7761   -2.5353   -2.1479 O.2       1 <0>        -0.4631
     15 N3         -3.0899   -4.4608   -1.2848 N.am      1 <0>        -0.5816
     16 N4         -3.4771   -5.1628   -2.4337 N.2       1 <0>        -0.1994
     17 C11        -3.2993   -6.4468   -2.5005 C.2       1 <0>         0.1104
     18 C12        -3.7067   -7.1852   -3.7091 C.ar      1 <0>        -0.0833
     19 C13        -3.5224   -8.5678   -3.7827 C.ar      1 <0>        -0.0441
     20 C14        -3.9064   -9.2531   -4.9170 C.ar      1 <0>        -0.1085
     21 C15        -4.4738   -8.5753   -5.9836 C.ar      1 <0>        -0.0549
     22 C16        -4.6607   -7.2073   -5.9224 C.ar      1 <0>        -0.1458
     23 C17        -4.2864   -6.5049   -4.7885 C.ar      1 <0>         0.1661
     24 O2         -4.4751   -5.1614   -4.7256 O.3       1 <0>        -0.4699
     25 Br1        -3.6567  -11.1250   -5.0163 Br        1 <0>        -0.0387
     26 Br2         4.0007    2.3884   -0.0250 Br        1 <0>        -0.0415
     27 H2         -0.9587    1.9175    0.0260 H         1 <0>         0.1463
     28 H3          1.1565    3.1731    0.0081 H         1 <0>         0.1410
     29 H4          3.3473   -0.4890   -0.0333 H         1 <0>         0.1398
     30 H5          1.2409   -1.7594   -0.0204 H         1 <0>         0.1337
     31 H6         -0.5596   -2.8319    0.0022 H         1 <0>         0.1830
     32 H7         -2.6889   -4.9343   -0.5392 H         1 <0>         0.3875
     33 H8         -2.8528   -6.9740   -1.6704 H         1 <0>         0.1269
     34 H9         -3.0797   -9.0995   -2.9534 H         1 <0>         0.1434
     35 H10        -4.7715   -9.1188   -6.8681 H         1 <0>         0.1415
     36 H11        -5.1033   -6.6857   -6.7581 H         1 <0>         0.1446
     37 H12        -3.7285   -4.6435   -5.0565 H         1 <0>         0.3976
@<TRIPOS>BOND
     1    1    6 ar
     2    1    2 ar
     3    1   27 1
     4    2    3 ar
     5    2   28 1
     6    3    4 ar
     7    3   26 1
     8    4    5 ar
     9    4   29 1
    10    5    6 ar
    11    5   30 1
    12    6    7 1
    13    7   12 1
    14    7    8 2
    15    8    9 1
    16    8   31 1
    17    9   10 1
    18    9   11 1
    19    9   13 1
    20   11   12 2
    21   13   14 2
    22   13   15 am
    23   15   16 1
    24   15   32 1
    25   16   17 2
    26   17   18 1
    27   17   33 1
    28   18   23 ar
    29   18   19 ar
    30   19   20 ar
    31   19   34 1
    32   20   21 ar
    33   20   25 1
    34   21   22 ar
    35   21   35 1
    36   22   23 ar
    37   22   36 1
    38   23   24 1
    39   24   37 1
@<TRIPOS>MOLECULE
ZINC15957569
   68    73     0     0     0
SMALL
USER_CHARGES

@<TRIPOS>ATOM
      1 C1         -0.0187    1.5258    0.0104 C.3       1 <0>        -0.1494
      2 C2          0.0021   -0.0041    0.0020 C.3       1 <0>        -0.0868
      3 C3         -1.4117   -0.5257    0.0127 C.ar      1 <0>        -0.1011
      4 C4         -2.0114   -0.8626    1.2088 C.ar      1 <0>        -0.0710
      5 C5         -3.3081   -1.3420    1.2290 C.ar      1 <0>        -0.1368
      6 C6         -4.0082   -1.4847    0.0437 C.ar      1 <0>        -0.0580
      7 C7         -3.4141   -1.1493   -1.1519 C.ar      1 <0>        -0.1774
      8 C8         -2.1108   -0.6608   -1.1841 C.ar      1 <0>         0.1655
      9 N1         -1.7300   -0.3870   -2.4996 N.am      1 <0>        -0.6613
     10 C9         -2.7125   -0.6596   -3.3799 C.2       1 <0>         0.5453
     11 O1         -2.6651   -0.5203   -4.5839 O.2       1 <0>        -0.4506
     12 C10        -3.8757   -1.1807   -2.5812 C.3       1 <0>         0.1245
     13 C11        -4.2776   -2.5967   -3.0119 C.3       1 <0>        -0.1079
     14 H1         -3.7898   -3.3700   -2.4184 H         1 <0>         0.1422
     15 C12        -5.8260   -2.6206   -2.8793 C.3       1 <0>        -0.1252
     16 H2         -6.1823   -3.4211   -2.2309 H         1 <0>         0.1425
     17 C13        -6.2008   -1.2194   -2.3525 C.3       1 <0>         0.0881
     18 H3         -6.2975   -1.2358   -1.2669 H         1 <0>         0.0834
     19 N2         -5.0716   -0.3417   -2.7825 N.3       1 <0>        -0.6200
     20 C14        -7.5043   -0.7404   -2.9947 C.3       1 <0>        -0.0705
     21 C15        -7.9160    0.5714   -2.3776 C.ar      1 <0>        -0.0843
     22 C16        -8.7269    0.5843   -1.2582 C.ar      1 <0>        -0.1172
     23 C17        -9.1045    1.7876   -0.6922 C.ar      1 <0>        -0.1191
     24 C18        -8.6708    2.9779   -1.2453 C.ar      1 <0>        -0.1225
     25 C19        -7.8592    2.9649   -2.3642 C.ar      1 <0>        -0.1193
     26 C20        -7.4780    1.7616   -2.9277 C.ar      1 <0>        -0.1085
     27 C21        -6.2964   -2.7758   -4.3074 C.2       1 <0>         0.5466
     28 O2         -7.4546   -2.8294   -4.6615 O.2       1 <0>        -0.4705
     29 N3         -5.2356   -2.8442   -5.1200 N.am      1 <0>        -0.5646
     30 C22        -4.0378   -2.7627   -4.4959 C.2       1 <0>         0.5413
     31 O3         -2.9499   -2.8112   -5.0284 O.2       1 <0>        -0.4494
     32 C23        -5.3582   -3.0016   -6.5713 C.3       1 <0>         0.1418
     33 C24        -6.0844   -1.7690   -7.1478 C.3       1 <0>        -0.1215
     34 C25        -5.7678   -1.6709   -8.6155 C.3       1 <0>        -0.1164
     35 C26        -6.8329   -2.3531   -9.4952 C.3       1 <0>        -0.1173
     36 C27        -7.3110   -3.6994   -8.9185 C.3       1 <0>        -0.1223
     37 C28        -6.1798   -4.5231   -8.3652 C.3       1 <0>        -0.1078
     38 C29        -6.0636   -4.2431   -6.8528 C.3       1 <0>        -0.1411
     39 H4          1.0039    1.9031    0.0027 H         1 <0>         0.0618
     40 H5         -0.5459    1.8868   -0.8726 H         1 <0>         0.0525
     41 H6         -0.5289    1.8773    0.9072 H         1 <0>         0.0595
     42 H7          0.5123   -0.3556   -0.8948 H         1 <0>         0.0686
     43 H8          0.5293   -0.3651    0.8851 H         1 <0>         0.0799
     44 H9         -1.4651   -0.7516    2.1338 H         1 <0>         0.1334
     45 H10        -3.7734   -1.6049    2.1675 H         1 <0>         0.1332
     46 H11        -5.0212   -1.8590    0.0568 H         1 <0>         0.1276
     47 H12        -0.8592   -0.0409   -2.7502 H         1 <0>         0.4164
     48 H13        -5.0294    0.4905   -2.2134 H         1 <0>         0.3573
     49 H14        -7.3538   -0.6067   -4.0660 H         1 <0>         0.0863
     50 H15        -8.2856   -1.4818   -2.8274 H         1 <0>         0.0926
     51 H16        -9.0657   -0.3457   -0.8261 H         1 <0>         0.1208
     52 H17        -9.7386    1.7977    0.1820 H         1 <0>         0.1206
     53 H18        -8.9664    3.9180   -0.8034 H         1 <0>         0.1196
     54 H19        -7.5206    3.8949   -2.7965 H         1 <0>         0.1201
     55 H20        -6.8409    1.7514   -3.7996 H         1 <0>         0.1238
     56 H21        -4.3600   -3.0565   -7.0056 H         1 <0>         0.0981
     57 H22        -7.1601   -1.8811   -7.0119 H         1 <0>         0.0808
     58 H23        -5.7399   -0.8694   -6.6379 H         1 <0>         0.0702
     59 H24        -5.7026   -0.6187   -8.8927 H         1 <0>         0.0645
     60 H25        -4.8027   -2.1427   -8.8004 H         1 <0>         0.0620
     61 H26        -7.6903   -1.6867   -9.5895 H         1 <0>         0.0600
     62 H27        -6.4130   -2.5245  -10.4863 H         1 <0>         0.0600
     63 H28        -8.0294   -3.5065   -8.1217 H         1 <0>         0.0647
     64 H29        -7.8061   -4.2652   -9.7077 H         1 <0>         0.0605
     65 H30        -6.3844   -5.5815   -8.5270 H         1 <0>         0.0688
     66 H31        -5.2492   -4.2472   -8.8612 H         1 <0>         0.0679
     67 H32        -5.5289   -5.0677   -6.3813 H         1 <0>         0.0612
     68 H33        -7.0651   -4.1846   -6.4267 H         1 <0>         0.0837
@<TRIPOS>BOND
     1    1    2 1
     2    1   39 1
     3    1   40 1
     4    1   41 1
     5    2    3 1
     6    2   42 1
     7    2   43 1
     8    3    8 ar
     9    3    4 ar
    10    4    5 ar
    11    4   44 1
    12    5    6 ar
    13    5   45 1
    14    6    7 ar
    15    6   46 1
    16    7   12 1
    17    7    8 ar
    18    8    9 1
    19    9   10 am
    20    9   47 1
    21   10   11 2
    22   10   12 1
    23   12   19 1
    24   12   13 1
    25   13   14 1
    26   13   30 1
    27   13   15 1
    28   15   16 1
    29   15   17 1
    30   15   27 1
    31   17   18 1
    32   17   19 1
    33   17   20 1
    34   19   48 1
    35   20   21 1
    36   20   49 1
    37   20   50 1
    38   21   26 ar
    39   21   22 ar
    40   22   23 ar
    41   22   51 1
    42   23   24 ar
    43   23   52 1
    44   24   25 ar
    45   24   53 1
    46   25   26 ar
    47   25   54 1
    48   26   55 1
    49   27   28 2
    50   27   29 am
    51   29   30 am
    52   29   32 1
    53   30   31 2
    54   32   38 1
    55   32   33 1
    56   32   56 1
    57   33   34 1
    58   33   57 1
    59   33   58 1
    60   34   35 1
    61   34   59 1
    62   34   60 1
    63   35   36 1
    64   35   61 1
    65   35   62 1
    66   36   37 1
    67   36   63 1
    68   36   64 1
    69   37   38 1
    70   37   65 1
    71   37   66 1
    72   38   67 1
    73   38   68 1
@<TRIPOS>MOLECULE
ZINC04121319
   39    42     0     0     0
SMALL
USER_CHARGES
N'-(4-methoxybenzothiazol-2-yl)-2-oxo-chromene-3-carbohydrazide
@<TRIPOS>ATOM
      1 C1          2.6128    3.9965   -0.0019 C.3       1 <0>         0.0220
      2 O1          1.3104    3.4085    0.0074 O.3       1 <0>        -0.2993
      3 C2          1.2461    2.0506    0.0012 C.ar      1 <0>         0.1723
      4 C3          2.4075    1.3139   -0.0140 C.ar      1 <0>        -0.1996
      5 C4          2.3843   -0.0727   -0.0212 C.ar      1 <0>        -0.0666
      6 C5          1.1677   -0.7304   -0.0131 C.ar      1 <0>        -0.0945
      7 C6          0.0021   -0.0041    0.0020 C.ar      1 <0>        -0.1173
      8 C7         -0.0171    1.4076    0.0098 C.ar      1 <0>         0.0979
      9 N1         -1.2433    1.9773    0.0299 N.2       1 <0>        -0.5459
     10 C8         -2.3491    1.2694    0.0322 C.2       1 <0>         0.4001
     11 S1         -1.7284   -0.4065    0.0170 S.3       1 <0>        -0.0157
     12 N2         -3.6585    1.7081    0.0475 N.pl3     1 <0>        -0.4632
     13 N3         -4.7082    0.7802    0.0525 N.am      1 <0>        -0.5151
     14 C9         -5.9860    1.2083    0.0674 C.2       1 <0>         0.5768
     15 O2         -6.2280    2.4002    0.0767 O.2       1 <0>        -0.4870
     16 C10        -7.0894    0.2330    0.0726 C.2       1 <0>        -0.2507
     17 C11        -6.8282   -1.1262    0.0565 C.2       1 <0>         0.0543
     18 C12        -7.9208   -2.0299    0.0683 C.ar      1 <0>        -0.1752
     19 C13        -7.6921   -3.4142    0.0585 C.ar      1 <0>        -0.0408
     20 C14        -8.7488   -4.2780    0.0640 C.ar      1 <0>        -0.1448
     21 C15       -10.0510   -3.7972    0.0786 C.ar      1 <0>        -0.0416
     22 C16       -10.2990   -2.4412    0.0888 C.ar      1 <0>        -0.1404
     23 C17        -9.2393   -1.5405    0.0836 C.ar      1 <0>         0.1681
     24 O3         -9.4849   -0.2129    0.0936 O.3       1 <0>        -0.2580
     25 C18        -8.4853    0.6846    0.0889 C.2       1 <0>         0.5250
     26 O4         -8.7381    1.8748    0.0978 O.2       1 <0>        -0.4106
     27 H1          3.1636    3.6731    0.8814 H         1 <0>         0.0583
     28 H2          3.1470    3.6821   -0.8985 H         1 <0>         0.0584
     29 H3          2.5212    5.0826    0.0045 H         1 <0>         0.1036
     30 H4          3.3582    1.8263   -0.0203 H         1 <0>         0.1403
     31 H5          3.3072   -0.6335   -0.0327 H         1 <0>         0.1423
     32 H6          1.1343   -1.8099   -0.0189 H         1 <0>         0.1360
     33 H7         -3.8515    2.6587    0.0549 H         1 <0>         0.4552
     34 H8         -4.5152   -0.1704    0.0451 H         1 <0>         0.4210
     35 H9         -5.8120   -1.4914    0.0398 H         1 <0>         0.1534
     36 H10        -6.6817   -3.7955    0.0464 H         1 <0>         0.1446
     37 H11        -8.5707   -5.3432    0.0565 H         1 <0>         0.1409
     38 H12       -10.8777   -4.4921    0.0824 H         1 <0>         0.1458
     39 H13       -11.3161   -2.0783    0.1009 H         1 <0>         0.1499
@<TRIPOS>BOND
     1    1    2 1
     2    1   27 1
     3    1   28 1
     4    1   29 1
     5    2    3 1
     6    3    8 ar
     7    3    4 ar
     8    4    5 ar
     9    4   30 1
    10    5    6 ar
    11    5   31 1
    12    6    7 ar
    13    6   32 1
    14    7   11 1
    15    7    8 ar
    16    8    9 1
    17    9   10 2
    18   10   11 1
    19   10   12 1
    20   12   13 1
    21   12   33 1
    22   13   14 am
    23   13   34 1
    24   14   15 2
    25   14   16 1
    26   16   25 1
    27   16   17 2
    28   17   18 1
    29   17   35 1
    30   18   23 ar
    31   18   19 ar
    32   19   20 ar
    33   19   36 1
    34   20   21 ar
    35   20   37 1
    36   21   22 ar
    37   21   38 1
    38   22   23 ar
    39   22   39 1
    40   23   24 1
    41   24   25 1
    42   25   26 2
@<TRIPOS>MOLECULE
ZINC07018848
   48    50     0     0     0
SMALL
USER_CHARGES
2-[4-(4-chlorophenyl)-4-methyl-2,5-dioxo-imidazolidin-1-yl]-N-(1-cyanocyclohexyl)-acetamide
@<TRIPOS>ATOM
      1 C1          7.1017    0.4327    3.6093 C.3       1 <0>        -0.1452
      2 C2          5.5720    0.4514    3.6331 C.3       1 <0>         0.1704
      3 C3          5.0177    0.5378    2.2248 C.2       1 <0>         0.5414
      4 O1          5.1678   -0.2644    1.3283 O.2       1 <0>        -0.4527
      5 N1          4.3227    1.6915    2.1770 N.am      1 <0>        -0.5604
      6 C4          4.3645    2.3416    3.3456 C.2       1 <0>         0.7125
      7 O2          3.8159    3.4075    3.5457 O.2       1 <0>        -0.5326
      8 N2          5.0786    1.6819    4.2754 N.am      1 <0>        -0.7147
      9 C5          3.6141    2.1768    0.9901 C.3       1 <0>         0.0999
     10 C6          2.2003    1.6552    1.0008 C.2       1 <0>         0.5019
     11 O3          1.8219    0.9477    1.9103 O.2       1 <0>        -0.5072
     12 N3          1.3565    1.9749   -0.0003 N.am      1 <0>        -0.7189
     13 C7         -0.0179    1.4678    0.0101 C.3       1 <0>         0.2836
     14 C8         -0.7340    1.9612    1.2689 C.3       1 <0>        -0.1274
     15 C9         -2.1694    1.4316    1.2798 C.3       1 <0>        -0.1222
     16 C10        -2.9094    1.9384    0.0402 C.3       1 <0>        -0.1234
     17 C11        -2.1933    1.4450   -1.2186 C.3       1 <0>        -0.1213
     18 C12        -0.7579    1.9746   -1.2294 C.3       1 <0>        -0.1189
     19 C13         0.0021   -0.0041    0.0020 C.1       1 <0>         0.2031
     20 N4          0.0175   -1.1399   -0.0042 N.1       1 <0>        -0.4071
     21 C14         5.0363   -0.7671    4.3398 C.ar      1 <0>        -0.0936
     22 C15         4.7052   -1.8966    3.6148 C.ar      1 <0>        -0.0912
     23 C16         4.2192   -3.0163    4.2631 C.ar      1 <0>        -0.1032
     24 C17         4.0536   -3.0028    5.6366 C.ar      1 <0>        -0.0241
     25 C18         4.3799   -1.8701    6.3610 C.ar      1 <0>        -0.1082
     26 C19         4.8710   -0.7529    5.7122 C.ar      1 <0>        -0.0827
     27 Cl1         3.4371   -4.4066    6.4508 Cl        1 <0>        -0.0623
     28 H1          7.4687    1.3400    3.1294 H         1 <0>         0.0757
     29 H2          7.4803    0.3830    4.6302 H         1 <0>         0.0855
     30 H3          7.4457   -0.4381    3.0513 H         1 <0>         0.0887
     31 H4          5.2397    1.9630    5.1897 H         1 <0>         0.4420
     32 H5          4.1243    1.8253    0.0933 H         1 <0>         0.1305
     33 H6          3.5994    3.2667    0.9961 H         1 <0>         0.1356
     34 H7          1.6592    2.5407   -0.7277 H         1 <0>         0.4128
     35 H8         -0.2068    1.6001    2.1520 H         1 <0>         0.0918
     36 H9         -0.7488    3.0511    1.2749 H         1 <0>         0.0871
     37 H10        -2.6796    1.7831    2.1766 H         1 <0>         0.0757
     38 H11        -2.1546    0.3417    1.2738 H         1 <0>         0.0617
     39 H12        -2.9242    3.0283    0.0462 H         1 <0>         0.0706
     40 H13        -3.9320    1.5612    0.0480 H         1 <0>         0.0692
     41 H14        -2.7204    1.8061   -2.1016 H         1 <0>         0.0794
     42 H15        -2.1785    0.3551   -1.2245 H         1 <0>         0.0640
     43 H16        -0.7727    3.0645   -1.2234 H         1 <0>         0.0953
     44 H17        -0.2477    1.6231   -2.1262 H         1 <0>         0.0809
     45 H18         4.8304   -1.9055    2.5421 H         1 <0>         0.1471
     46 H19         3.9647   -3.9002    3.6971 H         1 <0>         0.1388
     47 H20         4.2504   -1.8588    7.4332 H         1 <0>         0.1397
     48 H21         5.1261    0.1312    6.2776 H         1 <0>         0.1326
@<TRIPOS>BOND
     1    1    2 1
     2    1   28 1
     3    1   29 1
     4    1   30 1
     5    2    8 1
     6    2    3 1
     7    2   21 1
     8    3    4 2
     9    3    5 am
    10    5    6 am
    11    5    9 1
    12    6    7 2
    13    6    8 am
    14    8   31 1
    15    9   10 1
    16    9   32 1
    17    9   33 1
    18   10   11 2
    19   10   12 am
    20   12   13 1
    21   12   34 1
    22   13   18 1
    23   13   14 1
    24   13   19 1
    25   14   15 1
    26   14   35 1
    27   14   36 1
    28   15   16 1
    29   15   37 1
    30   15   38 1
    31   16   17 1
    32   16   39 1
    33   16   40 1
    34   17   18 1
    35   17   41 1
    36   17   42 1
    37   18   43 1
    38   18   44 1
    39   19   20 3
    40   21   26 ar
    41   21   22 ar
    42   22   23 ar
    43   22   45 1
    44   23   24 ar
    45   23   46 1
    46   24   25 ar
    47   24   27 1
    48   25   26 ar
    49   25   47 1
    50   26   48 1
@<TRIPOS>MOLECULE
ZINC20530577
   41    44     0     0     0
SMALL
USER_CHARGES
5-[3-(o-tolyl)-1,2,4-oxadiazol-5-yl]-3-[2-(trifluoromethyl)phenyl]triazol-4-amine
@<TRIPOS>ATOM
      1 C1         -3.5326   10.1814   -0.2066 C.3       1 <0>        -0.1156
      2 C2         -2.2533   10.9701   -0.0953 C.ar      1 <0>        -0.0479
      3 C3         -2.2917   12.3498   -0.0680 C.ar      1 <0>        -0.1261
      4 C4         -1.1184   13.0748    0.0336 C.ar      1 <0>        -0.0935
      5 C5          0.0993   12.4226    0.1089 C.ar      1 <0>        -0.1298
      6 C6          0.1487   11.0436    0.0878 C.ar      1 <0>        -0.0678
      7 C7         -1.0299   10.3084   -0.0202 C.ar      1 <0>        -0.0330
      8 C8         -0.9824    8.8250   -0.0491 C.2       1 <0>         0.2292
      9 N1          0.1269    8.0602    0.0153 N.2       1 <0>        -0.4515
     10 C9         -0.3023    6.8100   -0.0434 C.2       1 <0>         0.2879
     11 O1         -1.6406    6.8635   -0.1460 O.3       1 <0>         0.0609
     12 N2         -2.0090    8.0188   -0.1419 N.2       1 <0>        -0.3719
     13 C10         0.5271    5.5952   -0.0092 C.2       1 <0>        -0.0729
     14 C11         0.0618    4.2897   -0.0718 C.2       1 <0>         0.4198
     15 N3          1.1626    3.4883   -0.0087 N.pl3     1 <0>        -0.3776
     16 N4          2.2733    4.3367    0.0973 N.2       1 <0>        -0.0434
     17 N5          1.8677    5.5575    0.0881 N.2       1 <0>        -0.1352
     18 C12         1.1801    2.0865   -0.0380 C.ar      1 <0>         0.1863
     19 C13         0.5150    1.4035   -1.0476 C.ar      1 <0>        -0.1265
     20 C14         0.5344    0.0229   -1.0741 C.ar      1 <0>        -0.0655
     21 C15         1.2157   -0.6794   -0.0967 C.ar      1 <0>        -0.1068
     22 C16         1.8788   -0.0021    0.9098 C.ar      1 <0>        -0.0541
     23 C17         1.8622    1.3789    0.9421 C.ar      1 <0>        -0.1658
     24 C18         2.5845    2.1164    2.0400 C.3       1 <0>         0.5049
     25 F1          3.1917    1.1947    2.8997 F         1 <0>        -0.1747
     26 F2          3.5620    2.9458    1.4799 F         1 <0>        -0.1502
     27 F3          1.6703    2.8932    2.7597 F         1 <0>        -0.1762
     28 N6         -1.2554    3.8828   -0.1764 N.pl3     1 <0>        -0.8390
     29 H1         -4.3867   10.8729   -0.2540 H         1 <0>         0.0675
     30 H2         -3.6381    9.5280    0.6720 H         1 <0>         0.0765
     31 H3         -3.5067    9.5676   -1.1191 H         1 <0>         0.0764
     32 H4         -3.2398   12.8639   -0.1258 H         1 <0>         0.1303
     33 H5         -1.1530   14.1541    0.0546 H         1 <0>         0.1287
     34 H6          1.0125   12.9936    0.1889 H         1 <0>         0.1315
     35 H7          1.0995   10.5354    0.1512 H         1 <0>         0.1376
     36 H8         -0.0132    1.9515   -1.8138 H         1 <0>         0.1449
     37 H9          0.0172   -0.5089   -1.8591 H         1 <0>         0.1489
     38 H10         1.2294   -1.7591   -0.1195 H         1 <0>         0.1482
     39 H11         2.4100   -0.5532    1.6717 H         1 <0>         0.1533
     40 H12        -1.4982    2.8107   -0.2177 H         1 <0>         0.4356
     41 H13        -2.0605    4.6311   -0.2183 H         1 <0>         0.4570
@<TRIPOS>BOND
     1    1    2 1
     2    1   29 1
     3    1   30 1
     4    1   31 1
     5    2    7 ar
     6    2    3 ar
     7    3    4 ar
     8    3   32 1
     9    4    5 ar
    10    4   33 1
    11    5    6 ar
    12    5   34 1
    13    6    7 ar
    14    6   35 1
    15    7    8 1
    16    8   12 2
    17    8    9 1
    18    9   10 2
    19   10   11 1
    20   10   13 1
    21   11   12 1
    22   13   17 1
    23   13   14 2
    24   14   15 1
    25   14   28 1
    26   15   16 1
    27   15   18 1
    28   16   17 2
    29   18   23 ar
    30   18   19 ar
    31   19   20 ar
    32   19   36 1
    33   20   21 ar
    34   20   37 1
    35   21   22 ar
    36   21   38 1
    37   22   23 ar
    38   22   39 1
    39   23   24 1
    40   24   25 1
    41   24   26 1
    42   24   27 1
    43   28   40 1
    44   28   41 1
@<TRIPOS>MOLECULE
ZINC47882485
   48    51     0     0     0
SMALL
USER_CHARGES

@<TRIPOS>ATOM
      1 C1         -0.0080    1.5244    0.0172 C.3       1 <0>        -0.0883
      2 C2          0.0207    0.0178   -0.0015 C.2       1 <0>        -0.1493
      3 C3          0.0387   -0.8488   -1.1860 C.ar      1 <0>        -0.1280
      4 C4          0.0356   -0.6204   -2.5613 C.ar      1 <0>        -0.0676
      5 C5          0.0565   -1.6807   -3.4245 C.ar      1 <0>        -0.1354
      6 C6          0.0806   -2.9806   -2.9401 C.ar      1 <0>        -0.0899
      7 C7          0.0840   -3.2259   -1.5836 C.ar      1 <0>        -0.1078
      8 C8          0.0631   -2.1628   -0.6893 C.ar      1 <0>         0.0581
      9 O1          0.0600   -2.0823    0.6564 O.3       1 <0>        -0.1878
     10 C9          0.0409   -0.7999    1.0599 C.2       1 <0>         0.0119
     11 C10         0.0384   -0.3477    2.4974 C.3       1 <0>         0.2456
     12 H1          0.2843    0.7131    2.5451 H         1 <0>         0.1232
     13 C11        -1.3483   -0.5774    3.1019 C.3       1 <0>        -0.1672
     14 N1          1.0331   -1.1139    3.2522 N.am      1 <0>        -0.7335
     15 C12         1.5767   -0.5948    4.3708 C.2       1 <0>         0.7109
     16 O2          1.2416    0.5095    4.7536 O.2       1 <0>        -0.5686
     17 N2          2.4919   -1.2997    5.0651 N.am      1 <0>        -0.6750
     18 C13         3.1404   -0.7179    6.1561 C.ar      1 <0>         0.2290
     19 C14         3.2686    0.6611    6.2363 C.ar      1 <0>        -0.1373
     20 C15         3.9105    1.2350    7.3164 C.ar      1 <0>        -0.0643
     21 C16         4.4294    0.4410    8.3252 C.ar      1 <0>        -0.1438
     22 C17         4.3107   -0.9315    8.2611 C.ar      1 <0>        -0.0576
     23 C18         3.6599   -1.5242    7.1782 C.ar      1 <0>        -0.0767
     24 C19         3.5246   -2.9932    7.1065 C.2       1 <0>         0.2260
     25 N3          2.9487   -3.6763    6.1444 N.2       1 <0>        -0.3022
     26 N4          3.0170   -4.9320    6.4164 N.2       1 <0>        -0.2803
     27 C20         3.6336   -5.0992    7.5525 C.2       1 <0>         0.1669
     28 O3          3.9744   -3.8831    8.0139 O.3       1 <0>        -0.2174
     29 C21         3.9183   -6.4177    8.2246 C.3       1 <0>        -0.0601
     30 H2          1.0125    1.9073    0.0173 H         1 <0>         0.0739
     31 H3         -0.5327    1.8888   -0.8660 H         1 <0>         0.0725
     32 H4         -0.5247    1.8668    0.9138 H         1 <0>         0.0723
     33 H5          0.0165    0.3896   -2.9432 H         1 <0>         0.1279
     34 H6          0.0537   -1.5051   -4.4901 H         1 <0>         0.1309
     35 H7          0.0965   -3.8089   -3.6330 H         1 <0>         0.1366
     36 H8          0.1026   -4.2416   -1.2171 H         1 <0>         0.1333
     37 H9         -1.3501   -0.2504    4.1416 H         1 <0>         0.0763
     38 H10        -2.0884   -0.0073    2.5404 H         1 <0>         0.0748
     39 H11        -1.5942   -1.6382    3.0542 H         1 <0>         0.0650
     40 H12         1.3005   -1.9949    2.9467 H         1 <0>         0.4063
     41 H13         2.6999   -2.2113    4.8069 H         1 <0>         0.4226
     42 H14         2.8663    1.2866    5.4531 H         1 <0>         0.1604
     43 H15         4.0086    2.3090    7.3742 H         1 <0>         0.1362
     44 H16         4.9297    0.8987    9.1658 H         1 <0>         0.1353
     45 H17         4.7173   -1.5468    9.0502 H         1 <0>         0.1356
     46 H18         4.8852   -6.7942    7.8909 H         1 <0>         0.1019
     47 H19         3.9361   -6.2781    9.3055 H         1 <0>         0.0954
     48 H20         3.1395   -7.1342    7.9635 H         1 <0>         0.1093
@<TRIPOS>BOND
     1    1    2 1
     2    1   30 1
     3    1   31 1
     4    1   32 1
     5    2   10 2
     6    2    3 1
     7    3    8 ar
     8    3    4 ar
     9    4    5 ar
    10    4   33 1
    11    5    6 ar
    12    5   34 1
    13    6    7 ar
    14    6   35 1
    15    7    8 ar
    16    7   36 1
    17    8    9 1
    18    9   10 1
    19   10   11 1
    20   11   12 1
    21   11   13 1
    22   11   14 1
    23   13   37 1
    24   13   38 1
    25   13   39 1
    26   14   15 am
    27   14   40 1
    28   15   16 2
    29   15   17 am
    30   17   18 1
    31   17   41 1
    32   18   23 ar
    33   18   19 ar
    34   19   20 ar
    35   19   42 1
    36   20   21 ar
    37   20   43 1
    38   21   22 ar
    39   21   44 1
    40   22   23 ar
    41   22   45 1
    42   23   24 1
    43   24   28 1
    44   24   25 2
    45   25   26 1
    46   26   27 2
    47   27   28 1
    48   27   29 1
    49   29   46 1
    50   29   47 1
    51   29   48 1
@<TRIPOS>MOLECULE
ZINC04713141
   39    41     0     0     0
SMALL
USER_CHARGES

@<TRIPOS>ATOM
      1 C1         -0.0184    1.5028    0.0103 C.3       1 <0>        -0.0762
      2 C2          0.0021   -0.0041    0.0020 C.2       1 <0>         0.0992
      3 C3          0.0079   -0.8169   -1.1377 C.2       1 <0>        -0.2625
      4 C4          0.0273   -2.1065   -0.7304 C.2       1 <0>         0.1171
      5 N1          0.0335   -2.1083    0.6285 N.pl3     1 <0>        -0.3332
      6 N2          0.0230   -0.7750    1.0584 N.2       1 <0>        -0.2859
      7 C5          0.0525   -3.2374    1.4496 C.ar      1 <0>         0.4519
      8 C6          0.5582   -3.1605    2.7413 C.ar      1 <0>        -0.2752
      9 C7          0.5551   -4.3157    3.5212 C.ar      1 <0>         0.4729
     10 N3          0.0709   -5.4429    3.0032 N.ar      1 <0>        -0.5410
     11 C8         -0.3997   -5.4732    1.7733 C.ar      1 <0>         0.3661
     12 N4         -0.4184   -4.4007    1.0080 N.ar      1 <0>        -0.5715
     13 N5          1.0488   -4.2917    4.8158 N.pl3     1 <0>        -0.5562
     14 N6          1.0406   -5.4591    5.5904 N.2       1 <0>        -0.1791
     15 C9          1.5031   -5.4367    6.8031 C.2       1 <0>         0.0892
     16 C10         1.4944   -6.6648    7.6180 C.ar      1 <0>        -0.0538
     17 C11         1.9859   -6.6434    8.9254 C.ar      1 <0>        -0.0645
     18 C12         1.9752   -7.7966    9.6834 C.ar      1 <0>        -0.0391
     19 C13         1.4790   -8.9762    9.1528 C.ar      1 <0>        -0.0743
     20 C14         0.9902   -9.0096    7.8593 C.ar      1 <0>        -0.0604
     21 C15         0.9879   -7.8583    7.0874 C.ar      1 <0>         0.1616
     22 O1          0.5018   -7.8887    5.8189 O.3       1 <0>        -0.4545
     23 Cl1         0.3714  -10.4935    7.2045 Cl        1 <0>        -0.0364
     24 Cl2         2.5862   -7.7691   11.3081 Cl        1 <0>        -0.0473
     25 C16         0.0393   -3.3213   -1.6221 C.3       1 <0>        -0.1073
     26 H1          1.0042    1.8801    0.0026 H         1 <0>         0.0830
     27 H2         -0.5455    1.8639   -0.8728 H         1 <0>         0.0837
     28 H3         -0.5286    1.8543    0.9071 H         1 <0>         0.0764
     29 H4         -0.0019   -0.4745   -2.1619 H         1 <0>         0.1583
     30 H5          0.9441   -2.2301    3.1309 H         1 <0>         0.1531
     31 H6         -0.7855   -6.4030    1.3823 H         1 <0>         0.2108
     32 H7          1.4002   -3.4667    5.1857 H         1 <0>         0.4013
     33 H8          1.8942   -4.5181    7.2150 H         1 <0>         0.1275
     34 H9          2.3741   -5.7258    9.3422 H         1 <0>         0.1498
     35 H10         1.4743   -9.8747    9.7521 H         1 <0>         0.1511
     36 H11         1.1649   -8.1038    5.1487 H         1 <0>         0.3978
     37 H12         1.0698   -3.6006   -1.8417 H         1 <0>         0.0778
     38 H13        -0.4614   -4.1475   -1.1173 H         1 <0>         0.1044
     39 H14        -0.4818   -3.0945   -2.5522 H         1 <0>         0.0854
@<TRIPOS>BOND
     1    1    2 1
     2    1   26 1
     3    1   27 1
     4    1   28 1
     5    2    6 2
     6    2    3 1
     7    3    4 2
     8    3   29 1
     9    4    5 1
    10    4   25 1
    11    5    6 1
    12    5    7 1
    13    7   12 ar
    14    7    8 ar
    15    8    9 ar
    16    8   30 1
    17    9   10 ar
    18    9   13 1
    19   10   11 ar
    20   11   12 ar
    21   11   31 1
    22   13   14 1
    23   13   32 1
    24   14   15 2
    25   15   16 1
    26   15   33 1
    27   16   21 ar
    28   16   17 ar
    29   17   18 ar
    30   17   34 1
    31   18   19 ar
    32   18   24 1
    33   19   20 ar
    34   19   35 1
    35   20   21 ar
    36   20   23 1
    37   21   22 1
    38   22   36 1
    39   25   37 1
    40   25   38 1
    41   25   39 1
@<TRIPOS>MOLECULE
ZINC67128285
   49    52     0     0     0
SMALL
USER_CHARGES

@<TRIPOS>ATOM
      1 C1         -0.2937    1.2730   -0.1829 C.3       1 <0>        -0.1810
      2 C2         -0.0341   -0.2285   -0.0449 C.3       1 <0>         0.0805
      3 H1         -0.9851   -0.7601   -0.0115 H         1 <0>         0.1064
      4 C3          0.7693   -0.7100   -1.2254 C.2       1 <0>         0.5196
      5 O1          1.8941   -1.1329   -1.0615 O.2       1 <0>        -0.5107
      6 N1          0.2379   -0.6707   -2.4634 N.am      1 <0>        -0.5158
      7 N2          0.9849   -1.1183   -3.5609 N.am      1 <0>        -0.5198
      8 C4          0.4535   -1.0789   -4.7988 C.2       1 <0>         0.5666
      9 O2         -0.6742   -0.6549   -4.9632 O.2       1 <0>        -0.5132
     10 C5          1.2401   -1.5503   -5.9546 C.ar      1 <0>        -0.1338
     11 C6          2.5345   -2.0437   -5.7684 C.ar      1 <0>        -0.0810
     12 C7          3.2654   -2.4829   -6.8502 C.ar      1 <0>        -0.1205
     13 C8          2.7248   -2.4373   -8.1244 C.ar      1 <0>        -0.0801
     14 C9          1.4430   -1.9504   -8.3256 C.ar      1 <0>         0.0406
     15 C10         0.6907   -1.5108   -7.2427 C.ar      1 <0>         0.1169
     16 O3         -0.5720   -1.0415   -7.4159 O.3       1 <0>        -0.2724
     17 C11        -0.9440   -0.6702   -8.7477 C.3       1 <0>         0.0145
     18 C12        -0.4905   -1.7838   -9.7013 C.3       1 <0>         0.0179
     19 O4          0.9339   -1.9116   -9.5877 O.3       1 <0>        -0.3028
     20 O5          0.6932   -0.4774    1.1597 O.3       1 <0>        -0.2831
     21 C13        -0.0305   -0.5997    2.3033 C.ar      1 <0>         0.1286
     22 C14        -1.4101   -0.3722    2.2745 C.ar      1 <0>        -0.1950
     23 C15        -2.1611   -0.4869    3.4023 C.ar      1 <0>        -0.0616
     24 C16        -1.5464   -0.8393    4.6166 C.ar      1 <0>        -0.0829
     25 C17        -2.2924   -0.9670    5.8006 C.ar      1 <0>        -0.0949
     26 C18        -1.6649   -1.3101    6.9586 C.ar      1 <0>        -0.1267
     27 C19        -0.2902   -1.5377    6.9898 C.ar      1 <0>        -0.1041
     28 C20         0.4645   -1.4234    5.8631 C.ar      1 <0>        -0.1143
     29 C21        -0.1483   -1.0707    4.6482 C.ar      1 <0>        -0.0133
     30 C22         0.5979   -0.9486    3.4645 C.ar      1 <0>        -0.1456
     31 H2          0.6574    1.8045   -0.2163 H         1 <0>         0.0800
     32 H3         -0.8484    1.4629   -1.1017 H         1 <0>         0.0819
     33 H4         -0.8748    1.6212    0.6710 H         1 <0>         0.0832
     34 H5         -0.6617   -0.3324   -2.5945 H         1 <0>         0.4337
     35 H6          1.8845   -1.4565   -3.4298 H         1 <0>         0.4319
     36 H7          2.9614   -2.0802   -4.7770 H         1 <0>         0.1369
     37 H8          4.2652   -2.8644   -6.7040 H         1 <0>         0.1437
     38 H9          3.3059   -2.7831   -8.9665 H         1 <0>         0.1433
     39 H10        -2.0260   -0.5528   -8.8078 H         1 <0>         0.1273
     40 H11        -0.4565    0.2665   -9.0179 H         1 <0>         0.0815
     41 H12        -0.9739   -2.7216   -9.4277 H         1 <0>         0.0821
     42 H13        -0.7525   -1.5197  -10.7259 H         1 <0>         0.1267
     43 H14        -1.8857   -0.1013    1.3434 H         1 <0>         0.1328
     44 H15        -3.2255   -0.3076    3.3655 H         1 <0>         0.1337
     45 H16        -3.3583   -0.7934    5.7918 H         1 <0>         0.1274
     46 H17        -2.2408   -1.4072    7.8670 H         1 <0>         0.1238
     47 H18         0.1832   -1.8084    7.9220 H         1 <0>         0.1248
     48 H19         1.5289   -1.6023    5.9024 H         1 <0>         0.1292
     49 H20         1.6632   -1.1261    3.4734 H         1 <0>         0.1374
@<TRIPOS>BOND
     1    1    2 1
     2    1   31 1
     3    1   32 1
     4    1   33 1
     5    2    3 1
     6    2    4 1
     7    2   20 1
     8    4    5 2
     9    4    6 am
    10    6    7 1
    11    6   34 1
    12    7    8 am
    13    7   35 1
    14    8    9 2
    15    8   10 1
    16   10   15 ar
    17   10   11 ar
    18   11   12 ar
    19   11   36 1
    20   12   13 ar
    21   12   37 1
    22   13   14 ar
    23   13   38 1
    24   14   19 1
    25   14   15 ar
    26   15   16 1
    27   16   17 1
    28   17   18 1
    29   17   39 1
    30   17   40 1
    31   18   19 1
    32   18   41 1
    33   18   42 1
    34   20   21 1
    35   21   30 ar
    36   21   22 ar
    37   22   23 ar
    38   22   43 1
    39   23   24 ar
    40   23   44 1
    41   24   29 ar
    42   24   25 ar
    43   25   26 ar
    44   25   45 1
    45   26   27 ar
    46   26   46 1
    47   27   28 ar
    48   27   47 1
    49   28   29 ar
    50   28   48 1
    51   29   30 ar
    52   30   49 1
@<TRIPOS>MOLECULE
ZINC10385966
   54    57     0     0     0
SMALL
USER_CHARGES
7-[3-(4-chlorophenoxy)-2-hydroxy-propyl]-1,3-dimethyl-8-pyrrolidin-1-yl-purine-2,6-dione
@<TRIPOS>ATOM
      1 C1          4.0576   -1.0215   -0.1160 C.3       1 <0>         0.0895
      2 N1          3.4360    0.3044   -0.0746 N.am      1 <0>        -0.5102
      3 C2          2.0557    0.4209   -0.0368 C.2       1 <0>         0.3319
      4 C3          1.4915    1.6914    0.0016 C.2       1 <0>        -0.1396
      5 C4          2.3339    2.8171    0.0010 C.2       1 <0>         0.6004
      6 O1          1.8614    3.9400    0.0347 O.2       1 <0>        -0.5166
      7 N2          3.6710    2.6411   -0.0364 N.am      1 <0>        -0.5506
      8 C5          4.2062    1.4087   -0.0738 C.2       1 <0>         0.7076
      9 O2          5.4158    1.2881   -0.1073 O.2       1 <0>        -0.5323
     10 C6          4.5529    3.8110   -0.0367 C.3       1 <0>         0.0829
     11 N3          0.1156    1.5073    0.0337 N.pl3     1 <0>        -0.3900
     12 C7         -0.1002    0.1653    0.0141 C.2       1 <0>         0.4552
     13 N4          1.0570   -0.4634   -0.0276 N.2       1 <0>        -0.5127
     14 N5         -1.3348   -0.4419    0.0338 N.pl3     1 <0>        -0.4527
     15 C8         -1.7609   -0.8263   -1.3361 C.3       1 <0>         0.0419
     16 C9         -2.8365   -1.9120   -1.0813 C.3       1 <0>        -0.1212
     17 C10        -2.2713   -2.6797    0.1358 C.3       1 <0>        -0.1299
     18 C11        -1.2946   -1.6993    0.8114 C.3       1 <0>         0.0441
     19 C12        -0.9061    2.5564    0.0744 C.3       1 <0>         0.0796
     20 C13        -1.3303    2.7992    1.5242 C.3       1 <0>         0.1018
     21 H1         -1.6549    1.8590    1.9701 H         1 <0>         0.1213
     22 C14        -2.4837    3.8040    1.5566 C.3       1 <0>         0.0306
     23 O3         -2.9569    3.9428    2.8978 O.3       1 <0>        -0.2966
     24 C15        -3.9878    4.8048    3.1023 C.ar      1 <0>         0.1350
     25 C16        -4.5285    5.5065    2.0348 C.ar      1 <0>        -0.1989
     26 C17        -5.5794    6.3785    2.2439 C.ar      1 <0>        -0.0684
     27 C18        -6.0857    6.5601    3.5188 C.ar      1 <0>        -0.0732
     28 C19        -5.5442    5.8649    4.5856 C.ar      1 <0>        -0.0686
     29 C20        -4.4968    4.9881    4.3797 C.ar      1 <0>        -0.1373
     30 Cl1        -7.4023    7.6609    3.7800 Cl        1 <0>        -0.0683
     31 O4         -0.2239    3.3201    2.2634 O.3       1 <0>        -0.5406
     32 H2          4.1853   -1.3307   -1.1534 H         1 <0>         0.0732
     33 H3          5.0306   -0.9821    0.3738 H         1 <0>         0.0945
     34 H4          3.4195   -1.7383    0.4008 H         1 <0>         0.0909
     35 H5          5.5918    3.4828   -0.0698 H         1 <0>         0.1053
     36 H6          4.3386    4.4273   -0.9098 H         1 <0>         0.0814
     37 H7          4.3844    4.3932    0.8692 H         1 <0>         0.0825
     38 H8         -2.1923    0.0274   -1.8587 H         1 <0>         0.0888
     39 H9         -0.9230   -1.2393   -1.8979 H         1 <0>         0.0651
     40 H10        -2.9305   -2.5718   -1.9438 H         1 <0>         0.0825
     41 H11        -3.7956   -1.4550   -0.8376 H         1 <0>         0.0807
     42 H12        -1.7423   -3.5740   -0.1935 H         1 <0>         0.0761
     43 H13        -3.0753   -2.9457    0.8219 H         1 <0>         0.0800
     44 H14        -0.2858   -2.1120    0.7982 H         1 <0>         0.0807
     45 H15        -1.6049   -1.5105    1.8391 H         1 <0>         0.0885
     46 H16        -0.4986    3.4768   -0.3440 H         1 <0>         0.1142
     47 H17        -1.7715    2.2437   -0.5099 H         1 <0>         0.1131
     48 H18        -2.1342    4.7702    1.1928 H         1 <0>         0.0729
     49 H19        -3.2940    3.4477    0.9205 H         1 <0>         0.0785
     50 H20        -4.1309    5.3681    1.0403 H         1 <0>         0.1358
     51 H21        -6.0033    6.9220    1.4125 H         1 <0>         0.1369
     52 H22        -5.9410    6.0077    5.5799 H         1 <0>         0.1418
     53 H23        -4.0746    4.4455    5.2126 H         1 <0>         0.1418
     54 H24         0.1178    4.1579    1.9220 H         1 <0>         0.3809
@<TRIPOS>BOND
     1    1    2 1
     2    1   32 1
     3    1   33 1
     4    1   34 1
     5    2    8 am
     6    2    3 1
     7    3   13 1
     8    3    4 2
     9    4    5 1
    10    4   11 1
    11    5    6 2
    12    5    7 am
    13    7    8 am
    14    7   10 1
    15    8    9 2
    16   10   35 1
    17   10   36 1
    18   10   37 1
    19   11   12 1
    20   11   19 1
    21   12   13 2
    22   12   14 1
    23   14   18 1
    24   14   15 1
    25   15   16 1
    26   15   38 1
    27   15   39 1
    28   16   17 1
    29   16   40 1
    30   16   41 1
    31   17   18 1
    32   17   42 1
    33   17   43 1
    34   18   44 1
    35   18   45 1
    36   19   20 1
    37   19   46 1
    38   19   47 1
    39   20   21 1
    40   20   22 1
    41   20   31 1
    42   22   23 1
    43   22   48 1
    44   22   49 1
    45   23   24 1
    46   24   29 ar
    47   24   25 ar
    48   25   26 ar
    49   25   50 1
    50   26   27 ar
    51   26   51 1
    52   27   28 ar
    53   27   30 1
    54   28   29 ar
    55   28   52 1
    56   29   53 1
    57   31   54 1
@<TRIPOS>MOLECULE
ZINC16322825
   53    57     0     0     0
SMALL
USER_CHARGES
N-[(1S)-1-(2,3-dihydro-1,4-benzodioxin-6-yl)ethyl]-2-[(4-methyl-5-oxo-[1,2,4]triazolo[4,5-a]quinazolin-1-yl)sulfanyl]acetamide
@<TRIPOS>ATOM
      1 C1         -4.2664   -0.8384   -1.4000 C.3       1 <0>        -0.1604
      2 C2         -3.6920   -0.8031    0.0176 C.3       1 <0>         0.1905
      3 H1         -3.5090   -1.8213    0.3610 H         1 <0>         0.1024
      4 C3         -2.3965   -0.0332    0.0157 C.ar      1 <0>        -0.0923
      5 C4         -2.4153    1.3492    0.0259 C.ar      1 <0>        -0.1094
      6 C5         -1.2294    2.0588    0.0190 C.ar      1 <0>        -0.1074
      7 C6         -0.0168    1.3855    0.0097 C.ar      1 <0>         0.0542
      8 C7          0.0021   -0.0041    0.0020 C.ar      1 <0>         0.0557
      9 C8         -1.1918   -0.7102    0.0041 C.ar      1 <0>        -0.0990
     10 O1          1.1807   -0.6848   -0.0066 O.3       1 <0>        -0.3056
     11 C9          2.3470    0.0535   -0.3870 C.3       1 <0>         0.0199
     12 C10         2.3345    1.3916    0.3645 C.3       1 <0>         0.0196
     13 O2          1.1429    2.0980    0.0024 O.3       1 <0>        -0.3062
     14 N1         -4.6473   -0.1492    0.9155 N.am      1 <0>        -0.7161
     15 C11        -5.6433   -0.8638    1.4757 C.2       1 <0>         0.5406
     16 O3         -5.7486   -2.0482    1.2366 O.2       1 <0>        -0.5205
     17 C12        -6.6259   -0.1912    2.3993 C.3       1 <0>        -0.1629
     18 S1         -7.8357   -1.4091    2.9857 S.3       1 <0>         0.1005
     19 C13        -8.8993   -0.4801    4.0394 C.2       1 <0>         0.1990
     20 N2         -8.7955    0.7992    4.3047 N.2       1 <0>        -0.2839
     21 N3         -9.8310    1.1460    5.1808 N.2       1 <0>        -0.3082
     22 C14       -10.5386    0.0658    5.4255 C.2       1 <0>         0.4610
     23 N4         -9.9828   -0.9665    4.7202 N.pl3     1 <0>        -0.4418
     24 C15       -10.5336   -2.2448    4.7830 C.ar      1 <0>         0.1654
     25 C16        -9.9760   -3.2983    4.0746 C.ar      1 <0>        -0.1343
     26 C17       -10.5418   -4.5554    4.1540 C.ar      1 <0>        -0.0485
     27 C18       -11.6644   -4.7751    4.9367 C.ar      1 <0>        -0.1285
     28 C19       -12.2321   -3.7389    5.6479 C.ar      1 <0>        -0.0215
     29 C20       -11.6700   -2.4655    5.5758 C.ar      1 <0>        -0.1613
     30 C21       -12.2468   -1.3311    6.3203 C.2       1 <0>         0.5690
     31 O4        -13.2315   -1.4851    7.0175 O.2       1 <0>        -0.4870
     32 N5        -11.6578   -0.1218    6.2222 N.am      1 <0>        -0.5138
     33 C22       -12.2206    1.0157    6.9541 C.3       1 <0>         0.0795
     34 H2         -4.4494    0.1798   -1.7434 H         1 <0>         0.0620
     35 H3         -3.5556   -1.3249   -2.0680 H         1 <0>         0.0718
     36 H4         -5.2034   -1.3953   -1.3986 H         1 <0>         0.0680
     37 H5         -3.3583    1.8754    0.0361 H         1 <0>         0.1316
     38 H6         -1.2469    3.1386    0.0268 H         1 <0>         0.1384
     39 H7         -1.1798   -1.7901   -0.0036 H         1 <0>         0.1386
     40 H8          3.2416   -0.5095   -0.1205 H         1 <0>         0.1249
     41 H9          2.3332    0.2345   -1.4617 H         1 <0>         0.0797
     42 H10         2.3419    1.2097    1.4392 H         1 <0>         0.0796
     43 H11         3.2092    1.9786    0.0844 H         1 <0>         0.1248
     44 H12        -4.5630    0.7980    1.1067 H         1 <0>         0.4048
     45 H13        -6.0933    0.2311    3.2514 H         1 <0>         0.1305
     46 H14        -7.1424    0.6048    1.8629 H         1 <0>         0.1307
     47 H15        -9.1015   -3.1359    3.4620 H         1 <0>         0.1451
     48 H16       -10.1056   -5.3746    3.6017 H         1 <0>         0.1484
     49 H17       -12.0967   -5.7634    4.9901 H         1 <0>         0.1468
     50 H18       -13.1070   -3.9130    6.2567 H         1 <0>         0.1538
     51 H19       -12.9666    1.5132    6.3344 H         1 <0>         0.0781
     52 H20       -12.6889    0.6611    7.8723 H         1 <0>         0.0987
     53 H21       -11.4251    1.7190    7.2001 H         1 <0>         0.0949
@<TRIPOS>BOND
     1    1    2 1
     2    1   34 1
     3    1   35 1
     4    1   36 1
     5    2    3 1
     6    2    4 1
     7    2   14 1
     8    4    9 ar
     9    4    5 ar
    10    5    6 ar
    11    5   37 1
    12    6    7 ar
    13    6   38 1
    14    7   13 1
    15    7    8 ar
    16    8    9 ar
    17    8   10 1
    18    9   39 1
    19   10   11 1
    20   11   12 1
    21   11   40 1
    22   11   41 1
    23   12   13 1
    24   12   42 1
    25   12   43 1
    26   14   15 am
    27   14   44 1
    28   15   16 2
    29   15   17 1
    30   17   18 1
    31   17   45 1
    32   17   46 1
    33   18   19 1
    34   19   23 1
    35   19   20 2
    36   20   21 1
    37   21   22 2
    38   22   32 1
    39   22   23 1
    40   23   24 1
    41   24   29 ar
    42   24   25 ar
    43   25   26 ar
    44   25   47 1
    45   26   27 ar
    46   26   48 1
    47   27   28 ar
    48   27   49 1
    49   28   29 ar
    50   28   50 1
    51   29   30 1
    52   30   31 2
    53   30   32 am
    54   32   33 1
    55   33   51 1
    56   33   52 1
    57   33   53 1
@<TRIPOS>MOLECULE
ZINC33035418
   39    41     0     0     0
SMALL
USER_CHARGES
N-(2-bromo-4-nitro-phenyl)-2-[(5,7-dimethyl-[1,2,4]triazolo[3,4-f]pyrimidin-3-yl)sulfanyl]acetamide
@<TRIPOS>ATOM
      1 C1         -0.0842    1.2332    8.3760 C.3       1 <0>        -0.1032
      2 C2         -0.0713    1.2105    6.8692 C.2       1 <0>         0.1260
      3 C3          0.9100    0.5360    6.2150 C.2       1 <0>        -0.1369
      4 C4          0.8960    0.5324    4.8034 C.2       1 <0>         0.2255
      5 N1          1.6599    0.0034    3.8722 N.2       1 <0>        -0.2720
      6 N2          1.1963    0.3016    2.7088 N.2       1 <0>        -0.2444
      7 C5          0.1179    1.0442    2.8230 C.2       1 <0>         0.1181
      8 N3         -0.1165    1.2161    4.1545 N.pl3     1 <0>        -0.4191
      9 C6         -1.0621    1.8670    4.8854 C.2       1 <0>         0.3709
     10 N4         -1.0267    1.8555    6.1884 N.2       1 <0>        -0.4757
     11 C7         -2.1651    2.6119    4.1786 C.3       1 <0>        -0.1192
     12 S1         -0.8497    1.6911    1.5001 S.3       1 <0>         0.0990
     13 C8         -0.0035    1.1009    0.0081 C.3       1 <0>        -0.1592
     14 C9         -0.7385    1.5903   -1.2131 C.2       1 <0>         0.5472
     15 O1         -1.7351    2.2703   -1.0891 O.2       1 <0>        -0.4946
     16 N5         -0.2884    1.2723   -2.4431 N.am      1 <0>        -0.6795
     17 C10        -1.0217    1.6465   -3.5750 C.ar      1 <0>         0.2353
     18 C11        -1.7226    2.8452   -3.5851 C.ar      1 <0>        -0.1189
     19 C12        -2.4453    3.2117   -4.7035 C.ar      1 <0>        -0.0168
     20 C13        -2.4714    2.3867   -5.8131 C.ar      1 <0>        -0.0576
     21 C14        -1.7748    1.1924   -5.8070 C.ar      1 <0>        -0.0037
     22 C15        -1.0453    0.8221   -4.6930 C.ar      1 <0>        -0.1308
     23 Br1        -0.0864   -0.8077   -4.6880 Br        1 <0>        -0.0037
     24 N6         -3.2463    2.7834   -7.0103 N.pl3     1 <0>         0.0293
     25 O2         -3.8601    3.8355   -7.0173 O.2       1 <0>        -0.1510
     26 O3         -3.2702    2.0579   -7.9883 O.3       1 <0>        -0.1537
     27 H1          0.7696    0.6547    8.7587 H         1 <0>         0.0847
     28 H2         -1.0217    0.7886    8.7414 H         1 <0>         0.0880
     29 H3         -0.0099    2.2728    8.7277 H         1 <0>         0.0880
     30 H4          1.6823    0.0154    6.7617 H         1 <0>         0.1693
     31 H5         -2.8315    3.0727    4.9226 H         1 <0>         0.1180
     32 H6         -2.7401    1.9111    3.5555 H         1 <0>         0.1029
     33 H7         -1.7288    3.3956    3.5419 H         1 <0>         0.1030
     34 H8          1.0269    1.4856   -0.0054 H         1 <0>         0.1382
     35 H9          0.0157    0.0011    0.0083 H         1 <0>         0.1385
     36 H10         0.6552    0.7187   -2.5573 H         1 <0>         0.4509
     37 H11        -1.7023    3.4905   -2.7193 H         1 <0>         0.1726
     38 H12        -2.9906    4.1439   -4.7116 H         1 <0>         0.1662
     39 H13        -1.7972    0.5503   -6.6751 H         1 <0>         0.1683
@<TRIPOS>BOND
     1    1    2 1
     2    1   27 1
     3    1   28 1
     4    1   29 1
     5    2   10 1
     6    2    3 2
     7    3    4 1
     8    3   30 1
     9    4    8 1
    10    4    5 2
    11    5    6 1
    12    6    7 2
    13    7    8 1
    14    7   12 1
    15    8    9 1
    16    9   10 2
    17    9   11 1
    18   11   31 1
    19   11   32 1
    20   11   33 1
    21   12   13 1
    22   13   14 1
    23   13   34 1
    24   13   35 1
    25   14   15 2
    26   14   16 am
    27   16   17 1
    28   16   36 1
    29   17   22 ar
    30   17   18 ar
    31   18   19 ar
    32   18   37 1
    33   19   20 ar
    34   19   38 1
    35   20   21 ar
    36   20   24 1
    37   21   22 ar
    38   21   39 1
    39   22   23 1
    40   24   25 2
    41   24   26 1
@<TRIPOS>MOLECULE
ZINC48252008
   49    51     0     0     0
SMALL
USER_CHARGES

@<TRIPOS>ATOM
      1 C1         -1.3378    2.2465    0.2560 C.3       1 <0>        -0.1441
      2 C2         -0.8165    0.8340    0.3218 C.ar      1 <0>        -0.0018
      3 C3         -0.5997    0.1221   -0.8434 C.ar      1 <0>        -0.0942
      4 C4         -0.1216   -1.1732   -0.7830 C.ar      1 <0>        -0.0512
      5 C5          0.1403   -1.7570    0.4426 C.ar      1 <0>        -0.1168
      6 C6         -0.0755   -1.0450    1.6074 C.ar      1 <0>        -0.0439
      7 C7         -0.5497    0.2523    1.5469 C.ar      1 <0>        -0.0452
      8 N1         -0.7760    1.0166    2.7941 N.pl3     1 <0>         0.0285
      9 O1         -0.5254    2.1987    2.8326 O.2       1 <0>        -0.1385
     10 O2         -1.2114    0.4587    3.7743 O.3       1 <0>        -0.1515
     11 C8         -0.8853    0.7584   -2.1793 C.3       1 <0>        -0.5801
     12 S1          0.6043    1.6035   -2.7773 S.o2      1 <0>         2.4373
     13 O3          0.8941    2.6806   -1.8968 O.2       1 <0>        -0.8904
     14 O4          1.6056    0.6267   -3.0271 O.2       1 <0>        -0.9123
     15 C9          0.0642    2.2911   -4.3666 C.3       1 <0>        -0.6208
     16 H1         -0.2528    1.4814   -5.0239 H         1 <0>         0.1619
     17 C10        -1.1063    3.2491   -4.1365 C.3       1 <0>        -0.1437
     18 C11         1.2067    3.0382   -5.0050 C.2       1 <0>         0.5435
     19 O5          2.1385    3.4162   -4.3267 O.2       1 <0>        -0.4969
     20 N2          1.1932    3.2864   -6.3297 N.am      1 <0>        -0.6562
     21 C12         2.3017    3.8862   -6.9413 C.ar      1 <0>         0.1415
     22 C13         2.1184    4.7804   -7.9875 C.ar      1 <0>        -0.1328
     23 C14         3.2111    5.3713   -8.5915 C.ar      1 <0>        -0.0929
     24 C15         4.4939    5.0745   -8.1550 C.ar      1 <0>         0.0419
     25 C16         4.6804    4.1816   -7.1063 C.ar      1 <0>         0.0731
     26 C17         3.5832    3.5913   -6.4982 C.ar      1 <0>        -0.1139
     27 O6          5.9311    3.8838   -6.6592 O.3       1 <0>        -0.3025
     28 C18         7.0204    4.2092   -7.5293 C.3       1 <0>         0.0195
     29 C19         6.8038    5.6333   -8.0586 C.3       1 <0>         0.0195
     30 O7          5.5591    5.6642   -8.7654 O.3       1 <0>        -0.3057
     31 H2         -0.5000    2.9437    0.2641 H         1 <0>         0.1178
     32 H3         -1.9122    2.3794   -0.6608 H         1 <0>         0.0787
     33 H4         -1.9782    2.4379    1.1170 H         1 <0>         0.0816
     34 H5          0.0470   -1.7296   -1.6932 H         1 <0>         0.1521
     35 H6          0.5133   -2.7695    0.4898 H         1 <0>         0.1563
     36 H7          0.1288   -1.5011    2.5648 H         1 <0>         0.1547
     37 H8         -1.1776   -0.0115   -2.8934 H         1 <0>         0.1536
     38 H9         -1.6945    1.4807   -2.0722 H         1 <0>         0.1541
     39 H10        -1.9327    2.7087   -3.6747 H         1 <0>         0.0848
     40 H11        -0.7893    4.0588   -3.4792 H         1 <0>         0.0906
     41 H12        -1.4309    3.6623   -5.0915 H         1 <0>         0.0891
     42 H13         0.4159    3.0496   -6.8595 H         1 <0>         0.4170
     43 H14         1.1209    5.0138   -8.3295 H         1 <0>         0.1384
     44 H15         3.0664    6.0659   -9.4057 H         1 <0>         0.1428
     45 H16         3.7260    2.8989   -5.6817 H         1 <0>         0.1467
     46 H17         7.9590    4.1610   -6.9772 H         1 <0>         0.1253
     47 H18         7.0473    3.5074   -8.3629 H         1 <0>         0.0798
     48 H19         6.7705    6.3344   -7.2246 H         1 <0>         0.0798
     49 H20         7.6165    5.9023   -8.7334 H         1 <0>         0.1249
@<TRIPOS>BOND
     1    1    2 1
     2    1   31 1
     3    1   32 1
     4    1   33 1
     5    2    7 ar
     6    2    3 ar
     7    3    4 ar
     8    3   11 1
     9    4    5 ar
    10    4   34 1
    11    5    6 ar
    12    5   35 1
    13    6    7 ar
    14    6   36 1
    15    7    8 1
    16    8    9 2
    17    8   10 1
    18   11   12 1
    19   11   37 1
    20   11   38 1
    21   12   13 2
    22   12   14 2
    23   12   15 1
    24   15   16 1
    25   15   17 1
    26   15   18 1
    27   17   39 1
    28   17   40 1
    29   17   41 1
    30   18   19 2
    31   18   20 am
    32   20   21 1
    33   20   42 1
    34   21   26 ar
    35   21   22 ar
    36   22   23 ar
    37   22   43 1
    38   23   24 ar
    39   23   44 1
    40   24   30 1
    41   24   25 ar
    42   25   26 ar
    43   25   27 1
    44   26   45 1
    45   27   28 1
    46   28   29 1
    47   28   46 1
    48   28   47 1
    49   29   30 1
    50   29   48 1
    51   29   49 1
@<TRIPOS>MOLECULE
ZINC65305491
   55    59     0     0     0
SMALL
USER_CHARGES

@<TRIPOS>ATOM
      1 C1          1.2064    1.2355   -0.1716 C.3       1 <0>        -0.1164
      2 C2          0.5774   -0.1312   -0.0844 C.ar      1 <0>        -0.0670
      3 C3         -0.0268   -0.6858   -1.1979 C.ar      1 <0>        -0.1334
      4 C4         -0.6046   -1.9396   -1.1222 C.ar      1 <0>        -0.1004
      5 C5         -0.5800   -2.6424    0.0668 C.ar      1 <0>        -0.1319
      6 C6          0.0258   -2.0883    1.1866 C.ar      1 <0>         0.1501
      7 C7          0.6100   -0.8308    1.1058 C.ar      1 <0>        -0.1164
      8 C8          1.2737   -0.2281    2.3171 C.3       1 <0>        -0.1175
      9 N1          0.0521   -2.7974    2.3926 N.am      1 <0>        -0.6651
     10 C9         -0.0314   -4.1425    2.3854 C.2       1 <0>         0.4948
     11 O1         -0.0283   -4.7447    1.3326 O.2       1 <0>        -0.4978
     12 C10        -0.1286   -4.8984    3.6855 C.3       1 <0>         0.1502
     13 N2         -0.2075   -6.3352    3.4103 N.am      1 <0>        -0.4252
     14 C11         0.8346   -7.1881    3.3073 C.2       1 <0>         0.6725
     15 O2          2.0134   -6.9038    3.4265 O.2       1 <0>        -0.5241
     16 N3          0.3316   -8.4118    3.0488 N.am      1 <0>        -0.4908
     17 C12         0.9772   -9.6474    2.8521 C.2       1 <0>         0.2044
     18 C13         2.3361   -9.9491    2.8711 C.2       1 <0>        -0.1890
     19 C14         2.7426  -11.2193    2.6550 C.2       1 <0>        -0.1953
     20 S1          1.3181  -12.0781    2.4142 S.3       1 <0>         0.3586
     21 C15         0.1602  -10.7487    2.5996 C.2       1 <0>        -0.3384
     22 C16        -1.2356  -10.6398    2.5427 C.2       1 <0>         0.6174
     23 O3         -1.9177  -11.6240    2.3201 O.2       1 <0>        -0.4971
     24 N4         -1.8207   -9.4385    2.7363 N.am      1 <0>        -0.5031
     25 C17        -1.0382   -8.3197    2.9902 C.2       1 <0>         0.5150
     26 N5         -1.3780   -7.0787    3.2115 N.2       1 <0>        -0.2574
     27 C18        -3.2794   -9.3154    2.6781 C.3       1 <0>         0.1051
     28 C19        -3.8662   -9.5391    4.0733 C.3       1 <0>         0.0635
     29 H1         -3.5197  -10.4928    4.4715 H         1 <0>         0.0880
     30 C20        -5.4082   -9.5312    4.0004 C.3       1 <0>        -0.1455
     31 C21        -5.7956   -8.7688    5.2968 C.3       1 <0>        -0.1556
     32 C22        -4.6260   -7.7582    5.4043 C.3       1 <0>         0.0511
     33 O4         -3.4667   -8.4748    4.9448 O.3       1 <0>        -0.3673
     34 H2          2.2504    1.1367   -0.4688 H         1 <0>         0.0717
     35 H3          0.6735    1.8343   -0.9102 H         1 <0>         0.0682
     36 H4          1.1503    1.7240    0.8012 H         1 <0>         0.0692
     37 H5         -0.0477   -0.1383   -2.1286 H         1 <0>         0.1230
     38 H6         -1.0760   -2.3699   -1.9934 H         1 <0>         0.1250
     39 H7         -1.0318   -3.6216    0.1254 H         1 <0>         0.1427
     40 H8          0.5412    0.3453    2.8852 H         1 <0>         0.0722
     41 H9          1.6776   -1.0234    2.9435 H         1 <0>         0.0625
     42 H10         2.0824    0.4298    1.9987 H         1 <0>         0.0751
     43 H11         0.1304   -2.3208    3.2338 H         1 <0>         0.4128
     44 H12         0.7532   -4.6925    4.2923 H         1 <0>         0.1336
     45 H13        -1.0220   -4.5820    4.2238 H         1 <0>         0.1373
     46 H14         3.0619   -9.1714    3.0573 H         1 <0>         0.1565
     47 H15         3.7542  -11.5973    2.6403 H         1 <0>         0.2087
     48 H16        -3.5462   -8.3184    2.3274 H         1 <0>         0.1046
     49 H17        -3.6799  -10.0613    1.9916 H         1 <0>         0.1171
     50 H18        -5.7520   -8.9935    3.1168 H         1 <0>         0.0829
     51 H19        -5.8025  -10.5473    4.0154 H         1 <0>         0.0887
     52 H20        -6.7496   -8.2547    5.1801 H         1 <0>         0.0859
     53 H21        -5.8154   -9.4395    6.1559 H         1 <0>         0.0791
     54 H22        -4.8138   -6.8932    4.7681 H         1 <0>         0.0630
     55 H23        -4.4905   -7.4450    6.4395 H         1 <0>         0.0841
@<TRIPOS>BOND
     1    1    2 1
     2    1   34 1
     3    1   35 1
     4    1   36 1
     5    2    7 ar
     6    2    3 ar
     7    3    4 ar
     8    3   37 1
     9    4    5 ar
    10    4   38 1
    11    5    6 ar
    12    5   39 1
    13    6    7 ar
    14    6    9 1
    15    7    8 1
    16    8   40 1
    17    8   41 1
    18    8   42 1
    19    9   10 am
    20    9   43 1
    21   10   11 2
    22   10   12 1
    23   12   13 1
    24   12   44 1
    25   12   45 1
    26   13   26 1
    27   13   14 am
    28   14   15 2
    29   14   16 am
    30   16   25 1
    31   16   17 1
    32   17   21 2
    33   17   18 1
    34   18   19 2
    35   18   46 1
    36   19   20 1
    37   19   47 1
    38   20   21 1
    39   21   22 1
    40   22   23 2
    41   22   24 am
    42   24   25 1
    43   24   27 1
    44   25   26 2
    45   27   28 1
    46   27   48 1
    47   27   49 1
    48   28   29 1
    49   28   33 1
    50   28   30 1
    51   30   31 1
    52   30   50 1
    53   30   51 1
    54   31   32 1
    55   31   52 1
    56   31   53 1
    57   32   33 1
    58   32   54 1
    59   32   55 1
@<TRIPOS>MOLECULE
ZINC00482186
   28    29     0     0     0
SMALL
USER_CHARGES
4-(4-chloro-3-methyl-phenoxy)benzene-1,2-dicarbonitrile
@<TRIPOS>ATOM
      1 C1          2.4216    9.7466    0.4669 C.3       1 <0>        -0.1237
      2 C2          2.3823    8.2453    0.3420 C.ar      1 <0>        -0.0354
      3 C3          1.1688    7.5922    0.2439 C.ar      1 <0>        -0.1294
      4 C4          1.1332    6.2102    0.1284 C.ar      1 <0>         0.1247
      5 C5          2.3169    5.4861    0.1175 C.ar      1 <0>        -0.1900
      6 C6          3.5282    6.1432    0.2096 C.ar      1 <0>        -0.0653
      7 C7          3.5616    7.5219    0.3252 C.ar      1 <0>        -0.0666
      8 Cl1         5.0851    8.3448    0.4486 Cl        1 <0>        -0.0609
      9 O1         -0.0595    5.5660    0.0317 O.3       1 <0>        -0.2461
     10 C8         -0.0538    4.2085    0.0483 C.ar      1 <0>         0.1169
     11 C9         -0.4147    3.5011   -1.0934 C.ar      1 <0>        -0.0912
     12 C10        -0.4134    2.1228   -1.0893 C.ar      1 <0>        -0.0479
     13 C11        -0.0484    1.4276    0.0643 C.ar      1 <0>         0.0209
     14 C12         0.3127    2.1419    1.2247 C.ar      1 <0>         0.0427
     15 C13         0.3123    3.5340    1.2037 C.ar      1 <0>        -0.0947
     16 C14         0.6830    1.4398    2.4165 C.1       1 <0>         0.2337
     17 N1          0.9767    0.8827    3.3620 N.1       1 <0>        -0.3746
     18 C15        -0.0463   -0.0043    0.0710 C.1       1 <0>         0.2347
     19 N2         -0.0446   -1.1403    0.0763 N.1       1 <0>        -0.3785
     20 H1          2.3937   10.0243    1.5206 H         1 <0>         0.0817
     21 H2          3.3389   10.1248    0.0157 H         1 <0>         0.0784
     22 H3          1.5607   10.1764   -0.0451 H         1 <0>         0.0763
     23 H4          0.2485    8.1573    0.2574 H         1 <0>         0.1453
     24 H5          2.2911    4.4097    0.0326 H         1 <0>         0.1396
     25 H6          4.4499    5.5803    0.1967 H         1 <0>         0.1402
     26 H7         -0.6980    4.0349   -1.9885 H         1 <0>         0.1570
     27 H8         -0.6956    1.5804   -1.9795 H         1 <0>         0.1580
     28 H9          0.5916    4.0881    2.0876 H         1 <0>         0.1544
@<TRIPOS>BOND
     1    1    2 1
     2    1   20 1
     3    1   21 1
     4    1   22 1
     5    2    7 ar
     6    2    3 ar
     7    3    4 ar
     8    3   23 1
     9    4    5 ar
    10    4    9 1
    11    5    6 ar
    12    5   24 1
    13    6    7 ar
    14    6   25 1
    15    7    8 1
    16    9   10 1
    17   10   15 ar
    18   10   11 ar
    19   11   12 ar
    20   11   26 1
    21   12   13 ar
    22   12   27 1
    23   13   14 ar
    24   13   18 1
    25   14   15 ar
    26   14   16 1
    27   15   28 1
    28   16   17 3
    29   18   19 3
@<TRIPOS>MOLECULE
ZINC17146938
   40    41     0     0     0
SMALL
USER_CHARGES
(4E)-4-(4-dimethylaminophenyl)imino-2-isopropyl-cyclohexa-2,5-dien-1-one
@<TRIPOS>ATOM
      1 C1         -2.0142    1.4816   -1.6330 C.3       1 <0>        -0.1530
      2 C2         -1.3211    2.0958   -0.4151 C.3       1 <0>        -0.0445
      3 C3         -2.2176    1.9390    0.8148 C.3       1 <0>        -0.1530
      4 C4         -0.0107    1.3916   -0.1746 C.2       1 <0>        -0.1546
      5 C5          1.1439    2.0936   -0.2155 C.2       1 <0>        -0.0385
      6 C6          2.4145    1.3995    0.0135 C.2       1 <0>         0.1744
      7 N1          3.5615    2.0630   -0.0212 N.2       1 <0>        -0.3912
      8 C7          4.7212    1.3999    0.0648 C.ar      1 <0>        -0.0066
      9 C8          5.6526    1.7285    1.0723 C.ar      1 <0>        -0.0425
     10 C9          6.8278    1.0462    1.1571 C.ar      1 <0>        -0.1873
     11 C10         7.1174    0.0301    0.2422 C.ar      1 <0>         0.2248
     12 C11         6.2018   -0.2973   -0.7618 C.ar      1 <0>        -0.1883
     13 C12         5.0204    0.3729   -0.8553 C.ar      1 <0>        -0.0781
     14 N2          8.3157   -0.6552    0.3311 N.pl3     1 <0>        -0.6246
     15 C13         8.6227   -1.7212   -0.6258 C.3       1 <0>         0.0861
     16 C14         9.2779   -0.3149    1.3821 C.3       1 <0>         0.0859
     17 C15         2.3940   -0.0415    0.2812 C.2       1 <0>        -0.0909
     18 C16         1.2096   -0.6927    0.3103 C.2       1 <0>        -0.1877
     19 C17        -0.0002    0.0025    0.0858 C.2       1 <0>         0.4029
     20 O1         -1.0568   -0.6089    0.1170 O.2       1 <0>        -0.4429
     21 H1         -1.3697    1.5943   -2.5172 H         1 <0>         0.0525
     22 H2         -2.9707    1.9957   -1.8085 H         1 <0>         0.0610
     23 H3         -2.2005    0.4132   -1.4488 H         1 <0>         0.0723
     24 H4         -1.1194    3.1616   -0.5975 H         1 <0>         0.0814
     25 H5         -1.7193    2.3806    1.6904 H         1 <0>         0.0529
     26 H6         -2.4039    0.8706    0.9989 H         1 <0>         0.0726
     27 H7         -3.1741    2.4531    0.6392 H         1 <0>         0.0609
     28 H8          1.1235    3.1744   -0.4190 H         1 <0>         0.1528
     29 H9          5.4320    2.5165    1.7772 H         1 <0>         0.1309
     30 H10         7.5401    1.2942    1.9301 H         1 <0>         0.1299
     31 H11         6.4322   -1.0836   -1.4654 H         1 <0>         0.1279
     32 H12         4.3139    0.1189   -1.6316 H         1 <0>         0.1254
     33 H13         9.6115   -2.1455   -0.3972 H         1 <0>         0.0781
     34 H14         8.6277   -1.3084   -1.6454 H         1 <0>         0.0590
     35 H15         7.8595   -2.5100   -0.5533 H         1 <0>         0.0589
     36 H16        10.1628   -0.9621    1.2925 H         1 <0>         0.0780
     37 H17         8.8126   -0.4643    2.3676 H         1 <0>         0.0593
     38 H18         9.5807    0.7372    1.2753 H         1 <0>         0.0595
     39 H19         3.3293   -0.5930    0.4574 H         1 <0>         0.1475
     40 H20         1.1812   -1.7740    0.5102 H         1 <0>         0.1490
@<TRIPOS>BOND
     1    1    2 1
     2    1   21 1
     3    1   22 1
     4    1   23 1
     5    2    3 1
     6    2    4 1
     7    2   24 1
     8    3   25 1
     9    3   26 1
    10    3   27 1
    11    4   19 1
    12    4    5 2
    13    5    6 1
    14    5   28 1
    15    6    7 2
    16    6   17 1
    17    7    8 1
    18    8   13 ar
    19    8    9 ar
    20    9   10 ar
    21    9   29 1
    22   10   11 ar
    23   10   30 1
    24   11   12 ar
    25   11   14 1
    26   12   13 ar
    27   12   31 1
    28   13   32 1
    29   14   15 1
    30   14   16 1
    31   15   33 1
    32   15   34 1
    33   15   35 1
    34   16   36 1
    35   16   37 1
    36   16   38 1
    37   17   18 2
    38   17   39 1
    39   18   19 1
    40   18   40 1
    41   19   20 2
@<TRIPOS>MOLECULE
ZINC40965078
   34    36     0     0     0
SMALL
USER_CHARGES

@<TRIPOS>ATOM
      1 C1         -0.0184    1.5028    0.0103 C.3       1 <0>        -0.1187
      2 C2          0.0021   -0.0041    0.0020 C.ar      1 <0>        -0.0799
      3 C3          0.0057   -0.6866   -1.2014 C.ar      1 <0>        -0.1154
      4 C4          0.0244   -2.0663   -1.2151 C.ar      1 <0>        -0.1074
      5 C5          0.0401   -2.7724   -0.0132 C.ar      1 <0>        -0.0072
      6 C6          0.0368   -2.0796    1.1959 C.ar      1 <0>        -0.0842
      7 C7          0.0229   -0.6993    1.1975 C.ar      1 <0>        -0.0860
      8 C8          0.0250    0.0514    2.5042 C.3       1 <0>        -0.1173
      9 C9          0.0597   -4.2555   -0.0214 C.2       1 <0>         0.0714
     10 C10        -0.5597   -5.0566   -0.9249 C.2       1 <0>         0.0512
     11 N1         -0.2909   -6.3708   -0.5748 N.pl3     1 <0>        -0.3256
     12 C11         0.4927   -6.2887    0.5446 C.2       1 <0>         0.1367
     13 N2          0.7010   -5.0447    0.8642 N.2       1 <0>        -0.4076
     14 S1          0.7928   -7.9980    0.9295 S.3       1 <0>         0.1702
     15 C12        -0.1384   -8.7119   -0.4166 C.2       1 <0>         0.0810
     16 N3         -0.5884   -7.6508   -1.0321 N.2       1 <0>        -0.2773
     17 S2         -0.3857  -10.4106   -0.8137 S.3       1 <0>         0.0922
     18 C13        -1.4272  -10.3672   -2.2983 C.3       1 <0>        -0.1592
     19 C14        -1.3903   -4.6001   -2.0966 C.3       1 <0>        -0.0828
     20 H1          1.0042    1.8801    0.0026 H         1 <0>         0.0720
     21 H2         -0.5455    1.8639   -0.8728 H         1 <0>         0.0672
     22 H3         -0.5286    1.8543    0.9071 H         1 <0>         0.0698
     23 H4         -0.0064   -0.1385   -2.1319 H         1 <0>         0.1267
     24 H5          0.0265   -2.5980   -2.1551 H         1 <0>         0.1258
     25 H6          0.0485   -2.6215    2.1300 H         1 <0>         0.1274
     26 H7         -1.0020    0.2184    2.8289 H         1 <0>         0.0713
     27 H8          0.5540   -0.5322    3.2576 H         1 <0>         0.0677
     28 H9          0.5246    1.0110    2.3711 H         1 <0>         0.0701
     29 H10        -2.3637   -9.8582   -2.0704 H         1 <0>         0.0971
     30 H11        -0.9064   -9.8315   -3.0920 H         1 <0>         0.0971
     31 H12        -1.6374  -11.3857   -2.6247 H         1 <0>         0.1263
     32 H13        -0.7494   -4.4747   -2.9693 H         1 <0>         0.0811
     33 H14        -2.1555   -5.3459   -2.3119 H         1 <0>         0.0736
     34 H15        -1.8666   -3.6497   -1.8559 H         1 <0>         0.0927
@<TRIPOS>BOND
     1    1    2 1
     2    1   20 1
     3    1   21 1
     4    1   22 1
     5    2    7 ar
     6    2    3 ar
     7    3    4 ar
     8    3   23 1
     9    4    5 ar
    10    4   24 1
    11    5    6 ar
    12    5    9 1
    13    6    7 ar
    14    6   25 1
    15    7    8 1
    16    8   26 1
    17    8   27 1
    18    8   28 1
    19    9   13 1
    20    9   10 2
    21   10   11 1
    22   10   19 1
    23   11   16 1
    24   11   12 1
    25   12   13 2
    26   12   14 1
    27   14   15 1
    28   15   16 2
    29   15   17 1
    30   17   18 1
    31   18   29 1
    32   18   30 1
    33   18   31 1
    34   19   32 1
    35   19   33 1
    36   19   34 1
@<TRIPOS>MOLECULE
ZINC53750033
   20    21     0     0     0
SMALL
USER_CHARGES

@<TRIPOS>ATOM
      1 C1         -0.0167    1.3780    0.0096 C.ar      1 <0>        -0.0851
      2 C2          1.1705    2.0859    0.0021 C.ar      1 <0>        -0.1069
      3 C3          2.3784    1.4113   -0.0135 C.ar      1 <0>        -0.0102
      4 C4          2.3978    0.0281   -0.0210 C.ar      1 <0>        -0.0841
      5 C5          1.2094   -0.6798   -0.0130 C.ar      1 <0>        -0.0148
      6 C6          0.0021   -0.0041    0.0020 C.ar      1 <0>        -0.1066
      7 Cl1         1.2327   -2.4156   -0.0231 Cl        1 <0>        -0.0421
      8 C7          3.7131   -0.7072   -0.0385 C.3       1 <0>        -0.0047
      9 C8          4.1662   -0.9599    1.3764 C.2       1 <0>         0.2684
     10 N1          4.9266   -0.1378    2.1077 N.2       1 <0>        -0.5024
     11 C9          5.1358   -0.6537    3.2891 C.2       1 <0>         0.3183
     12 O1          4.5071   -1.8353    3.3472 O.3       1 <0>        -0.0903
     13 N2          3.8762   -2.0115    2.0875 N.2       1 <0>        -0.3005
     14 Cl2         6.0682    0.0669    4.5639 Cl        1 <0>         0.1172
     15 Cl3         3.8693    2.3005   -0.0241 Cl        1 <0>        -0.0355
     16 H1         -0.9592    1.9050    0.0259 H         1 <0>         0.1465
     17 H2          1.1552    3.1657    0.0080 H         1 <0>         0.1450
     18 H3         -0.9258   -0.5566    0.0082 H         1 <0>         0.1446
     19 H4          3.5906   -1.6586   -0.5562 H         1 <0>         0.1186
     20 H5          4.4592   -0.1049   -0.5568 H         1 <0>         0.1247
@<TRIPOS>BOND
     1    1    6 ar
     2    1    2 ar
     3    1   16 1
     4    2    3 ar
     5    2   17 1
     6    3    4 ar
     7    3   15 1
     8    4    5 ar
     9    4    8 1
    10    5    6 ar
    11    5    7 1
    12    6   18 1
    13    8    9 1
    14    8   19 1
    15    8   20 1
    16    9   13 2
    17    9   10 1
    18   10   11 2
    19   11   12 1
    20   11   14 1
    21   12   13 1
@<TRIPOS>MOLECULE
ZINC64427079
   39    41     0     0     0
SMALL
USER_CHARGES

@<TRIPOS>ATOM
      1 C1         -0.0184    1.5028    0.0103 C.3       1 <0>        -0.1220
      2 C2          0.0021   -0.0041    0.0020 C.ar      1 <0>        -0.0650
      3 C3          0.0056   -0.6858   -1.2029 C.ar      1 <0>        -0.1189
      4 C4          0.0238   -2.0640   -1.2193 C.ar      1 <0>        -0.0831
      5 C5          0.0392   -2.7742   -0.0132 C.ar      1 <0>        -0.0901
      6 C6          0.0359   -2.0772    1.2006 C.ar      1 <0>        -0.0859
      7 C7          0.0229   -0.6988    1.1993 C.ar      1 <0>        -0.1191
      8 C8          0.0582   -4.2440   -0.0213 C.2       1 <0>         0.0432
      9 C9          1.1181   -4.9342   -0.5155 C.2       1 <0>        -0.1876
     10 C10         1.1230   -6.3430   -0.5177 C.2       1 <0>         0.3630
     11 N1          0.1323   -7.0830   -0.0556 N.2       1 <0>        -0.5766
     12 C11        -0.9766   -6.5590    0.4620 C.2       1 <0>         0.5259
     13 O1         -1.8665   -7.2750    0.8774 O.2       1 <0>        -0.4274
     14 C12        -1.1023   -5.0510    0.5276 C.3       1 <0>        -0.0480
     15 H1         -1.2469   -4.7666    1.5699 H         1 <0>         0.1649
     16 C13        -2.3140   -4.6682   -0.2155 C.1       1 <0>         0.2122
     17 N2         -3.2491   -4.3727   -0.7889 N.1       1 <0>        -0.3849
     18 C14         2.3068   -7.0330   -1.0702 C.ar      1 <0>        -0.1081
     19 C15         3.3828   -6.2926   -1.5662 C.ar      1 <0>        -0.0689
     20 C16         4.4845   -6.9434   -2.0805 C.ar      1 <0>        -0.1336
     21 C17         4.5259   -8.3265   -2.1061 C.ar      1 <0>        -0.0454
     22 C18         3.4636   -9.0664   -1.6164 C.ar      1 <0>        -0.1356
     23 C19         2.3579   -8.4290   -1.0939 C.ar      1 <0>        -0.0419
     24 C20         5.7331   -9.0304   -2.6702 C.3       1 <0>        -0.1245
     25 H2          1.0042    1.8801    0.0026 H         1 <0>         0.0763
     26 H3         -0.5455    1.8639   -0.8728 H         1 <0>         0.0701
     27 H4         -0.5286    1.8543    0.9071 H         1 <0>         0.0704
     28 H5         -0.0062   -0.1363   -2.1325 H         1 <0>         0.1301
     29 H6          0.0259   -2.5944   -2.1601 H         1 <0>         0.1282
     30 H7          0.0474   -2.6178    2.1355 H         1 <0>         0.1303
     31 H8          0.0248   -0.1593    2.1349 H         1 <0>         0.1307
     32 H9          1.9670   -4.3969   -0.9119 H         1 <0>         0.1588
     33 H10         3.3516   -5.2132   -1.5472 H         1 <0>         0.1339
     34 H11         5.3168   -6.3723   -2.4646 H         1 <0>         0.1319
     35 H12         3.5026  -10.1454   -1.6395 H         1 <0>         0.1316
     36 H13         1.5316   -9.0076   -0.7080 H         1 <0>         0.1439
     37 H14         6.4572   -9.2043   -1.8742 H         1 <0>         0.0780
     38 H15         5.4294   -9.9849   -3.1000 H         1 <0>         0.0718
     39 H16         6.1861   -8.4110   -3.4443 H         1 <0>         0.0714
@<TRIPOS>BOND
     1    1    2 1
     2    1   25 1
     3    1   26 1
     4    1   27 1
     5    2    7 ar
     6    2    3 ar
     7    3    4 ar
     8    3   28 1
     9    4    5 ar
    10    4   29 1
    11    5    6 ar
    12    5    8 1
    13    6    7 ar
    14    6   30 1
    15    7   31 1
    16    8   14 1
    17    8    9 2
    18    9   10 1
    19    9   32 1
    20   10   11 2
    21   10   18 1
    22   11   12 1
    23   12   13 2
    24   12   14 1
    25   14   15 1
    26   14   16 1
    27   16   17 3
    28   18   23 ar
    29   18   19 ar
    30   19   20 ar
    31   19   33 1
    32   20   21 ar
    33   20   34 1
    34   21   22 ar
    35   21   24 1
    36   22   23 ar
    37   22   35 1
    38   23   36 1
    39   24   37 1
    40   24   38 1
    41   24   39 1
@<TRIPOS>MOLECULE
ZINC15880245
   49    52     0     0     0
SMALL
USER_CHARGES
N-(5-benzyl-6,7-dihydro-4H-thiazolo[5,4-c]pyridin-2-yl)-2-(4-chlorophenyl)sulfanyl-acetamide
@<TRIPOS>ATOM
      1 C1         -0.5563    5.2102   11.3962 C.ar      1 <0>        -0.0830
      2 C2         -1.3395    6.1288   10.7227 C.ar      1 <0>        -0.1133
      3 C3         -2.3513    5.6938    9.8873 C.ar      1 <0>        -0.0925
      4 C4         -2.5799    4.3401    9.7255 C.ar      1 <0>        -0.1658
      5 C5         -1.8001    3.4216   10.4031 C.ar      1 <0>        -0.0962
      6 C6         -0.7849    3.8565   11.2344 C.ar      1 <0>        -0.1141
      7 C7         -3.6833    3.8658    8.8151 C.3       1 <0>         0.0514
      8 C8         -4.2414    3.4583    6.4942 C.3       1 <0>         0.0008
      9 C9         -3.7339    3.6478    5.0620 C.3       1 <0>        -0.0704
     10 C10        -2.4854    2.7908    4.8827 C.2       1 <0>         0.1302
     11 C11        -1.8239    2.3385    5.9819 C.2       1 <0>        -0.3266
     12 S1         -0.4859    1.4171    5.2773 S.3       1 <0>         0.1660
     13 C12        -0.8922    1.6942    3.6094 C.2       1 <0>         0.3418
     14 N1         -1.9721    2.4432    3.7080 N.2       1 <0>        -0.5193
     15 N2         -0.2416    1.2460    2.4658 N.am      1 <0>        -0.6154
     16 C13        -0.7181    1.5718    1.2479 C.2       1 <0>         0.5325
     17 O1         -1.7146    2.2562    1.1498 O.2       1 <0>        -0.4366
     18 C14        -0.0127    1.0858    0.0080 C.3       1 <0>        -0.1579
     19 S2         -0.8901    1.6867   -1.4616 S.3       1 <0>        -0.0141
     20 C15         0.0449    1.0429   -2.8092 C.ar      1 <0>        -0.1023
     21 C16         1.1762    0.2732   -2.5669 C.ar      1 <0>        -0.1248
     22 C17         1.9038   -0.2344   -3.6250 C.ar      1 <0>        -0.0886
     23 C18         1.5138    0.0320   -4.9259 C.ar      1 <0>        -0.0373
     24 C19         0.3908    0.8031   -5.1704 C.ar      1 <0>        -0.0867
     25 C20        -0.3442    1.3086   -4.1164 C.ar      1 <0>        -0.0824
     26 Cl1         2.4346   -0.6028   -6.2536 Cl        1 <0>        -0.0581
     27 C21        -2.1744    2.5856    7.4088 C.3       1 <0>         0.1162
     28 H1          0.2340    5.5501   12.0492 H         1 <0>         0.1358
     29 H2         -1.1611    7.1864   10.8494 H         1 <0>         0.1363
     30 H3         -2.9634    6.4115    9.3614 H         1 <0>         0.1321
     31 H4         -1.9816    2.3641   10.2800 H         1 <0>         0.1311
     32 H5         -0.1733    3.1388   11.7609 H         1 <0>         0.1362
     33 H6         -4.4846    4.6046    8.8001 H         1 <0>         0.1408
     34 H7         -4.0722    2.9153    9.1802 H         1 <0>         0.1399
     35 H8         -5.0495    4.1639    6.6869 H         1 <0>         0.1437
     36 H9         -4.6148    2.4411    6.6129 H         1 <0>         0.1362
     37 H10        -3.4875    4.6964    4.8947 H         1 <0>         0.1127
     38 H11        -4.5013    3.3324    4.3550 H         1 <0>         0.1345
     39 H12         0.5554    0.6986    2.5442 H         1 <0>         0.4355
     40 H13         0.0021   -0.0041    0.0020 H         1 <0>         0.1300
     41 H14         1.0099    1.4631    0.0003 H         1 <0>         0.1299
     42 H15         1.4836    0.0686   -1.5519 H         1 <0>         0.1293
     43 H16         2.7804   -0.8367   -3.4373 H         1 <0>         0.1395
     44 H17         0.0888    1.0093   -6.1867 H         1 <0>         0.1434
     45 H18        -1.2209    1.9097   -4.3079 H         1 <0>         0.1405
     46 H19        -2.6115    1.6858    7.8416 H         1 <0>         0.1433
     47 H20        -1.2793    2.8648    7.9647 H         1 <0>         0.1388
     48 N3         -3.1420    3.7108    7.4476 N.4       1 <0>        -0.3938
     49 H21        -2.6593    4.5765    7.1797 H         1 <0>         0.4307
@<TRIPOS>BOND
     1    1    6 ar
     2    1    2 ar
     3    1   28 1
     4    2    3 ar
     5    2   29 1
     6    3    4 ar
     7    3   30 1
     8    4    5 ar
     9    4    7 1
    10    5    6 ar
    11    5   31 1
    12    6   32 1
    13    7   33 1
    14    7   34 1
    15    7   48 1
    16    8    9 1
    17    8   35 1
    18    8   36 1
    19    8   48 1
    20    9   10 1
    21    9   37 1
    22    9   38 1
    23   10   14 1
    24   10   11 2
    25   11   12 1
    26   11   27 1
    27   12   13 1
    28   13   14 2
    29   13   15 1
    30   15   16 am
    31   15   39 1
    32   16   17 2
    33   16   18 1
    34   18   19 1
    35   18   40 1
    36   18   41 1
    37   19   20 1
    38   20   25 ar
    39   20   21 ar
    40   21   22 ar
    41   21   42 1
    42   22   23 ar
    43   22   43 1
    44   23   24 ar
    45   23   26 1
    46   24   25 ar
    47   24   44 1
    48   25   45 1
    49   27   46 1
    50   27   47 1
    51   27   48 1
    52   48   49 1
@<TRIPOS>MOLECULE
ZINC35791737
   63    66     0     0     0
SMALL
USER_CHARGES

@<TRIPOS>ATOM
      1 C1          1.1708    0.4371   -0.9605 C.3       1 <0>        -0.1568
      2 C2          0.8098   -1.0386   -0.7789 C.3       1 <0>         0.0518
      3 O1          1.1573   -1.7628   -1.9608 O.3       1 <0>        -0.2964
      4 C3          0.9001   -3.0982   -1.9646 C.ar      1 <0>         0.1167
      5 C4          0.3207   -3.6969   -0.8574 C.ar      1 <0>        -0.1780
      6 C5          0.0594   -5.0544   -0.8631 C.ar      1 <0>        -0.1257
      7 C6          0.3754   -5.8176   -1.9717 C.ar      1 <0>        -0.1192
      8 C7          0.9541   -5.2267   -3.0794 C.ar      1 <0>        -0.1021
      9 C8          1.2130   -3.8654   -3.0826 C.ar      1 <0>         0.1123
     10 O2          1.7767   -3.2815   -4.1738 O.3       1 <0>        -0.4816
     11 C9         -0.5708   -5.7038    0.3420 C.3       1 <0>         0.0338
     12 N1         -2.0333   -5.6705    0.2074 N.4       1 <0>        -0.3882
     13 C10        -2.4323   -6.4650   -0.9567 C.3       1 <0>        -0.0236
     14 C11        -3.9392   -6.4016   -1.1729 C.3       1 <0>        -0.1586
     15 C12        -4.4637   -5.0229   -0.7616 C.3       1 <0>         0.0825
     16 N2         -4.7918   -5.0453    0.6686 N.pl3     1 <0>        -0.4560
     17 C13        -5.9261   -4.5608    1.2455 C.2       1 <0>         0.0290
     18 C14        -5.8375   -4.7546    2.5775 C.2       1 <0>        -0.1943
     19 C15        -4.6042   -5.3876    2.8310 C.2       1 <0>        -0.1198
     20 C16        -3.9879   -5.5598    1.6456 C.2       1 <0>        -0.0561
     21 C17        -2.6474   -6.2176    1.4250 C.3       1 <0>         0.1660
     22 H1         -2.7839   -7.2931    1.3121 H         1 <0>         0.1509
     23 C18        -1.7524   -5.9444    2.6063 C.ar      1 <0>        -0.1500
     24 C19        -1.4515   -4.6421    2.9589 C.ar      1 <0>        -0.0566
     25 C20        -0.6306   -4.3915    4.0425 C.ar      1 <0>        -0.1202
     26 C21        -0.1109   -5.4432    4.7737 C.ar      1 <0>        -0.0371
     27 C22        -0.4126   -6.7455    4.4217 C.ar      1 <0>        -0.1198
     28 C23        -1.2370   -6.9960    3.3407 C.ar      1 <0>        -0.0378
     29 C24        -1.5701   -8.4156    2.9600 C.3       1 <0>        -0.1344
     30 C25         0.7848   -5.1701    5.9544 C.3       1 <0>        -0.1294
     31 C26        -2.0180   -3.4955    2.1617 C.3       1 <0>        -0.1221
     32 H2          2.2416    0.5296   -1.1416 H         1 <0>         0.0717
     33 H3          0.6221    0.8435   -1.8101 H         1 <0>         0.0712
     34 H4          0.9057    0.9896   -0.0590 H         1 <0>         0.0846
     35 H5          1.3585   -1.4449    0.0707 H         1 <0>         0.0653
     36 H6         -0.2610   -1.1311   -0.5978 H         1 <0>         0.0610
     37 H7          0.0735   -3.1030    0.0102 H         1 <0>         0.1377
     38 H8          0.1701   -6.8779   -1.9721 H         1 <0>         0.1385
     39 H9          1.2004   -5.8252   -3.9439 H         1 <0>         0.1506
     40 H10         2.7434   -3.2684   -4.1575 H         1 <0>         0.4011
     41 H11        -0.2360   -6.7386    0.4138 H         1 <0>         0.1394
     42 H12        -0.2764   -5.1633    1.2416 H         1 <0>         0.1469
     43 H13        -1.9274   -6.0799   -1.8427 H         1 <0>         0.1388
     44 H14        -2.1368   -7.5024   -0.8001 H         1 <0>         0.1365
     45 H15        -4.1619   -6.5748   -2.2258 H         1 <0>         0.1301
     46 H16        -4.4245   -7.1688   -0.5696 H         1 <0>         0.1052
     47 H17        -3.6976   -4.2704   -0.9484 H         1 <0>         0.0785
     48 H18        -5.3583   -4.7861   -1.3375 H         1 <0>         0.1258
     49 H19        -6.7537   -4.1003    0.7264 H         1 <0>         0.1752
     50 H20        -6.5759   -4.4754    3.3145 H         1 <0>         0.1494
     51 H21        -4.2229   -5.6805    3.7981 H         1 <0>         0.1438
     52 H22        -0.3949   -3.3741    4.3175 H         1 <0>         0.1344
     53 H23        -0.0064   -7.5672    4.9928 H         1 <0>         0.1365
     54 H24        -0.8285   -8.7854    2.2520 H         1 <0>         0.0802
     55 H25        -1.5646   -9.0418    3.8522 H         1 <0>         0.0863
     56 H26        -2.5581   -8.4463    2.5007 H         1 <0>         0.0700
     57 H27         0.1796   -5.0806    6.8566 H         1 <0>         0.0833
     58 H28         1.4922   -5.9910    6.0714 H         1 <0>         0.0758
     59 H29         1.3304   -4.2410    5.7893 H         1 <0>         0.0746
     60 H30        -3.0324   -3.2841    2.4998 H         1 <0>         0.0978
     61 H31        -1.3960   -2.6118    2.3038 H         1 <0>         0.0844
     62 H32        -2.0353   -3.7614    1.1047 H         1 <0>         0.0305
     63 H33        -2.3360   -4.7166    0.0793 H         1 <0>         0.4157
@<TRIPOS>BOND
     1    1    2 1
     2    1   32 1
     3    1   33 1
     4    1   34 1
     5    2    3 1
     6    2   35 1
     7    2   36 1
     8    3    4 1
     9    4    9 ar
    10    4    5 ar
    11    5    6 ar
    12    5   37 1
    13    6    7 ar
    14    6   11 1
    15    7    8 ar
    16    7   38 1
    17    8    9 ar
    18    8   39 1
    19    9   10 1
    20   10   40 1
    21   11   12 1
    22   11   41 1
    23   11   42 1
    24   12   21 1
    25   12   13 1
    26   12   63 1
    27   13   14 1
    28   13   43 1
    29   13   44 1
    30   14   15 1
    31   14   45 1
    32   14   46 1
    33   15   16 1
    34   15   47 1
    35   15   48 1
    36   16   20 1
    37   16   17 1
    38   17   18 2
    39   17   49 1
    40   18   19 1
    41   18   50 1
    42   19   20 2
    43   19   51 1
    44   20   21 1
    45   21   22 1
    46   21   23 1
    47   23   28 ar
    48   23   24 ar
    49   24   25 ar
    50   24   31 1
    51   25   26 ar
    52   25   52 1
    53   26   27 ar
    54   26   30 1
    55   27   28 ar
    56   27   53 1
    57   28   29 1
    58   29   54 1
    59   29   55 1
    60   29   56 1
    61   30   57 1
    62   30   58 1
    63   30   59 1
    64   31   60 1
    65   31   61 1
    66   31   62 1
@<TRIPOS>MOLECULE
ZINC39709261
   60    63     0     0     0
SMALL
USER_CHARGES

@<TRIPOS>ATOM
      1 C1          0.8692    1.8407    0.6166 C.3       1 <0>        -0.1291
      2 C2          0.8054    0.3449    0.4448 C.ar      1 <0>        -0.1310
      3 C3          0.9047   -0.2003   -0.8355 C.ar      1 <0>         0.0936
      4 C4          0.8560   -1.5379   -1.0684 C.ar      1 <0>        -0.2242
      5 C5          0.7001   -2.4432   -0.0026 C.ar      1 <0>         0.3523
      6 N1          0.6541   -3.7535   -0.2429 N.am      1 <0>        -0.5965
      7 C6          0.5090   -4.6579    0.7110 C.2       1 <0>         0.5124
      8 O1          0.4739   -5.8411    0.4304 O.2       1 <0>        -0.4232
      9 C7          0.3873   -4.2157    2.1518 C.3       1 <0>        -0.1619
     10 H1         -0.5579   -4.5955    2.5395 H         1 <0>         0.1853
     11 C8          0.4396   -2.7262    2.4305 C.2       1 <0>         0.1653
     12 C9          0.5925   -1.8952    1.3606 C.ar      1 <0>        -0.1888
     13 C10         0.6579   -0.4444    1.5401 C.ar      1 <0>         0.0150
     14 C11         1.5151   -4.8804    2.9437 C.3       1 <0>         0.1367
     15 N2          1.1759   -6.2838    3.1922 N.pl3     1 <0>        -0.5727
     16 C12         1.6536   -7.3255    2.2796 C.3       1 <0>         0.1314
     17 C13         2.5367   -8.3108    3.0479 C.3       1 <0>        -0.1460
     18 C14         3.0356   -9.3987    2.0948 C.3       1 <0>        -0.1157
     19 C15         1.8389  -10.1435    1.4998 C.3       1 <0>        -0.1294
     20 C16         0.9558   -9.1583    0.7315 C.3       1 <0>        -0.1121
     21 C17         0.4568   -8.0703    1.6846 C.3       1 <0>        -0.1470
     22 C18         0.4243   -6.6165    4.2604 C.2       1 <0>         0.5600
     23 S1         -0.0703   -5.4089    5.3686 S.2       1 <0>        -0.6389
     24 N3          0.0621   -7.8998    4.4561 N.pl3     1 <0>        -0.6698
     25 C19        -0.8527   -8.2445    5.5473 C.3       1 <0>         0.1587
     26 C20        -1.0950   -9.7319    5.5487 C.ar      1 <0>        -0.1265
     27 C21        -2.1359  -10.2632    4.8104 C.ar      1 <0>        -0.0988
     28 C22        -2.3583  -11.6276    4.8117 C.ar      1 <0>        -0.1198
     29 C23        -1.5395  -12.4606    5.5509 C.ar      1 <0>        -0.1021
     30 C24        -0.4980  -11.9293    6.2885 C.ar      1 <0>        -0.1187
     31 C25        -0.2730  -10.5654    6.2838 C.ar      1 <0>        -0.0972
     32 H2          1.9062    2.1464    0.7560 H         1 <0>         0.0896
     33 H3          0.4636    2.3260   -0.2711 H         1 <0>         0.0837
     34 H4          0.2842    2.1315    1.4891 H         1 <0>         0.0845
     35 H5          1.0248    0.4679   -1.6755 H         1 <0>         0.1662
     36 H6          0.9373   -1.9092   -2.0793 H         1 <0>         0.1697
     37 H7          0.3589   -2.3394    3.4356 H         1 <0>         0.2065
     38 H8          0.5863   -0.0088    2.5258 H         1 <0>         0.1755
     39 H9          2.4415   -4.8263    2.3719 H         1 <0>         0.1048
     40 H10         1.6445   -4.3640    3.8948 H         1 <0>         0.1439
     41 H11         2.2324   -6.8682    1.4772 H         1 <0>         0.1050
     42 H12         3.3893   -7.7802    3.4718 H         1 <0>         0.0777
     43 H13         1.9579   -8.7682    3.8503 H         1 <0>         0.0680
     44 H14         3.6145   -8.9413    1.2925 H         1 <0>         0.0688
     45 H15         3.6648  -10.1006    2.6422 H         1 <0>         0.0753
     46 H16         2.1943  -10.9186    0.8208 H         1 <0>         0.0734
     47 H17         1.2601  -10.6009    2.3022 H         1 <0>         0.0627
     48 H18         1.5346   -8.7009   -0.0709 H         1 <0>         0.0676
     49 H19         0.1032   -9.6888    0.3076 H         1 <0>         0.0713
     50 H20        -0.1220   -8.5277    2.4870 H         1 <0>         0.0639
     51 H21        -0.1723   -7.3684    1.1373 H         1 <0>         0.1004
     52 H22         0.4070   -8.5952    3.8744 H         1 <0>         0.4096
     53 H23        -0.4115   -7.9473    6.4987 H         1 <0>         0.1027
     54 H24        -1.7990   -7.7223    5.4067 H         1 <0>         0.0974
     55 H25        -2.7757   -9.6124    4.2328 H         1 <0>         0.1229
     56 H26        -3.1719  -12.0426    4.2354 H         1 <0>         0.1276
     57 H27        -1.7136  -13.5265    5.5525 H         1 <0>         0.1281
     58 H28         0.1415  -12.5801    6.8663 H         1 <0>         0.1286
     59 H29         0.5429  -10.1507    6.8571 H         1 <0>         0.1254
     60 H30         0.7304   -4.0580   -1.1607 H         1 <0>         0.4380
@<TRIPOS>BOND
     1    1    2 1
     2    1   32 1
     3    1   33 1
     4    1   34 1
     5    2   13 ar
     6    2    3 ar
     7    3    4 ar
     8    3   35 1
     9    4    5 ar
    10    4   36 1
    11    5   12 ar
    12    5    6 2
    13    6    7 am
    14    6   60 1
    15    7    8 2
    16    7    9 1
    17    9   10 1
    18    9   11 1
    19    9   14 1
    20   11   12 2
    21   11   37 1
    22   12   13 ar
    23   13   38 1
    24   14   15 1
    25   14   39 1
    26   14   40 1
    27   15   16 1
    28   15   22 1
    29   16   21 1
    30   16   17 1
    31   16   41 1
    32   17   18 1
    33   17   42 1
    34   17   43 1
    35   18   19 1
    36   18   44 1
    37   18   45 1
    38   19   20 1
    39   19   46 1
    40   19   47 1
    41   20   21 1
    42   20   48 1
    43   20   49 1
    44   21   50 1
    45   21   51 1
    46   22   23 2
    47   22   24 1
    48   24   25 1
    49   24   52 1
    50   25   26 1
    51   25   53 1
    52   25   54 1
    53   26   31 ar
    54   26   27 ar
    55   27   28 ar
    56   27   55 1
    57   28   29 ar
    58   28   56 1
    59   29   30 ar
    60   29   57 1
    61   30   31 ar
    62   30   58 1
    63   31   59 1
@<TRIPOS>MOLECULE
ZINC41510643
   61    63     0     0     0
SMALL
USER_CHARGES

@<TRIPOS>ATOM
      1 C1         -1.5867    2.0025    0.0564 C.3       1 <0>        -0.1876
      2 C2         -1.7499    0.6243    0.7006 C.3       1 <0>        -0.0178
      3 N1         -1.3430   -0.4143   -0.2553 N.4       1 <0>        -0.3867
      4 C3          0.0928   -0.2848   -0.5373 C.3       1 <0>        -0.0155
      5 C4          0.4850   -1.2632   -1.6463 C.3       1 <0>        -0.1919
      6 C5         -1.6118   -1.7398    0.3181 C.3       1 <0>         0.0462
      7 C6         -3.0973   -1.9164    0.5003 C.ar      1 <0>        -0.2162
      8 C7         -3.6764   -1.6816    1.7373 C.ar      1 <0>         0.2100
      9 C8         -5.0472   -1.8415    1.9192 C.ar      1 <0>        -0.1824
     10 C9         -5.8371   -2.2327    0.8751 C.ar      1 <0>         0.0784
     11 C10        -5.2678   -2.4721   -0.3758 C.ar      1 <0>        -0.2654
     12 C11        -3.8868   -2.3092   -0.5730 C.ar      1 <0>         0.1746
     13 O1         -3.5731   -2.5894   -1.8566 O.3       1 <0>        -0.2097
     14 C12        -4.6648   -2.9372   -2.5775 C.2       1 <0>        -0.0683
     15 C13        -4.6838   -3.2753   -3.8905 C.2       1 <0>         0.0216
     16 C14        -3.4216   -3.4298   -4.6280 C.ar      1 <0>        -0.1020
     17 C15        -2.1989   -3.3725   -3.9496 C.ar      1 <0>        -0.0922
     18 C16        -1.0197   -3.5183   -4.6487 C.ar      1 <0>        -0.1266
     19 C17        -1.0428   -3.7203   -6.0179 C.ar      1 <0>        -0.0371
     20 C18        -2.2480   -3.7777   -6.6965 C.ar      1 <0>        -0.1241
     21 C19        -3.4364   -3.6406   -6.0114 C.ar      1 <0>        -0.0749
     22 C20         0.2512   -3.8781   -6.7740 C.3       1 <0>        -0.0361
     23 C21         1.0142   -5.0884   -6.2321 C.3       1 <0>        -0.1406
     24 C22        -0.0486   -4.0876   -8.2597 C.3       1 <0>        -0.1501
     25 C23         1.1016   -2.6184   -6.5980 C.3       1 <0>        -0.1381
     26 C24        -5.8258   -2.8942   -1.6734 C.2       1 <0>         0.4150
     27 O2         -6.9890   -3.1400   -1.9407 O.2       1 <0>        -0.4002
     28 C25        -7.3208   -2.4056    1.0747 C.3       1 <0>        -0.1414
     29 O3         -2.9001   -1.2927    2.7806 O.3       1 <0>        -0.4817
     30 H1         -1.8886    2.7731    0.7657 H         1 <0>         0.1078
     31 H2         -0.5433    2.1526   -0.2209 H         1 <0>         0.0835
     32 H3         -2.2118    2.0635   -0.8344 H         1 <0>         0.0802
     33 H4         -1.1248    0.5633    1.5914 H         1 <0>         0.1342
     34 H5         -2.7933    0.4742    0.9779 H         1 <0>         0.1187
     35 H6          0.3096    0.7341   -0.8583 H         1 <0>         0.1342
     36 H7          0.6620   -0.5105    0.3644 H         1 <0>         0.1320
     37 H8         -0.0390   -0.9999   -2.5651 H         1 <0>         0.0823
     38 H9          1.5608   -1.2104   -1.8136 H         1 <0>         0.1082
     39 H10         0.2126   -2.2762   -1.3501 H         1 <0>         0.0798
     40 H11        -1.2342   -2.5099   -0.3545 H         1 <0>         0.1408
     41 H12        -1.1145   -1.8254    1.2842 H         1 <0>         0.1483
     42 H13        -5.4873   -1.6563    2.8879 H         1 <0>         0.1572
     43 H14        -5.6262   -3.4312   -4.3945 H         1 <0>         0.1706
     44 H15        -2.1792   -3.2143   -2.8814 H         1 <0>         0.1335
     45 H16        -0.0753   -3.4744   -4.1267 H         1 <0>         0.1243
     46 H17        -2.2574   -3.9353   -7.7649 H         1 <0>         0.1373
     47 H18        -4.3760   -3.6908   -6.5415 H         1 <0>         0.1339
     48 H19         0.4083   -5.9858   -6.3575 H         1 <0>         0.0591
     49 H20         1.9501   -5.2026   -6.7790 H         1 <0>         0.0646
     50 H21         1.2277   -4.9392   -5.1737 H         1 <0>         0.0555
     51 H22        -0.5922   -3.2253   -8.6458 H         1 <0>         0.0609
     52 H23         0.8874   -4.2017   -8.8066 H         1 <0>         0.0643
     53 H24        -0.6544   -4.9850   -8.3851 H         1 <0>         0.0617
     54 H25         1.3151   -2.4692   -5.5396 H         1 <0>         0.0539
     55 H26         2.0375   -2.7326   -7.1449 H         1 <0>         0.0645
     56 H27         0.5580   -1.7562   -6.9841 H         1 <0>         0.0574
     57 H28        -7.8276   -1.4632    0.8669 H         1 <0>         0.0947
     58 H29        -7.6914   -3.1746    0.3969 H         1 <0>         0.0896
     59 H30        -7.5166   -2.7040    2.1046 H         1 <0>         0.0867
     60 H31        -2.8028   -0.3341    2.8625 H         1 <0>         0.3996
     61 H32        -1.8651   -0.3062   -1.1119 H         1 <0>         0.4216
@<TRIPOS>BOND
     1    1    2 1
     2    1   30 1
     3    1   31 1
     4    1   32 1
     5    2    3 1
     6    2   33 1
     7    2   34 1
     8    3    4 1
     9    3    6 1
    10    3   61 1
    11    4    5 1
    12    4   35 1
    13    4   36 1
    14    5   37 1
    15    5   38 1
    16    5   39 1
    17    6    7 1
    18    6   40 1
    19    6   41 1
    20    7   12 ar
    21    7    8 ar
    22    8    9 ar
    23    8   29 1
    24    9   10 ar
    25    9   42 1
    26   10   11 ar
    27   10   28 1
    28   11   26 1
    29   11   12 ar
    30   12   13 1
    31   13   14 1
    32   14   15 2
    33   14   26 1
    34   15   16 1
    35   15   43 1
    36   16   21 ar
    37   16   17 ar
    38   17   18 ar
    39   17   44 1
    40   18   19 ar
    41   18   45 1
    42   19   20 ar
    43   19   22 1
    44   20   21 ar
    45   20   46 1
    46   21   47 1
    47   22   23 1
    48   22   24 1
    49   22   25 1
    50   23   48 1
    51   23   49 1
    52   23   50 1
    53   24   51 1
    54   24   52 1
    55   24   53 1
    56   25   54 1
    57   25   55 1
    58   25   56 1
    59   26   27 2
    60   28   57 1
    61   28   58 1
    62   28   59 1
    63   29   60 1
@<TRIPOS>MOLECULE
ZINC63494377
   55    59     0     0     0
SMALL
USER_CHARGES

@<TRIPOS>ATOM
      1 C1          0.0135    1.6190    0.0739 C.3       1 <0>        -0.1264
      2 C2          0.0115    0.1121    0.0519 C.ar      1 <0>        -0.1033
      3 C3         -0.0019   -0.5584   -1.1671 C.ar      1 <0>         0.0324
      4 C4         -0.0041   -1.9207   -1.2179 C.ar      1 <0>        -0.1811
      5 C5          0.0078   -2.6688   -0.0297 C.ar      1 <0>         0.2917
      6 N1          0.0062   -4.0072   -0.0796 N.am      1 <0>        -0.6015
      7 C6          0.0165   -4.7838    0.9849 C.2       1 <0>         0.5707
      8 O1          0.0137   -5.9978    0.8493 O.2       1 <0>        -0.4554
      9 C7          0.0321   -4.1897    2.3593 C.2       1 <0>        -0.2168
     10 C8          0.0447   -4.8481    3.5349 C.2       1 <0>         0.0895
     11 C9          0.0594   -3.9709    4.7664 C.3       1 <0>        -0.1689
     12 H1         -0.8319   -4.1334    5.3725 H         1 <0>         0.2121
     13 S1          0.0527   -2.2925    4.0230 S.3       1 <0>         0.3292
     14 C10         0.0342   -2.7198    2.4079 C.2       1 <0>         0.0344
     15 C11         0.0220   -1.9832    1.2117 C.ar      1 <0>        -0.1340
     16 C12         0.0285   -0.5794    1.2266 C.ar      1 <0>        -0.0258
     17 C13         1.3092   -4.1986    5.5770 C.2       1 <0>         0.5383
     18 O2          2.3580   -4.4423    5.0188 O.2       1 <0>        -0.4926
     19 N2          1.2616   -4.1315    6.9222 N.am      1 <0>        -0.6974
     20 C14         2.4766   -4.3528    7.7102 C.3       1 <0>         0.1260
     21 C15         2.1783   -4.0999    9.1894 C.3       1 <0>        -0.0328
     22 C16         1.6355   -2.6729    9.3811 C.3       1 <0>        -0.1187
     23 C17         2.6252   -1.9468   10.3154 C.3       1 <0>        -0.1252
     24 C18         3.9542   -2.7222   10.1374 C.3       1 <0>        -0.1277
     25 C19         3.4789   -4.1911   10.0139 C.3       1 <0>        -0.1096
     26 C20         1.1761   -5.1065    9.6930 C.ar      1 <0>        -0.0811
     27 C21         0.7672   -6.1432    8.8752 C.ar      1 <0>        -0.1311
     28 C22        -0.1520   -7.0665    9.3371 C.ar      1 <0>        -0.1161
     29 C23        -0.6620   -6.9533   10.6170 C.ar      1 <0>        -0.1174
     30 C24        -0.2524   -5.9171   11.4351 C.ar      1 <0>        -0.1117
     31 C25         0.6701   -4.9962   10.9746 C.ar      1 <0>        -0.1089
     32 H2          1.0415    1.9811    0.0637 H         1 <0>         0.0871
     33 H3         -0.5133    1.9958   -0.8028 H         1 <0>         0.0832
     34 H4         -0.4863    1.9698    0.9768 H         1 <0>         0.0790
     35 H5         -0.0111    0.0085   -2.0863 H         1 <0>         0.1619
     36 H6         -0.0153   -2.4249   -2.1729 H         1 <0>         0.1649
     37 H7          0.0440   -5.9266    3.5934 H         1 <0>         0.2085
     38 H8          0.0433   -0.0484    2.1669 H         1 <0>         0.1515
     39 H9          0.4227   -3.9365    7.3686 H         1 <0>         0.4119
     40 H10         2.8130   -5.3811    7.5781 H         1 <0>         0.0856
     41 H11         3.2567   -3.6694    7.3748 H         1 <0>         0.0891
     42 H12         1.5846   -2.1605    8.4204 H         1 <0>         0.0665
     43 H13         0.6469   -2.7078    9.8390 H         1 <0>         0.0744
     44 H14         2.7460   -0.9075   10.0097 H         1 <0>         0.0696
     45 H15         2.2857   -2.0042   11.3496 H         1 <0>         0.0703
     46 H16         4.4680   -2.4048    9.2300 H         1 <0>         0.0689
     47 H17         4.5951   -2.5956   11.0099 H         1 <0>         0.0744
     48 H18         3.2772   -4.6110   10.9993 H         1 <0>         0.0806
     49 H19         4.2227   -4.7898    9.4881 H         1 <0>         0.0743
     50 H20         1.1656   -6.2317    7.8753 H         1 <0>         0.1213
     51 H21        -0.4721   -7.8761    8.6980 H         1 <0>         0.1218
     52 H22        -1.3807   -7.6743   10.9776 H         1 <0>         0.1241
     53 H23        -0.6510   -5.8285   12.4349 H         1 <0>         0.1255
     54 H24         0.9930   -4.1888   11.6151 H         1 <0>         0.1245
     55 H25        -0.0035   -4.4305   -0.9523 H         1 <0>         0.4403
@<TRIPOS>BOND
     1    1    2 1
     2    1   32 1
     3    1   33 1
     4    1   34 1
     5    2   16 ar
     6    2    3 ar
     7    3    4 ar
     8    3   35 1
     9    4    5 ar
    10    4   36 1
    11    5   15 ar
    12    5    6 2
    13    6    7 am
    14    6   55 1
    15    7    8 2
    16    7    9 1
    17    9   14 1
    18    9   10 2
    19   10   11 1
    20   10   37 1
    21   11   12 1
    22   11   13 1
    23   11   17 1
    24   13   14 1
    25   14   15 2
    26   15   16 ar
    27   16   38 1
    28   17   18 2
    29   17   19 am
    30   19   20 1
    31   19   39 1
    32   20   21 1
    33   20   40 1
    34   20   41 1
    35   21   25 1
    36   21   22 1
    37   21   26 1
    38   22   23 1
    39   22   42 1
    40   22   43 1
    41   23   24 1
    42   23   44 1
    43   23   45 1
    44   24   25 1
    45   24   46 1
    46   24   47 1
    47   25   48 1
    48   25   49 1
    49   26   31 ar
    50   26   27 ar
    51   27   28 ar
    52   27   50 1
    53   28   29 ar
    54   28   51 1
    55   29   30 ar
    56   29   52 1
    57   30   31 ar
    58   30   53 1
    59   31   54 1
@<TRIPOS>MOLECULE
ZINC19608531
   64    69     0     0     0
SMALL
USER_CHARGES
(7S)-3-indan-2-yl-7-[2-(2-methoxyphenyl)ethylamino]-5,6,7,8-tetrahydrobenzothiopheno[3,2-e]pyrimidin-4-one
@<TRIPOS>ATOM
      1 C1          3.1310    4.7357    2.9255 C.3       1 <0>         0.0201
      2 O1          2.7898    3.4765    2.3424 O.3       1 <0>        -0.3225
      3 C2          3.7961    2.7739    1.7587 C.ar      1 <0>         0.1362
      4 C3          5.0857    3.2858    1.7480 C.ar      1 <0>        -0.2037
      5 C4          6.1068    2.5696    1.1545 C.ar      1 <0>        -0.0643
      6 C5          5.8447    1.3433    0.5715 C.ar      1 <0>        -0.1512
      7 C6          4.5617    0.8288    0.5855 C.ar      1 <0>        -0.0715
      8 C7          3.5358    1.5437    1.1732 C.ar      1 <0>        -0.1402
      9 C8          2.1364    0.9845    1.1836 C.3       1 <0>        -0.0890
     10 C9          1.3525    1.5499   -0.0025 C.3       1 <0>        -0.0007
     11 N1         -0.0116    1.0048    0.0076 N.4       1 <0>        -0.5391
     12 C10        -0.7955    1.5269   -1.1198 C.3       1 <0>         0.0383
     13 H1         -0.0991    1.6418   -1.9635 H         1 <0>         0.1396
     14 C11        -1.9181    0.5437   -1.4643 C.3       1 <0>        -0.1398
     15 C12        -2.5790    0.9507   -2.7813 C.3       1 <0>        -0.0601
     16 C13        -2.9962    2.4164   -2.6937 C.2       1 <0>        -0.0276
     17 C14        -2.4509    3.2314   -1.7602 C.2       1 <0>        -0.2160
     18 S1         -3.2141    4.8128   -2.0212 S.3       1 <0>         0.1899
     19 C15        -4.2577    4.3798   -3.3768 C.2       1 <0>         0.1098
     20 C16        -3.9775    3.0109   -3.5834 C.2       1 <0>        -0.2670
     21 C17        -4.6867    2.3538   -4.6446 C.2       1 <0>         0.5640
     22 O2         -4.5182    1.1749   -4.9046 O.2       1 <0>        -0.5090
     23 N2         -5.5552    3.1276   -5.3379 N.am      1 <0>        -0.5243
     24 C18        -5.7578    4.4390   -5.0649 C.2       1 <0>         0.3912
     25 N3         -5.1281    5.0756   -4.1019 N.2       1 <0>        -0.4716
     26 C19        -6.3109    2.5182   -6.4350 C.3       1 <0>         0.1045
     27 C20        -6.0867    3.2916   -7.7518 C.3       1 <0>        -0.0881
     28 C21        -7.4187    3.2315   -8.4747 C.ar      1 <0>        -0.0965
     29 C22        -7.7282    3.4677   -9.8038 C.ar      1 <0>        -0.0989
     30 C23        -9.0311    3.3478  -10.2459 C.ar      1 <0>        -0.1115
     31 C24       -10.0304    2.9913   -9.3595 C.ar      1 <0>        -0.1114
     32 C25        -9.7237    2.7557   -8.0337 C.ar      1 <0>        -0.0988
     33 C26        -8.4177    2.8750   -7.5885 C.ar      1 <0>        -0.0961
     34 C27        -7.8297    2.6742   -6.2083 C.3       1 <0>        -0.0881
     35 C28        -1.4240    2.8726   -0.7310 C.3       1 <0>        -0.0424
     36 H2          2.2305    5.1949    3.3594 H         1 <0>         0.1072
     37 H3          3.5437    5.3987    2.1508 H         1 <0>         0.0611
     38 H4          3.8814    4.5828    3.7151 H         1 <0>         0.0625
     39 H5          5.2909    4.2433    2.2035 H         1 <0>         0.1342
     40 H6          7.1107    2.9677    1.1456 H         1 <0>         0.1322
     41 H7          6.6445    0.7848    0.1080 H         1 <0>         0.1313
     42 H8          4.3603   -0.1310    0.1331 H         1 <0>         0.1319
     43 H9          2.1791   -0.1119    1.1058 H         1 <0>         0.0939
     44 H10         1.6359    1.2663    2.1217 H         1 <0>         0.0978
     45 H11         1.3098    2.6463    0.0754 H         1 <0>         0.1298
     46 H12         1.8530    1.2682   -0.9406 H         1 <0>         0.1289
     47 H13         0.0311   -0.0916   -0.0702 H         1 <0>         0.4501
     48 H14        -1.5004   -0.4689   -1.5653 H         1 <0>         0.0966
     49 H15        -2.6712    0.5514   -0.6625 H         1 <0>         0.0948
     50 H16        -1.8646    0.8164   -3.6069 H         1 <0>         0.0929
     51 H17        -3.4645    0.3222   -2.9568 H         1 <0>         0.1088
     52 H18        -6.4692    4.9866   -5.6653 H         1 <0>         0.2147
     53 H19        -5.9473    1.4800   -6.4397 H         1 <0>         0.1376
     54 H20        -5.7952    4.3274   -7.5236 H         1 <0>         0.0898
     55 H21        -5.2882    2.8053   -8.3313 H         1 <0>         0.0924
     56 H22        -6.9481    3.7462  -10.4969 H         1 <0>         0.1244
     57 H23        -9.2691    3.5327  -11.2830 H         1 <0>         0.1295
     58 H24       -11.0499    2.8978   -9.7034 H         1 <0>         0.1296
     59 H25       -10.5048    2.4768   -7.3420 H         1 <0>         0.1245
     60 H26        -8.2240    1.7661   -5.7288 H         1 <0>         0.0923
     61 H27        -8.0163    3.5422   -5.5589 H         1 <0>         0.0897
     62 H28        -1.8980    2.7839    0.2577 H         1 <0>         0.1050
     63 H29        -0.6422    3.6456   -0.6948 H         1 <0>         0.1049
     64 H30        -0.5121    1.2866    0.9457 H         1 <0>         0.4473
@<TRIPOS>BOND
     1    1    2 1
     2    1   36 1
     3    1   37 1
     4    1   38 1
     5    2    3 1
     6    3    8 ar
     7    3    4 ar
     8    4    5 ar
     9    4   39 1
    10    5    6 ar
    11    5   40 1
    12    6    7 ar
    13    6   41 1
    14    7    8 ar
    15    7   42 1
    16    8    9 1
    17    9   10 1
    18    9   43 1
    19    9   44 1
    20   10   11 1
    21   10   45 1
    22   10   46 1
    23   11   12 1
    24   11   47 1
    25   11   64 1
    26   12   13 1
    27   12   35 1
    28   12   14 1
    29   14   15 1
    30   14   48 1
    31   14   49 1
    32   15   16 1
    33   15   50 1
    34   15   51 1
    35   16   20 1
    36   16   17 2
    37   17   18 1
    38   17   35 1
    39   18   19 1
    40   19   25 1
    41   19   20 2
    42   20   21 1
    43   21   22 2
    44   21   23 am
    45   23   24 1
    46   23   26 1
    47   24   25 2
    48   24   52 1
    49   26   34 1
    50   26   27 1
    51   26   53 1
    52   27   28 1
    53   27   54 1
    54   27   55 1
    55   28   33 ar
    56   28   29 ar
    57   29   30 ar
    58   29   56 1
    59   30   31 ar
    60   30   57 1
    61   31   32 ar
    62   31   58 1
    63   32   33 ar
    64   32   59 1
    65   33   34 1
    66   34   60 1
    67   34   61 1
    68   35   62 1
    69   35   63 1
@<TRIPOS>MOLECULE
ZINC35880237
   57    61     0     0     0
SMALL
USER_CHARGES

@<TRIPOS>ATOM
      1 C1         -2.7993    1.9319    0.9295 C.3       1 <0>        -0.0471
      2 N1         -3.4640    0.6238    0.8572 N.4       1 <0>        -0.5022
      3 C2         -2.9798   -0.1069   -0.3216 C.3       1 <0>         0.0055
      4 H1         -3.1044    0.4927   -1.2233 H         1 <0>         0.1585
      5 C3         -1.4959   -0.5218   -0.1391 C.3       1 <0>        -0.1472
      6 C4         -1.4065   -1.7679   -1.0550 C.3       1 <0>         0.1173
      7 N2         -2.7036   -2.4496   -0.8926 N.pl3     1 <0>        -0.6205
      8 C5         -3.7070   -1.4608   -0.4615 C.3       1 <0>         0.1103
      9 C6         -2.9421   -3.8020   -1.1140 C.ar      1 <0>         0.4123
     10 C7         -1.8791   -4.6473   -1.4176 C.ar      1 <0>        -0.2092
     11 C8         -2.1266   -5.9894   -1.6354 C.ar      1 <0>        -0.0113
     12 C9         -3.4412   -6.4464   -1.5416 C.ar      1 <0>         0.0571
     13 C10        -4.4501   -5.5455   -1.2349 C.ar      1 <0>         0.1691
     14 N3         -4.1769   -4.2715   -1.0282 N.ar      1 <0>        -0.5266
     15 N4         -3.7387   -7.7982   -1.7548 N.am      1 <0>        -0.3821
     16 C11        -3.0082   -8.7387   -1.1210 C.2       1 <0>         0.5320
     17 O1         -2.1016   -8.4196   -0.3723 O.2       1 <0>        -0.5072
     18 C12        -3.3256  -10.1528   -1.3492 C.ar      1 <0>        -0.1216
     19 C13        -2.6115  -11.1774   -0.7262 C.ar      1 <0>        -0.0480
     20 C14        -2.9420  -12.4792   -0.9678 C.ar      1 <0>        -0.0966
     21 C15        -3.9920  -12.8015   -1.8357 C.ar      1 <0>        -0.0145
     22 C16        -4.7170  -11.7995   -2.4671 C.ar      1 <0>        -0.0790
     23 C17        -4.3892  -10.4653   -2.2286 C.ar      1 <0>        -0.0676
     24 C18        -5.1174   -9.3673   -2.8646 C.2       1 <0>         0.1322
     25 N5         -4.7860   -8.1354   -2.6125 N.2       1 <0>        -0.2385
     26 C19        -4.3325  -14.2239   -2.0831 C.ar      1 <0>        -0.0280
     27 C20        -5.3726  -14.5536   -2.9501 C.ar      1 <0>        -0.1057
     28 C21        -5.6847  -15.8787   -3.1769 C.ar      1 <0>        -0.0657
     29 C22        -4.9675  -16.8787   -2.5451 C.ar      1 <0>        -0.1732
     30 C23        -3.9341  -16.5573   -1.6835 C.ar      1 <0>        -0.0655
     31 C24        -3.6096  -15.2357   -1.4537 C.ar      1 <0>        -0.1050
     32 C25        -5.3137  -18.3238   -2.7960 C.3       1 <0>         0.5067
     33 F1         -4.5715  -18.7992   -3.8825 F         1 <0>        -0.1738
     34 F2         -5.0118  -19.0800   -1.6584 F         1 <0>        -0.1747
     35 F3         -6.6791  -18.4337   -3.0802 F         1 <0>        -0.1748
     36 H2         -3.1586    2.4741    1.8042 H         1 <0>         0.1296
     37 H3         -1.7218    1.7880    1.0085 H         1 <0>         0.1241
     38 H4         -3.0245    2.5041    0.0296 H         1 <0>         0.1258
     39 H5         -3.2555    0.0941    1.6903 H         1 <0>         0.4305
     40 H6         -0.8250    0.2651   -0.4834 H         1 <0>         0.1158
     41 H7         -1.2883   -0.7838    0.8984 H         1 <0>         0.1001
     42 H8         -1.2637   -1.4665   -2.0927 H         1 <0>         0.0839
     43 H9         -0.5933   -2.4182   -0.7326 H         1 <0>         0.0965
     44 H10        -4.1286   -1.7562    0.4994 H         1 <0>         0.0814
     45 H11        -4.4982   -1.3815   -1.2070 H         1 <0>         0.0977
     46 H12        -0.8733   -4.2592   -1.4826 H         1 <0>         0.1405
     47 H13        -1.3211   -6.6685   -1.8731 H         1 <0>         0.1440
     48 H14        -5.4704   -5.8915   -1.1608 H         1 <0>         0.1665
     49 H15        -1.7992  -10.9407   -0.0550 H         1 <0>         0.1477
     50 H16        -2.3871  -13.2696   -0.4843 H         1 <0>         0.1434
     51 H17        -5.5264  -12.0511   -3.1365 H         1 <0>         0.1494
     52 H18        -5.9332   -9.5797   -3.5398 H         1 <0>         0.2057
     53 H19        -5.9337  -13.7736   -3.4433 H         1 <0>         0.1412
     54 H20        -6.4905  -16.1353   -3.8485 H         1 <0>         0.1430
     55 H21        -3.3778  -17.3421   -1.1927 H         1 <0>         0.1428
     56 H22        -2.7997  -14.9860   -0.7844 H         1 <0>         0.1409
     57 H23        -4.4615    0.7570    0.7841 H         1 <0>         0.4342
@<TRIPOS>BOND
     1    1    2 1
     2    1   36 1
     3    1   37 1
     4    1   38 1
     5    2    3 1
     6    2   39 1
     7    2   57 1
     8    3    4 1
     9    3    8 1
    10    3    5 1
    11    5    6 1
    12    5   40 1
    13    5   41 1
    14    6    7 1
    15    6   42 1
    16    6   43 1
    17    7    8 1
    18    7    9 1
    19    8   44 1
    20    8   45 1
    21    9   14 ar
    22    9   10 ar
    23   10   11 ar
    24   10   46 1
    25   11   12 ar
    26   11   47 1
    27   12   13 ar
    28   12   15 1
    29   13   14 ar
    30   13   48 1
    31   15   25 1
    32   15   16 am
    33   16   17 2
    34   16   18 1
    35   18   23 ar
    36   18   19 ar
    37   19   20 ar
    38   19   49 1
    39   20   21 ar
    40   20   50 1
    41   21   22 ar
    42   21   26 1
    43   22   23 ar
    44   22   51 1
    45   23   24 1
    46   24   25 2
    47   24   52 1
    48   26   31 ar
    49   26   27 ar
    50   27   28 ar
    51   27   53 1
    52   28   29 ar
    53   28   54 1
    54   29   30 ar
    55   29   32 1
    56   30   31 ar
    57   30   55 1
    58   31   56 1
    59   32   33 1
    60   32   34 1
    61   32   35 1
@<TRIPOS>MOLECULE
ZINC38596091
   64    67     0     0     0
SMALL
USER_CHARGES

@<TRIPOS>ATOM
      1 C1          2.6165   -1.7119    1.3735 C.3       1 <0>        -0.1489
      2 C2          1.2189   -1.6438    0.8139 C.ar      1 <0>         0.0554
      3 C3          0.9438   -2.1894   -0.4259 C.ar      1 <0>        -0.1774
      4 C4         -0.3403   -2.1271   -0.9394 C.ar      1 <0>         0.1677
      5 C5         -1.3478   -1.5181   -0.2101 C.ar      1 <0>        -0.1808
      6 C6         -1.0704   -0.9734    1.0290 C.ar      1 <0>         0.0112
      7 C7          0.2113   -1.0408    1.5432 C.ar      1 <0>        -0.6990
      8 S1          0.5621   -0.3517    3.1265 S.o2      1 <0>         2.6969
      9 O1         -0.6525    0.2120    3.6022 O.2       1 <0>        -0.9557
     10 O2          1.2773   -1.3428    3.8514 O.2       1 <0>        -0.9425
     11 N1          1.6088    0.9096    2.8905 N.pl3     1 <0>        -1.1127
     12 C8          1.1778    2.0873    2.1332 C.3       1 <0>         0.1548
     13 H1          0.0910    2.1638    2.1679 H         1 <0>         0.1007
     14 C9          1.6336    1.9534    0.6788 C.3       1 <0>        -0.1782
     15 C10         1.7973    3.3439    2.7482 C.3       1 <0>         0.1747
     16 H2          1.4168    3.4784    3.7607 H         1 <0>         0.0848
     17 C11         3.2964    3.1957    2.7905 C.2       1 <0>        -0.1740
     18 C12         4.0906    2.8461    3.8318 C.2       1 <0>        -0.1357
     19 C13         5.4571    2.7722    3.6374 C.2       1 <0>        -0.1625
     20 C14         5.9627    3.0517    2.4111 C.2       1 <0>        -0.1631
     21 S2          4.4865    3.4276    1.4800 S.3       1 <0>         0.0768
     22 N2          1.4437    4.5135    1.9328 N.3       1 <0>        -0.5289
     23 C15         2.0834    5.7305    2.4521 C.3       1 <0>         0.0228
     24 C16         1.7389    6.9121    1.5427 C.3       1 <0>        -0.0007
     25 N3          0.2812    7.0860    1.4967 N.4       1 <0>        -0.3855
     26 C17        -0.3416    5.8719    0.9531 C.3       1 <0>        -0.0055
     27 C18        -0.0145    4.6817    1.8575 C.3       1 <0>         0.0173
     28 C19        -0.0482    8.2315    0.6381 C.3       1 <0>         0.0462
     29 C20        -1.5326    8.4863    0.6879 C.ar      1 <0>        -0.1625
     30 C21        -2.3723    7.8583   -0.2128 C.ar      1 <0>        -0.0973
     31 C22        -3.7340    8.0920   -0.1671 C.ar      1 <0>        -0.1131
     32 C23        -4.2561    8.9534    0.7796 C.ar      1 <0>        -0.0835
     33 C24        -3.4165    9.5807    1.6810 C.ar      1 <0>        -0.1127
     34 C25        -2.0552    9.3437    1.6380 C.ar      1 <0>        -0.0937
     35 F1         -0.6103   -2.6597   -2.1513 F         1 <0>        -0.1248
     36 H3          2.7095   -2.5896    2.0130 H         1 <0>         0.1054
     37 H4          3.3327   -1.7814    0.5547 H         1 <0>         0.0890
     38 H5          2.8182   -0.8139    1.9574 H         1 <0>         0.0703
     39 H6          1.7303   -2.6638   -0.9939 H         1 <0>         0.1481
     40 H7         -2.3498   -1.4686   -0.6100 H         1 <0>         0.1482
     41 H8         -1.8559   -0.4981    1.5978 H         1 <0>         0.1532
     42 H9          2.5074    0.8687    3.2536 H         1 <0>         0.4216
     43 H10         2.7063    1.7625    0.6504 H         1 <0>         0.0751
     44 H11         1.1045    1.1253    0.2071 H         1 <0>         0.0639
     45 H12         1.4145    2.8769    0.1429 H         1 <0>         0.0821
     46 H13         3.6621    2.6288    4.7990 H         1 <0>         0.1354
     47 H14         6.1123    2.4964    4.4504 H         1 <0>         0.1392
     48 H15         6.9912    3.0447    2.0818 H         1 <0>         0.1886
     49 H16         1.7209    5.9300    3.4605 H         1 <0>         0.0649
     50 H17         3.1643    5.5920    2.4746 H         1 <0>         0.1281
     51 H18         2.2008    7.8185    1.9341 H         1 <0>         0.1372
     52 H19         2.1136    6.7183    0.5377 H         1 <0>         0.1403
     53 H20        -1.4222    6.0072    0.9073 H         1 <0>         0.1380
     54 H21         0.0437    5.6835   -0.0490 H         1 <0>         0.1392
     55 H22        -0.4641    3.7780    1.4463 H         1 <0>         0.1285
     56 H23        -0.4115    4.8639    2.8562 H         1 <0>         0.0688
     57 H24         0.4841    9.1149    0.9908 H         1 <0>         0.1371
     58 H25         0.2489    8.0139   -0.3878 H         1 <0>         0.1368
     59 H26        -1.9645    7.1853   -0.9525 H         1 <0>         0.1314
     60 H27        -4.3900    7.6018   -0.8713 H         1 <0>         0.1363
     61 H28        -5.3198    9.1365    0.8149 H         1 <0>         0.1359
     62 H29        -3.8243   10.2540    2.4204 H         1 <0>         0.1359
     63 H30        -1.3997    9.8310    2.3446 H         1 <0>         0.1306
     64 H31        -0.0669    7.2539    2.4288 H         1 <0>         0.4205
@<TRIPOS>BOND
     1    1    2 1
     2    1   36 1
     3    1   37 1
     4    1   38 1
     5    2    7 ar
     6    2    3 ar
     7    3    4 ar
     8    3   39 1
     9    4    5 ar
    10    4   35 1
    11    5    6 ar
    12    5   40 1
    13    6    7 ar
    14    6   41 1
    15    7    8 1
    16    8    9 2
    17    8   10 2
    18    8   11 1
    19   11   12 1
    20   11   42 1
    21   12   13 1
    22   12   14 1
    23   12   15 1
    24   14   43 1
    25   14   44 1
    26   14   45 1
    27   15   16 1
    28   15   17 1
    29   15   22 1
    30   17   21 1
    31   17   18 2
    32   18   19 1
    33   18   46 1
    34   19   20 2
    35   19   47 1
    36   20   21 1
    37   20   48 1
    38   22   27 1
    39   22   23 1
    40   23   24 1
    41   23   49 1
    42   23   50 1
    43   24   25 1
    44   24   51 1
    45   24   52 1
    46   25   26 1
    47   25   28 1
    48   25   64 1
    49   26   27 1
    50   26   53 1
    51   26   54 1
    52   27   55 1
    53   27   56 1
    54   28   29 1
    55   28   57 1
    56   28   58 1
    57   29   34 ar
    58   29   30 ar
    59   30   31 ar
    60   30   59 1
    61   31   32 ar
    62   31   60 1
    63   32   33 ar
    64   32   61 1
    65   33   34 ar
    66   33   62 1
    67   34   63 1
@<TRIPOS>MOLECULE
ZINC20240608
   61    64     0     0     0
SMALL
USER_CHARGES

@<TRIPOS>ATOM
      1 C1         -0.0167    1.3781    0.0096 C.ar      1 <0>        -0.1161
      2 C2          1.1709    2.0855    0.0021 C.ar      1 <0>        -0.1138
      3 C3          2.3773    1.4107   -0.0130 C.ar      1 <0>        -0.1161
      4 C4          2.3960    0.0285   -0.0201 C.ar      1 <0>        -0.0950
      5 C5          1.2084   -0.6789   -0.0117 C.ar      1 <0>        -0.1213
      6 C6          0.0021   -0.0041    0.0020 C.ar      1 <0>        -0.1160
      7 C7          3.7112   -0.7071   -0.0376 C.3       1 <0>        -0.0747
      8 C8          4.1714   -0.9633    1.3989 C.3       1 <0>        -0.0938
      9 C9          3.1925   -1.9187    2.0876 C.3       1 <0>        -0.1460
     10 C10         3.7009   -2.2331    3.4962 C.3       1 <0>        -0.0060
     11 N1          5.0245   -2.8622    3.4135 N.4       1 <0>        -0.3817
     12 C11         5.9852   -1.9248    2.8194 C.3       1 <0>        -0.0127
     13 C12         5.5647   -1.5986    1.3847 C.3       1 <0>        -0.1416
     14 C13         5.4741   -3.2326    4.7620 C.3       1 <0>         0.0403
     15 C14         6.7749   -3.9876    4.6682 C.ar      1 <0>        -0.1344
     16 C15         6.7639   -5.3651    4.5376 C.ar      1 <0>        -0.0952
     17 C16         7.9511   -6.0624    4.4516 C.ar      1 <0>        -0.0507
     18 C17         9.1654   -5.3751    4.4961 C.ar      1 <0>        -0.0922
     19 C18         9.1693   -3.9853    4.6275 C.ar      1 <0>        -0.0844
     20 C19         7.9748   -3.2998    4.7072 C.ar      1 <0>        -0.1008
     21 C20        10.4411   -6.1156    4.4050 C.2       1 <0>         0.5688
     22 O1         10.4346   -7.3261    4.2911 O.2       1 <0>        -0.4821
     23 N2         11.6118   -5.4491    4.4483 N.am      1 <0>        -0.5782
     24 N3         12.8211   -6.1511    4.3619 N.2       1 <0>        -0.2297
     25 C21        13.9484   -5.5093    4.4035 C.2       1 <0>         0.1281
     26 C22        15.2214   -6.2482    4.3127 C.ar      1 <0>        -0.0602
     27 C23        15.2175   -7.6387    4.1758 C.ar      1 <0>        -0.0614
     28 C24        16.4115   -8.3236    4.0909 C.ar      1 <0>        -0.1160
     29 C25        17.6120   -7.6373    4.1409 C.ar      1 <0>        -0.0681
     30 C26        17.6240   -6.2596    4.2763 C.ar      1 <0>        -0.0971
     31 C27        16.4362   -5.5608    4.3571 C.ar      1 <0>        -0.0589
     32 Br1        19.2707   -5.3324    4.3434 Br        1 <0>        -0.0375
     33 H1         -0.9591    1.9053    0.0259 H         1 <0>         0.1254
     34 H2          1.1563    3.1654    0.0076 H         1 <0>         0.1253
     35 H3          3.3051    1.9634   -0.0196 H         1 <0>         0.1214
     36 H4          1.2231   -1.7588   -0.0176 H         1 <0>         0.1195
     37 H5         -0.9258   -0.5567    0.0082 H         1 <0>         0.1246
     38 H6          3.5884   -1.6586   -0.5549 H         1 <0>         0.0784
     39 H7          4.4573   -0.1052   -0.5563 H         1 <0>         0.0829
     40 H8          4.2064   -0.0201    1.9441 H         1 <0>         0.0911
     41 H9          2.2104   -1.4501    2.1512 H         1 <0>         0.1165
     42 H10         3.1195   -2.8418    1.5125 H         1 <0>         0.0889
     43 H11         3.7733   -1.3095    4.0704 H         1 <0>         0.1294
     44 H12         3.0062   -2.9130    3.9894 H         1 <0>         0.1317
     45 H13         6.0089   -1.0078    3.4080 H         1 <0>         0.1291
     46 H14         6.9769   -2.3771    2.8129 H         1 <0>         0.1304
     47 H15         5.5409   -2.5150    0.7950 H         1 <0>         0.0891
     48 H16         6.2783   -0.9011    0.9460 H         1 <0>         0.1128
     49 H17         5.6194   -2.3310    5.3571 H         1 <0>         0.1387
     50 H18         4.7214   -3.8631    5.2355 H         1 <0>         0.1411
     51 H19         5.8238   -5.8955    4.5034 H         1 <0>         0.1430
     52 H20         7.9411   -7.1376    4.3505 H         1 <0>         0.1530
     53 H21        10.1053   -3.4476    4.6629 H         1 <0>         0.1374
     54 H22         7.9763   -2.2241    4.8044 H         1 <0>         0.1406
     55 H23        11.6170   -4.4834    4.5392 H         1 <0>         0.3847
     56 H24        13.9542   -4.4341    4.5048 H         1 <0>         0.1261
     57 H25        14.2814   -8.1760    4.1370 H         1 <0>         0.1420
     58 H26        16.4096   -9.3985    3.9855 H         1 <0>         0.1401
     59 H27        18.5440   -8.1789    4.0742 H         1 <0>         0.1392
     60 H28        16.4465   -4.4856    4.4586 H         1 <0>         0.1395
     61 H29         4.9667   -3.6909    2.8409 H         1 <0>         0.4226
@<TRIPOS>BOND
     1    1    6 ar
     2    1    2 ar
     3    1   33 1
     4    2    3 ar
     5    2   34 1
     6    3    4 ar
     7    3   35 1
     8    4    5 ar
     9    4    7 1
    10    5    6 ar
    11    5   36 1
    12    6   37 1
    13    7    8 1
    14    7   38 1
    15    7   39 1
    16    8   13 1
    17    8    9 1
    18    8   40 1
    19    9   10 1
    20    9   41 1
    21    9   42 1
    22   10   11 1
    23   10   43 1
    24   10   44 1
    25   11   12 1
    26   11   14 1
    27   11   61 1
    28   12   13 1
    29   12   45 1
    30   12   46 1
    31   13   47 1
    32   13   48 1
    33   14   15 1
    34   14   49 1
    35   14   50 1
    36   15   20 ar
    37   15   16 ar
    38   16   17 ar
    39   16   51 1
    40   17   18 ar
    41   17   52 1
    42   18   19 ar
    43   18   21 1
    44   19   20 ar
    45   19   53 1
    46   20   54 1
    47   21   22 2
    48   21   23 am
    49   23   24 1
    50   23   55 1
    51   24   25 2
    52   25   26 1
    53   25   56 1
    54   26   31 ar
    55   26   27 ar
    56   27   28 ar
    57   27   57 1
    58   28   29 ar
    59   28   58 1
    60   29   30 ar
    61   29   59 1
    62   30   31 ar
    63   30   32 1
    64   31   60 1
@<TRIPOS>MOLECULE
ZINC63980317
   56    60     0     0     0
SMALL
USER_CHARGES

@<TRIPOS>ATOM
      1 C1         -0.0178    1.4608    0.0101 C.3       1 <0>         0.1125
      2 N1          0.0021   -0.0041    0.0020 N.pl3     1 <0>        -0.6084
      3 C2          0.0080   -0.7980   -1.1469 C.ar      1 <0>         0.2081
      4 C3         -0.0033   -0.4121   -2.4891 C.ar      1 <0>        -0.1605
      5 C4          0.0051   -1.3635   -3.4863 C.ar      1 <0>        -0.0554
      6 C5          0.0242   -2.7095   -3.1646 C.ar      1 <0>        -0.0830
      7 C6          0.0355   -3.0991   -1.8374 C.ar      1 <0>        -0.0394
      8 C7          0.0277   -2.1481   -0.8350 C.ar      1 <0>        -0.1602
      9 C8          0.0360   -2.2940    0.6702 C.3       1 <0>         0.0059
     10 H1          0.9398   -2.8078    0.9975 H         1 <0>         0.1145
     11 C9          0.0249   -0.8501    1.1982 C.3       1 <0>         0.1402
     12 H2          0.9227   -0.6526    1.7840 H         1 <0>         0.1059
     13 C10        -1.2076   -0.6107    2.0316 C.2       1 <0>         0.5148
     14 O1         -2.1814   -0.0837    1.5366 O.2       1 <0>        -0.5113
     15 N2         -1.2279   -0.9822    3.3270 N.am      1 <0>        -0.7293
     16 C11        -2.4261   -0.7494    4.1371 C.3       1 <0>         0.1287
     17 C12        -2.1871   -1.2598    5.5595 C.3       1 <0>        -0.1051
     18 C13        -3.4197   -1.0203    6.3929 C.2       1 <0>         0.0689
     19 C14        -4.4186   -1.8986    6.6382 C.ar      1 <0>        -0.1647
     20 C15        -4.6484   -3.2860    6.2178 C.ar      1 <0>        -0.0095
     21 C16        -5.7685   -3.9202    6.6329 C.ar      1 <0>        -0.1494
     22 C17        -6.7134   -3.2871    7.4521 C.ar      1 <0>         0.0568
     23 C18        -6.5721   -2.0145    7.8792 C.ar      1 <0>        -0.2109
     24 C19        -5.4313   -1.2528    7.5037 C.ar      1 <0>         0.3283
     25 N3         -5.0723   -0.0231    7.7825 N.pl3     1 <0>        -0.5856
     26 C20        -3.7868    0.2484    7.1296 C.3       1 <0>         0.0611
     27 C21        -1.1887   -3.0406    1.1328 C.ar      1 <0>        -0.0876
     28 C22        -2.4479   -2.5533    0.8363 C.ar      1 <0>        -0.0809
     29 C23        -3.5715   -3.2376    1.2604 C.ar      1 <0>        -0.1097
     30 C24        -3.4356   -4.4103    1.9817 C.ar      1 <0>        -0.0319
     31 C25        -2.1751   -4.8974    2.2782 C.ar      1 <0>        -0.1153
     32 C26        -1.0523   -4.2153    1.8487 C.ar      1 <0>        -0.0924
     33 Cl1        -4.8464   -5.2700    2.5152 Cl        1 <0>        -0.0708
     34 Cl2         0.0335   -3.9053   -4.4231 Cl        1 <0>        -0.0662
     35 H3          1.0048    1.8381    0.0023 H         1 <0>         0.0554
     36 H4         -0.5450    1.8219   -0.8730 H         1 <0>         0.0738
     37 H5         -0.5280    1.8123    0.9069 H         1 <0>         0.0679
     38 H6         -0.0189    0.6366   -2.7468 H         1 <0>         0.1303
     39 H7         -0.0038   -1.0578   -4.5220 H         1 <0>         0.1383
     40 H8          0.0501   -4.1489   -1.5842 H         1 <0>         0.1315
     41 H9         -0.4491   -1.4036    3.7229 H         1 <0>         0.4058
     42 H10        -2.6434    0.3183    4.1659 H         1 <0>         0.0769
     43 H11        -3.2706   -1.2803    3.6977 H         1 <0>         0.0787
     44 H12        -1.9698   -2.3275    5.5307 H         1 <0>         0.1161
     45 H13        -1.3426   -0.7289    5.9989 H         1 <0>         0.1190
     46 H14        -3.9338   -3.7928    5.5862 H         1 <0>         0.1588
     47 H15        -5.9396   -4.9411    6.3247 H         1 <0>         0.1571
     48 H16        -7.5906   -3.8402    7.7536 H         1 <0>         0.1612
     49 H17        -7.3295   -1.5722    8.5093 H         1 <0>         0.1608
     50 H18        -3.0268    0.4835    7.8747 H         1 <0>         0.1748
     51 H19        -3.8922    1.0743    6.4260 H         1 <0>         0.1732
     52 H20        -2.5538   -1.6377    0.2735 H         1 <0>         0.1448
     53 H21        -4.5552   -2.8566    1.0290 H         1 <0>         0.1305
     54 H22        -2.0685   -5.8127    2.8415 H         1 <0>         0.1352
     55 H23        -0.0683   -4.5979    2.0760 H         1 <0>         0.1357
     56 H24        -5.5713    0.6015    8.3319 H         1 <0>         0.4561
@<TRIPOS>BOND
     1    1    2 1
     2    1   35 1
     3    1   36 1
     4    1   37 1
     5    2   11 1
     6    2    3 1
     7    3    8 ar
     8    3    4 ar
     9    4    5 ar
    10    4   38 1
    11    5    6 ar
    12    5   39 1
    13    6    7 ar
    14    6   34 1
    15    7    8 ar
    16    7   40 1
    17    8    9 1
    18    9   10 1
    19    9   11 1
    20    9   27 1
    21   11   12 1
    22   11   13 1
    23   13   14 2
    24   13   15 am
    25   15   16 1
    26   15   41 1
    27   16   17 1
    28   16   42 1
    29   16   43 1
    30   17   18 1
    31   17   44 1
    32   17   45 1
    33   18   26 1
    34   18   19 2
    35   19   24 ar
    36   19   20 ar
    37   20   21 ar
    38   20   46 1
    39   21   22 ar
    40   21   47 1
    41   22   23 ar
    42   22   48 1
    43   23   24 ar
    44   23   49 1
    45   24   25 2
    46   25   26 1
    47   25   56 1
    48   26   50 1
    49   26   51 1
    50   27   32 ar
    51   27   28 ar
    52   28   29 ar
    53   28   52 1
    54   29   30 ar
    55   29   53 1
    56   30   31 ar
    57   30   33 1
    58   31   32 ar
    59   31   54 1
    60   32   55 1
@<TRIPOS>MOLECULE
ZINC12190728
   69    72     0     0     0
SMALL
USER_CHARGES
N-[(1R)-1-[7-[(3,4-difluorophenyl)methyl]-5,6,8,9-tetrahydro-[1,2,4]triazolo[4,5-d][1,4]diazepin-3-yl]-3-methyl-butyl]-3,5-dimethyl-benzamide
@<TRIPOS>ATOM
      1 C1         12.7839    4.8362    0.2880 C.3       1 <0>        -0.1188
      2 C2         12.6842    3.5735    1.1044 C.ar      1 <0>        -0.0850
      3 C3         13.3550    3.4766    2.3106 C.ar      1 <0>        -0.0891
      4 C4         13.2686    2.3208    3.0663 C.ar      1 <0>        -0.0849
      5 C5         12.5117    1.2568    2.6211 C.ar      1 <0>        -0.0636
      6 C6         11.8326    1.3480    1.4051 C.ar      1 <0>        -0.1362
      7 C7         11.9285    2.5147    0.6449 C.ar      1 <0>        -0.0934
      8 C8         11.0200    0.2115    0.9215 C.2       1 <0>         0.5701
      9 O1         10.9423   -0.8052    1.5833 O.2       1 <0>        -0.5279
     10 N1         10.3653    0.3027   -0.2530 N.am      1 <0>        -0.7230
     11 C9          9.4697   -0.7759   -0.6781 C.3       1 <0>         0.2364
     12 H1          8.9926   -1.2179    0.1966 H         1 <0>         0.1068
     13 C10        10.2756   -1.8473   -1.4154 C.3       1 <0>        -0.1280
     14 C11         9.3716   -3.0419   -1.7261 C.3       1 <0>        -0.0912
     15 C12        10.1338   -4.0466   -2.5924 C.3       1 <0>        -0.1496
     16 C13         8.9475   -3.7142   -0.4188 C.3       1 <0>        -0.1529
     17 C14         8.4143   -0.2191   -1.5985 C.2       1 <0>         0.1975
     18 N2          8.6186    0.5251   -2.6537 N.2       1 <0>        -0.2646
     19 N3          7.4918    0.8119   -3.2080 N.2       1 <0>        -0.2471
     20 C15         6.5241    0.2593   -2.5371 C.2       1 <0>         0.1477
     21 N4          7.0805   -0.3948   -1.4879 N.pl3     1 <0>        -0.4773
     22 C16         6.3561   -1.1207   -0.4446 C.3       1 <0>         0.0749
     23 C17         5.0306   -1.6334   -1.0155 C.3       1 <0>        -0.0248
     24 C18         4.2909    0.6243   -1.5433 C.3       1 <0>        -0.0137
     25 C19         5.0481    0.3084   -2.8370 C.3       1 <0>        -0.0496
     26 C20         3.7400   -0.3663    0.5918 C.3       1 <0>         0.0433
     27 C21         2.4844    0.4523    0.7474 C.ar      1 <0>        -0.1496
     28 C22         1.2617   -0.1782    0.8860 C.ar      1 <0>        -0.0705
     29 C23         0.1088    0.5705    1.0298 C.ar      1 <0>        -0.1195
     30 C24         0.1775    1.9529    1.0347 C.ar      1 <0>         0.1100
     31 C25         1.4035    2.5851    0.8952 C.ar      1 <0>         0.0780
     32 C26         2.5563    1.8326    0.7519 C.ar      1 <0>        -0.1032
     33 F1          1.4729    3.9343    0.8997 F         1 <0>        -0.1119
     34 F2         -0.9497    2.6854    1.1696 F         1 <0>        -0.1085
     35 C27        14.0027    2.2242    4.3789 C.3       1 <0>        -0.1192
     36 H2         13.6292    4.7608   -0.3961 H         1 <0>         0.0765
     37 H3         11.8656    4.9732   -0.2830 H         1 <0>         0.0679
     38 H4         12.9291    5.6880    0.9524 H         1 <0>         0.0715
     39 H5         13.9483    4.3069    2.6641 H         1 <0>         0.1308
     40 H6         12.4446    0.3555    3.2122 H         1 <0>         0.1367
     41 H7         11.4090    2.5899   -0.2989 H         1 <0>         0.1233
     42 H8         10.4872    1.0825   -0.8169 H         1 <0>         0.4112
     43 H9         10.6638   -1.4336   -2.3462 H         1 <0>         0.0831
     44 H10        11.1057   -2.1731   -0.7885 H         1 <0>         0.0926
     45 H11         8.4866   -2.6982   -2.2616 H         1 <0>         0.0575
     46 H12        11.0188   -4.3903   -2.0568 H         1 <0>         0.0626
     47 H13         9.4898   -4.8976   -2.8137 H         1 <0>         0.0587
     48 H14        10.4359   -3.5676   -3.5238 H         1 <0>         0.0587
     49 H15         8.3817   -3.0063    0.1869 H         1 <0>         0.0425
     50 H16         8.3252   -4.5809   -0.6411 H         1 <0>         0.0604
     51 H17         9.8337   -4.0342    0.1293 H         1 <0>         0.0705
     52 H18         6.9565   -1.9643   -0.1041 H         1 <0>         0.1444
     53 H19         6.1576   -0.4523    0.3932 H         1 <0>         0.1123
     54 H20         4.7423   -2.5478   -0.4969 H         1 <0>         0.1614
     55 H21         5.1510   -1.8435   -2.0782 H         1 <0>         0.1489
     56 H22         3.3622    1.1418   -1.7838 H         1 <0>         0.1486
     57 H23         4.9068    1.2617   -0.9090 H         1 <0>         0.1341
     58 H24         4.7219   -0.6567   -3.2248 H         1 <0>         0.1145
     59 H25         4.8510    1.0861   -3.5748 H         1 <0>         0.1493
     60 H26         4.5839    0.1789    1.0146 H         1 <0>         0.1409
     61 H27         3.6221   -1.3155    1.1146 H         1 <0>         0.1504
     62 H28         1.2075   -1.2568    0.8823 H         1 <0>         0.1525
     63 H29        -0.8456    0.0768    1.1379 H         1 <0>         0.1626
     64 H30         3.5119    2.3239    0.6432 H         1 <0>         0.1527
     65 H31        15.0007    1.8206    4.2083 H         1 <0>         0.0767
     66 H32        14.0830    3.2159    4.8242 H         1 <0>         0.0714
     67 H33        13.4552    1.5662    5.0538 H         1 <0>         0.0706
     68 N5          3.9515   -0.6331   -0.8423 N.4       1 <0>        -0.3971
     69 H34         3.0842   -1.0103   -1.2418 H         1 <0>         0.4397
@<TRIPOS>BOND
     1    1    2 1
     2    1   36 1
     3    1   37 1
     4    1   38 1
     5    2    7 ar
     6    2    3 ar
     7    3    4 ar
     8    3   39 1
     9    4    5 ar
    10    4   35 1
    11    5    6 ar
    12    5   40 1
    13    6    7 ar
    14    6    8 1
    15    7   41 1
    16    8    9 2
    17    8   10 am
    18   10   11 1
    19   10   42 1
    20   11   12 1
    21   11   13 1
    22   11   17 1
    23   13   14 1
    24   13   43 1
    25   13   44 1
    26   14   15 1
    27   14   16 1
    28   14   45 1
    29   15   46 1
    30   15   47 1
    31   15   48 1
    32   16   49 1
    33   16   50 1
    34   16   51 1
    35   17   21 1
    36   17   18 2
    37   18   19 1
    38   19   20 2
    39   20   25 1
    40   20   21 1
    41   21   22 1
    42   22   23 1
    43   22   52 1
    44   22   53 1
    45   23   54 1
    46   23   55 1
    47   23   68 1
    48   24   25 1
    49   24   56 1
    50   24   57 1
    51   24   68 1
    52   25   58 1
    53   25   59 1
    54   26   27 1
    55   26   60 1
    56   26   61 1
    57   26   68 1
    58   27   32 ar
    59   27   28 ar
    60   28   29 ar
    61   28   62 1
    62   29   30 ar
    63   29   63 1
    64   30   31 ar
    65   30   34 1
    66   31   32 ar
    67   31   33 1
    68   32   64 1
    69   35   65 1
    70   35   66 1
    71   35   67 1
    72   68   69 1
@<TRIPOS>MOLECULE
ZINC15673130
   75    79     0     0     0
SMALL
USER_CHARGES
N-cycloheptyl-ethyl-[[(2R)-1-ethylpyrrolidin-2-yl]methyl]-methyl-oxo-BLAHcarboxamide
@<TRIPOS>ATOM
      1 C1          2.4569    0.9301   -6.0094 C.3       1 <0>        -0.1498
      2 C2          2.2760    2.2777   -5.3079 C.3       1 <0>        -0.0496
      3 C3          1.0704    2.2165   -4.4057 C.2       1 <0>        -0.0771
      4 C4          1.0058    1.8516   -3.1083 C.2       1 <0>        -0.1731
      5 C5         -0.2235    1.8586   -2.4334 C.2       1 <0>         0.1081
      6 C6         -1.3307    2.2644   -3.1940 C.2       1 <0>        -0.2177
      7 S1         -0.6285    2.6086   -4.7864 S.3       1 <0>         0.1168
      8 C7         -2.4745    2.2298   -2.4053 C.2       1 <0>        -0.0073
      9 C8         -2.0944    1.8110   -1.1648 C.2       1 <0>        -0.0682
     10 N1         -0.7244    1.5727   -1.1764 N.pl3     1 <0>        -0.4414
     11 C9         -0.0127    1.0858    0.0080 C.3       1 <0>         0.1022
     12 C10        -0.7316    1.5805    1.2633 C.3       1 <0>         0.1430
     13 N2         -2.1770    1.3871    1.1941 N.am      1 <0>        -0.6252
     14 C11        -2.8801    1.6151    0.0599 C.2       1 <0>         0.5872
     15 O1         -4.0968    1.6549    0.0556 O.2       1 <0>        -0.4998
     16 C12        -2.8890    0.9320    2.3908 C.3       1 <0>         0.0821
     17 C13        -2.9345   -0.5973    2.4064 C.3       1 <0>         0.0017
     18 H1         -1.9261   -0.9975    2.5123 H         1 <0>         0.1444
     19 C14        -3.8170   -1.0840    3.5708 C.3       1 <0>        -0.1367
     20 C15        -4.9430   -1.9090    2.9064 C.3       1 <0>        -0.1460
     21 C16        -4.3244   -2.3038    1.5419 C.3       1 <0>        -0.0079
     22 C17        -2.5238   -1.4240    0.1591 C.3       1 <0>        -0.0089
     23 C18        -3.1711   -2.1633   -1.0137 C.3       1 <0>        -0.1840
     24 C19        -0.1866    0.8229    2.4757 C.3       1 <0>        -0.1545
     25 C20        -0.4448    3.0492    1.4415 C.2       1 <0>         0.5025
     26 O2          0.4616    3.4068    2.1636 O.2       1 <0>        -0.5102
     27 N3         -1.1955    3.9653    0.7983 N.am      1 <0>        -0.7127
     28 C21        -0.9168    5.3930    0.9716 C.3       1 <0>         0.1489
     29 C22        -1.6127    5.8855    2.2570 C.3       1 <0>        -0.1191
     30 C23        -0.9380    7.1531    2.7093 C.3       1 <0>        -0.1173
     31 C24        -1.6482    8.4159    2.1851 C.3       1 <0>        -0.1201
     32 C25        -2.0943    8.2842    0.7164 C.3       1 <0>        -0.1219
     33 C26        -1.0551    7.6171   -0.1434 C.3       1 <0>        -0.1095
     34 C27        -1.3704    6.1088   -0.2117 C.3       1 <0>        -0.1306
     35 H2          3.3289    0.9743   -6.6619 H         1 <0>         0.0715
     36 H3          2.6007    0.1485   -5.2633 H         1 <0>         0.0586
     37 H4          1.5701    0.7073   -6.6027 H         1 <0>         0.0613
     38 H5          2.1322    3.0592   -6.0539 H         1 <0>         0.0899
     39 H6          3.1628    2.5005   -4.7146 H         1 <0>         0.0936
     40 H7          1.9038    1.5527   -2.5879 H         1 <0>         0.1349
     41 H8         -3.4763    2.4865   -2.7167 H         1 <0>         0.1650
     42 H9          0.0021   -0.0041    0.0020 H         1 <0>         0.1016
     43 H10         1.0095    1.4643    0.0003 H         1 <0>         0.1237
     44 H11        -2.3700    1.2892    3.2802 H         1 <0>         0.1354
     45 H12        -3.9054    1.3256    2.3805 H         1 <0>         0.1218
     46 H13        -3.2375   -1.7113    4.2481 H         1 <0>         0.1103
     47 H14        -4.2374   -0.2338    4.1079 H         1 <0>         0.1095
     48 H15        -5.1714   -2.7960    3.4974 H         1 <0>         0.1195
     49 H16        -5.8361   -1.3001    2.7664 H         1 <0>         0.1003
     50 H17        -3.6646   -3.1643    1.6531 H         1 <0>         0.1348
     51 H18        -5.1058   -2.5089    0.8101 H         1 <0>         0.1380
     52 H19        -2.0608   -0.5055   -0.2015 H         1 <0>         0.1156
     53 H20        -1.7641   -2.0594    0.6143 H         1 <0>         0.1272
     54 H21        -2.4096   -2.4068   -1.7545 H         1 <0>         0.1052
     55 H22        -3.6341   -3.0818   -0.6531 H         1 <0>         0.0844
     56 H23        -3.9308   -1.5279   -1.4689 H         1 <0>         0.0822
     57 H24         0.8840    1.0060    2.5673 H         1 <0>         0.1067
     58 H25        -0.6927    1.1680    3.3773 H         1 <0>         0.0890
     59 H26        -0.3628   -0.2449    2.3462 H         1 <0>         0.0738
     60 H27        -1.9205    3.6792    0.2207 H         1 <0>         0.3941
     61 H28         0.1592    5.5319    1.0773 H         1 <0>         0.0892
     62 H29        -2.6649    6.0821    2.0513 H         1 <0>         0.0683
     63 H30        -1.5242    5.1270    3.0348 H         1 <0>         0.0628
     64 H31         0.0914    7.1530    2.3509 H         1 <0>         0.0635
     65 H32        -0.9316    7.1788    3.7990 H         1 <0>         0.0641
     66 H33        -0.9679    9.2631    2.2713 H         1 <0>         0.0636
     67 H34        -2.5256    8.6060    2.8033 H         1 <0>         0.0609
     68 H35        -2.2957    9.2788    0.3184 H         1 <0>         0.0646
     69 H36        -3.0128    7.6984    0.6779 H         1 <0>         0.0597
     70 H37        -0.0678    7.7653    0.2941 H         1 <0>         0.0705
     71 H38        -1.0817    8.0425   -1.1466 H         1 <0>         0.0721
     72 H39        -0.8818    5.6854   -1.0893 H         1 <0>         0.0658
     73 H40        -2.4481    5.9790   -0.3112 H         1 <0>         0.0658
     74 N4         -3.5620   -1.0977    1.1826 N.4       1 <0>        -0.3970
     75 H41        -4.1973   -0.3862    0.8027 H         1 <0>         0.4302
@<TRIPOS>BOND
     1    1    2 1
     2    1   35 1
     3    1   36 1
     4    1   37 1
     5    2    3 1
     6    2   38 1
     7    2   39 1
     8    3    7 1
     9    3    4 2
    10    4    5 1
    11    4   40 1
    12    5   10 1
    13    5    6 2
    14    6    7 1
    15    6    8 1
    16    8    9 2
    17    8   41 1
    18    9   14 1
    19    9   10 1
    20   10   11 1
    21   11   12 1
    22   11   42 1
    23   11   43 1
    24   12   13 1
    25   12   24 1
    26   12   25 1
    27   13   14 am
    28   13   16 1
    29   14   15 2
    30   16   17 1
    31   16   44 1
    32   16   45 1
    33   17   18 1
    34   17   19 1
    35   17   74 1
    36   19   20 1
    37   19   46 1
    38   19   47 1
    39   20   21 1
    40   20   48 1
    41   20   49 1
    42   21   50 1
    43   21   51 1
    44   21   74 1
    45   22   23 1
    46   22   52 1
    47   22   53 1
    48   22   74 1
    49   23   54 1
    50   23   55 1
    51   23   56 1
    52   24   57 1
    53   24   58 1
    54   24   59 1
    55   25   26 2
    56   25   27 am
    57   27   28 1
    58   27   60 1
    59   28   34 1
    60   28   29 1
    61   28   61 1
    62   29   30 1
    63   29   62 1
    64   29   63 1
    65   30   31 1
    66   30   64 1
    67   30   65 1
    68   31   32 1
    69   31   66 1
    70   31   67 1
    71   32   33 1
    72   32   68 1
    73   32   69 1
    74   33   34 1
    75   33   70 1
    76   33   71 1
    77   34   72 1
    78   34   73 1
    79   74   75 1
@<TRIPOS>MOLECULE
ZINC35671286
   63    66     0     0     0
SMALL
USER_CHARGES

@<TRIPOS>ATOM
      1 C1         -0.3297    1.0069    0.2952 C.3       1 <0>        -0.1848
      2 C2         -0.8287    0.6271   -1.1004 C.3       1 <0>        -0.0533
      3 N1          0.0481   -0.4048   -1.6699 N.4       1 <0>        -0.3845
      4 C3         -0.4522   -1.7341   -1.2947 C.3       1 <0>        -0.0089
      5 C4          0.1069   -2.7807   -2.2605 C.3       1 <0>        -0.2142
      6 C5          0.0621   -0.2821   -3.1337 C.3       1 <0>         0.0458
      7 H1         -0.4559   -1.1337   -3.5747 H         1 <0>         0.1633
      8 C6          1.5094   -0.2531   -3.6292 C.3       1 <0>         0.0839
      9 N2          2.1698   -1.5138   -3.2819 N.am      1 <0>        -0.5565
     10 C7          2.7124   -1.6868   -2.0471 C.2       1 <0>         0.3390
     11 N3          3.3085   -2.7758   -1.6814 N.2       1 <0>        -0.4738
     12 C8          3.4376   -3.8520   -2.5270 C.2       1 <0>         0.1413
     13 C9          4.0601   -5.0877   -2.2539 C.2       1 <0>         0.1324
     14 C10         4.0668   -6.0179   -3.2679 C.2       1 <0>        -0.2314
     15 S1          3.2255   -5.2431   -4.6109 S.3       1 <0>         0.3471
     16 C11         2.8816   -3.6948   -3.8113 C.2       1 <0>        -0.3143
     17 C12         2.2406   -2.5201   -4.1859 C.2       1 <0>         0.5886
     18 O1          1.7582   -2.3970   -5.3002 O.2       1 <0>        -0.4960
     19 S2          4.7881   -7.6119   -3.1561 S.3       1 <0>         0.0699
     20 C13         6.0464   -7.3451   -1.8630 C.3       1 <0>        -0.1374
     21 C14         5.4825   -6.4365   -0.8086 C.2       1 <0>         0.5198
     22 O2          5.8073   -6.6641    0.3381 O.2       1 <0>        -0.5017
     23 N4          4.6627   -5.4071   -1.0049 N.am      1 <0>        -0.6386
     24 C15        -0.6327    0.9927   -3.5376 C.ar      1 <0>        -0.1475
     25 C16        -0.0832    2.2158   -3.2016 C.ar      1 <0>        -0.1127
     26 C17        -0.7205    3.3851   -3.5721 C.ar      1 <0>        -0.1047
     27 C18        -1.9073    3.3314   -4.2790 C.ar      1 <0>        -0.0274
     28 C19        -2.4564    2.1083   -4.6157 C.ar      1 <0>        -0.1100
     29 C20        -1.8168    0.9390   -4.2489 C.ar      1 <0>        -0.0769
     30 C21        -2.6027    4.6062   -4.6820 C.3       1 <0>        -0.0384
     31 C22        -1.6762    5.4314   -5.5773 C.3       1 <0>        -0.1433
     32 C23        -3.8837    4.2683   -5.4474 C.3       1 <0>        -0.1513
     33 C24        -2.9541    5.4130   -3.4305 C.3       1 <0>        -0.1421
     34 H2         -0.2010    0.1046    0.8931 H         1 <0>         0.0767
     35 H3          0.6249    1.5261    0.2109 H         1 <0>         0.0799
     36 H4         -1.0576    1.6605    0.7760 H         1 <0>         0.1075
     37 H5         -1.8458    0.2414   -1.0301 H         1 <0>         0.1301
     38 H6         -0.8177    1.5079   -1.7423 H         1 <0>         0.1635
     39 H7         -0.1329   -1.9692   -0.2794 H         1 <0>         0.1358
     40 H8         -1.5411   -1.7395   -1.3436 H         1 <0>         0.1354
     41 H9         -0.0185   -2.4327   -3.2858 H         1 <0>         0.0874
     42 H10         1.1664   -2.9345   -2.0561 H         1 <0>         0.0784
     43 H11        -0.4289   -3.7206   -2.1277 H         1 <0>         0.1096
     44 H12         1.5204   -0.1233   -4.7114 H         1 <0>         0.1531
     45 H13         2.0381    0.5757   -3.1584 H         1 <0>         0.1220
     46 H14         2.6429   -0.8758   -1.3372 H         1 <0>         0.1973
     47 H15         6.3160   -8.3011   -1.4141 H         1 <0>         0.1644
     48 H16         6.9310   -6.8861   -2.3045 H         1 <0>         0.1384
     49 H17         4.4627   -4.8364   -0.2465 H         1 <0>         0.4233
     50 H18         0.8440    2.2578   -2.6494 H         1 <0>         0.1306
     51 H19        -0.2915    4.3407   -3.3090 H         1 <0>         0.1383
     52 H20        -3.3838    2.0663   -5.1677 H         1 <0>         0.1432
     53 H21        -2.2439   -0.0166   -4.5153 H         1 <0>         0.1339
     54 H22        -1.4258    4.8565   -6.4689 H         1 <0>         0.0596
     55 H23        -2.1792    6.3534   -5.8689 H         1 <0>         0.0681
     56 H24        -0.7636    5.6720   -5.0321 H         1 <0>         0.0590
     57 H25        -4.5437    3.6804   -4.8095 H         1 <0>         0.0607
     58 H26        -4.3866    5.1904   -5.7389 H         1 <0>         0.0678
     59 H27        -3.6333    3.6935   -6.3390 H         1 <0>         0.0618
     60 H28        -2.0415    5.6537   -2.8852 H         1 <0>         0.0588
     61 H29        -3.4571    6.3351   -3.7220 H         1 <0>         0.0681
     62 H30        -3.6141    4.8252   -2.7926 H         1 <0>         0.0580
     63 H31         0.9843   -0.2849   -1.3133 H         1 <0>         0.4080
@<TRIPOS>BOND
     1    1    2 1
     2    1   34 1
     3    1   35 1
     4    1   36 1
     5    2    3 1
     6    2   37 1
     7    2   38 1
     8    3    4 1
     9    3    6 1
    10    3   63 1
    11    4    5 1
    12    4   39 1
    13    4   40 1
    14    5   41 1
    15    5   42 1
    16    5   43 1
    17    6    7 1
    18    6    8 1
    19    6   24 1
    20    8    9 1
    21    8   44 1
    22    8   45 1
    23    9   17 am
    24    9   10 1
    25   10   11 2
    26   10   46 1
    27   11   12 1
    28   12   16 2
    29   12   13 1
    30   13   23 1
    31   13   14 2
    32   14   15 1
    33   14   19 1
    34   15   16 1
    35   16   17 1
    36   17   18 2
    37   19   20 1
    38   20   21 1
    39   20   47 1
    40   20   48 1
    41   21   22 2
    42   21   23 am
    43   23   49 1
    44   24   29 ar
    45   24   25 ar
    46   25   26 ar
    47   25   50 1
    48   26   27 ar
    49   26   51 1
    50   27   28 ar
    51   27   30 1
    52   28   29 ar
    53   28   52 1
    54   29   53 1
    55   30   31 1
    56   30   32 1
    57   30   33 1
    58   31   54 1
    59   31   55 1
    60   31   56 1
    61   32   57 1
    62   32   58 1
    63   32   59 1
    64   33   60 1
    65   33   61 1
    66   33   62 1
@<TRIPOS>MOLECULE
ZINC40322225
   61    64     0     0     0
SMALL
USER_CHARGES

@<TRIPOS>ATOM
      1 C1         -0.2060    0.9705   -0.2700 C.ar      1 <0>        -0.0883
      2 C2          0.8986    1.7935   -0.1542 C.ar      1 <0>        -0.1009
      3 C3          2.1656    1.2446   -0.0882 C.ar      1 <0>        -0.0931
      4 C4          2.3279   -0.1273   -0.1375 C.ar      1 <0>        -0.1453
      5 C5          1.2232   -0.9503   -0.2524 C.ar      1 <0>        -0.1171
      6 C6         -0.0437   -0.4013   -0.3198 C.ar      1 <0>        -0.1002
      7 C7          3.7092   -0.7257   -0.0665 C.3       1 <0>         0.0586
      8 H1          4.3976   -0.0002    0.3669 H         1 <0>         0.1532
      9 C8          4.1779   -1.0951   -1.4753 C.3       1 <0>         0.1031
     10 N1          4.2667    0.1166   -2.2939 N.am      1 <0>        -0.7165
     11 C9          4.5575    0.0232   -3.6066 C.2       1 <0>         0.6146
     12 O1          4.7464   -1.0676   -4.1119 O.2       1 <0>        -0.4920
     13 C10         4.6464    1.2363   -4.4261 C.2       1 <0>        -0.0397
     14 C11         4.9263    1.2835   -5.7617 C.2       1 <0>        -0.1223
     15 C12         4.9087    2.6379   -6.1300 C.2       1 <0>        -0.0897
     16 C13         4.6224    3.3489   -5.0171 C.2       1 <0>        -0.5312
     17 O2          4.4601    2.5005   -3.9936 O.3       1 <0>        -0.1107
     18 S1          4.4805    5.1030   -4.9284 S.o2      1 <0>         2.6102
     19 O3          4.7326    5.4630   -3.5771 O.2       1 <0>        -0.9093
     20 O4          5.2381    5.6270   -6.0105 O.2       1 <0>        -0.8971
     21 C14         2.7959    5.5064   -5.2511 C.ar      1 <0>        -0.6637
     22 C15         2.3771    5.7378   -6.5481 C.ar      1 <0>        -0.0039
     23 C16         1.0559    6.0543   -6.8019 C.ar      1 <0>        -0.1277
     24 C17         0.1523    6.1394   -5.7576 C.ar      1 <0>         0.0236
     25 C18         0.5721    5.9077   -4.4598 C.ar      1 <0>        -0.1308
     26 C19         1.8924    5.5857   -4.2079 C.ar      1 <0>        -0.0045
     27 Cl1        -1.5072    6.5374   -6.0755 Cl        1 <0>        -0.0419
     28 N2          3.6778   -1.9320    0.7712 N.4       1 <0>        -0.3574
     29 C20         3.1335   -1.5745    2.0956 C.3       1 <0>        -0.0077
     30 C21         2.5434   -2.8161    2.7159 C.3       1 <0>        -0.1461
     31 C22         3.5435   -3.5011    3.6660 C.3       1 <0>        -0.1305
     32 C23         4.9743   -3.4965    3.0910 C.3       1 <0>        -0.1395
     33 C24         5.0007   -3.7982    1.6144 C.3       1 <0>        -0.1325
     34 C25         4.9643   -2.4709    0.8284 C.3       1 <0>        -0.0463
     35 H2         -1.1962    1.3992   -0.3171 H         1 <0>         0.1373
     36 H3          0.7718    2.8654   -0.1157 H         1 <0>         0.1398
     37 H4          3.0286    1.8876    0.0015 H         1 <0>         0.1354
     38 H5          1.3500   -2.0221   -0.2912 H         1 <0>         0.1189
     39 H6         -0.9068   -1.0443   -0.4099 H         1 <0>         0.1370
     40 H7          5.1581   -1.5685   -1.4196 H         1 <0>         0.1001
     41 H8          3.4656   -1.7864   -1.9256 H         1 <0>         0.0994
     42 H9          4.1161    0.9861   -1.8912 H         1 <0>         0.4140
     43 H10         5.1231    0.4419   -6.4092 H         1 <0>         0.1788
     44 H11         5.0901    3.0367   -7.1171 H         1 <0>         0.1842
     45 H12         3.0826    5.6717   -7.3632 H         1 <0>         0.1565
     46 H13         0.7289    6.2355   -7.8151 H         1 <0>         0.1512
     47 H14        -0.1327    5.9743   -3.6442 H         1 <0>         0.1484
     48 H15         2.2191    5.4001   -3.1954 H         1 <0>         0.1531
     49 H16         3.9327   -1.1911    2.7299 H         1 <0>         0.1356
     50 H17         2.3584   -0.8166    1.9819 H         1 <0>         0.1388
     51 H18         1.6489   -2.5440    3.2761 H         1 <0>         0.1088
     52 H19         2.2686   -3.5136    1.9247 H         1 <0>         0.0805
     53 H20         3.5428   -2.9759    4.6211 H         1 <0>         0.0808
     54 H21         3.2294   -4.5321    3.8290 H         1 <0>         0.0822
     55 H22         5.4191   -2.5157    3.2589 H         1 <0>         0.0699
     56 H23         5.5678   -4.2457    3.6150 H         1 <0>         0.0876
     57 H24         5.9132   -4.3419    1.3696 H         1 <0>         0.1121
     58 H25         4.1328   -4.4024    1.3501 H         1 <0>         0.0879
     59 H26         5.3189   -2.6502   -0.1866 H         1 <0>         0.1349
     60 H27         5.6276   -1.7541    1.3125 H         1 <0>         0.1323
     61 H28         3.0629   -2.6072    0.3421 H         1 <0>         0.4169
@<TRIPOS>BOND
     1    1    6 ar
     2    1    2 ar
     3    1   35 1
     4    2    3 ar
     5    2   36 1
     6    3    4 ar
     7    3   37 1
     8    4    5 ar
     9    4    7 1
    10    5    6 ar
    11    5   38 1
    12    6   39 1
    13    7    8 1
    14    7    9 1
    15    7   28 1
    16    9   10 1
    17    9   40 1
    18    9   41 1
    19   10   11 am
    20   10   42 1
    21   11   12 2
    22   11   13 1
    23   13   17 1
    24   13   14 2
    25   14   15 1
    26   14   43 1
    27   15   16 2
    28   15   44 1
    29   16   17 1
    30   16   18 1
    31   18   19 2
    32   18   20 2
    33   18   21 1
    34   21   26 ar
    35   21   22 ar
    36   22   23 ar
    37   22   45 1
    38   23   24 ar
    39   23   46 1
    40   24   25 ar
    41   24   27 1
    42   25   26 ar
    43   25   47 1
    44   26   48 1
    45   28   34 1
    46   28   29 1
    47   28   61 1
    48   29   30 1
    49   29   49 1
    50   29   50 1
    51   30   31 1
    52   30   51 1
    53   30   52 1
    54   31   32 1
    55   31   53 1
    56   31   54 1
    57   32   33 1
    58   32   55 1
    59   32   56 1
    60   33   34 1
    61   33   57 1
    62   33   58 1
    63   34   59 1
    64   34   60 1
@<TRIPOS>MOLECULE
ZINC63746713
   63    68     0     0     0
SMALL
USER_CHARGES

@<TRIPOS>ATOM
      1 C1         -0.6315    0.0673    0.8532 C.3       1 <0>        -0.1438
      2 C2         -0.1438   -1.3095    0.3978 C.3       1 <0>         0.0045
      3 N1          0.6970   -1.1605   -0.7975 N.3       1 <0>        -0.4643
      4 C3          2.0123   -0.5544   -0.4524 C.3       1 <0>         0.0788
      5 H1          1.9765    0.5270   -0.5838 H         1 <0>         0.1266
      6 C4          2.9993   -1.1697   -1.4232 C.2       1 <0>        -0.0944
      7 C5          2.4324   -2.1895   -2.0337 C.2       1 <0>        -0.1175
      8 C6          1.1056   -2.4711   -1.3206 C.3       1 <0>         0.2697
      9 H2          1.2110   -3.2112   -0.5274 H         1 <0>         0.1034
     10 N2          0.2928   -2.9526   -2.4436 N.pl3     1 <0>        -0.4811
     11 N3          1.2024   -3.6288   -3.2826 N.2       1 <0>        -0.1708
     12 C7          2.4380   -3.2285   -3.0796 C.2       1 <0>         0.1913
     13 C8          3.6322   -3.7347   -3.7821 C.2       1 <0>        -0.1036
     14 C9          3.7178   -4.6885   -4.7634 C.2       1 <0>        -0.1102
     15 C10         4.9575   -4.9998   -5.2764 C.2       1 <0>        -0.1586
     16 C11         6.0529   -4.3558   -4.7975 C.2       1 <0>        -0.1571
     17 S1          5.3414   -3.2592   -3.5817 S.3       1 <0>         0.0766
     18 C12        -1.0768   -2.7797   -2.6381 C.ar      1 <0>         0.1986
     19 C13        -1.6466   -1.5189   -2.5007 C.ar      1 <0>        -0.1278
     20 C14        -3.0033   -1.3517   -2.6941 C.ar      1 <0>        -0.1053
     21 C15        -3.7956   -2.4364   -3.0241 C.ar      1 <0>        -0.1298
     22 C16        -3.2325   -3.6923   -3.1616 C.ar      1 <0>        -0.1031
     23 C17        -1.8755   -3.8665   -2.9755 C.ar      1 <0>        -0.1291
     24 C18         2.3892   -0.8957    0.9663 C.2       1 <0>         0.5102
     25 O1          2.3034   -2.0403    1.3579 O.2       1 <0>        -0.5192
     26 N4          2.8216    0.0711    1.7998 N.am      1 <0>        -0.7273
     27 C19         3.1880   -0.2607    3.1789 C.3       1 <0>         0.1238
     28 C20         3.6416    1.0072    3.9052 C.3       1 <0>        -0.1049
     29 C21         4.0185    0.6660    5.3238 C.2       1 <0>         0.0685
     30 C22         5.2576    0.3943    5.7931 C.ar      1 <0>        -0.1656
     31 C23         6.5747    0.3362    5.1478 C.ar      1 <0>        -0.0135
     32 C24         7.6588    0.0296    5.8959 C.ar      1 <0>        -0.1492
     33 C25         7.5563   -0.2341    7.2687 C.ar      1 <0>         0.0553
     34 C26         6.3812   -0.2001    7.9321 C.ar      1 <0>        -0.2099
     35 C27         5.1763    0.1123    7.2441 C.ar      1 <0>         0.3280
     36 N5          3.9352    0.2060    7.6558 N.pl3     1 <0>        -0.5846
     37 C28         3.0887    0.5644    6.5123 C.3       1 <0>         0.0605
     38 H3          0.2264    0.6971    1.0887 H         1 <0>         0.0491
     39 H4         -1.2130    0.5290    0.0552 H         1 <0>         0.0701
     40 H5         -1.2554   -0.0433    1.7401 H         1 <0>         0.0642
     41 H6          0.4377   -1.7713    1.1958 H         1 <0>         0.0728
     42 H7         -1.0017   -1.9393    0.1623 H         1 <0>         0.0864
     43 H8          4.0094   -0.8254   -1.5892 H         1 <0>         0.1579
     44 H9          2.8308   -5.1862   -5.1265 H         1 <0>         0.1426
     45 H10         5.0572   -5.7470   -6.0498 H         1 <0>         0.1428
     46 H11         7.0881   -4.4739   -5.0817 H         1 <0>         0.1930
     47 H12        -1.0287   -0.6715   -2.2428 H         1 <0>         0.1399
     48 H13        -3.4467   -0.3727   -2.5873 H         1 <0>         0.1257
     49 H14        -4.8566   -2.3025   -3.1744 H         1 <0>         0.1244
     50 H15        -3.8543   -4.5368   -3.4194 H         1 <0>         0.1269
     51 H16        -1.4358   -4.8466   -3.0874 H         1 <0>         0.1250
     52 H17         2.8902    0.9866    1.4866 H         1 <0>         0.4091
     53 H18         2.3248   -0.6843    3.6923 H         1 <0>         0.0788
     54 H19         4.0005   -0.9872    3.1742 H         1 <0>         0.0810
     55 H20         4.5048    1.4309    3.3918 H         1 <0>         0.1175
     56 H21         2.8291    1.7337    3.9099 H         1 <0>         0.1198
     57 H22         6.6765    0.5352    4.0911 H         1 <0>         0.1610
     58 H23         8.6288   -0.0137    5.4231 H         1 <0>         0.1587
     59 H24         8.4544   -0.4747    7.8183 H         1 <0>         0.1617
     60 H25         6.3558   -0.4115    8.9909 H         1 <0>         0.1611
     61 H26         2.5998    1.5222    6.6897 H         1 <0>         0.1754
     62 H27         2.3436   -0.2125    6.3410 H         1 <0>         0.1737
     63 H28         3.6284    0.0657    8.5653 H         1 <0>         0.4564
@<TRIPOS>BOND
     1    1    2 1
     2    1   38 1
     3    1   39 1
     4    1   40 1
     5    2    3 1
     6    2   41 1
     7    2   42 1
     8    3    8 1
     9    3    4 1
    10    4    5 1
    11    4    6 1
    12    4   24 1
    13    6    7 2
    14    6   43 1
    15    7   12 1
    16    7    8 1
    17    8    9 1
    18    8   10 1
    19   10   11 1
    20   10   18 1
    21   11   12 2
    22   12   13 1
    23   13   17 1
    24   13   14 2
    25   14   15 1
    26   14   44 1
    27   15   16 2
    28   15   45 1
    29   16   17 1
    30   16   46 1
    31   18   23 ar
    32   18   19 ar
    33   19   20 ar
    34   19   47 1
    35   20   21 ar
    36   20   48 1
    37   21   22 ar
    38   21   49 1
    39   22   23 ar
    40   22   50 1
    41   23   51 1
    42   24   25 2
    43   24   26 am
    44   26   27 1
    45   26   52 1
    46   27   28 1
    47   27   53 1
    48   27   54 1
    49   28   29 1
    50   28   55 1
    51   28   56 1
    52   29   37 1
    53   29   30 2
    54   30   35 ar
    55   30   31 ar
    56   31   32 ar
    57   31   57 1
    58   32   33 ar
    59   32   58 1
    60   33   34 ar
    61   33   59 1
    62   34   35 ar
    63   34   60 1
    64   35   36 2
    65   36   37 1
    66   36   63 1
    67   37   61 1
    68   37   62 1
@<TRIPOS>MOLECULE
ZINC02725863
   65    68     0     0     0
SMALL
USER_CHARGES
2-[[2-[[4-benzyl-5-[(1S)-1-dimethylaminopropyl]-1,2,4-triazol-3-yl]sulfanyl]acetyl]amino]-5,6-dihydro-4H-cyclopenta[d]thiophene-3-carboxamide
@<TRIPOS>ATOM
      1 C1         -6.9498    8.4379    1.3523 C.3       1 <0>        -0.1742
      2 C2         -6.0563    7.1986    1.4359 C.3       1 <0>        -0.1459
      3 C3         -5.3508    6.9871    0.0949 C.3       1 <0>         0.1326
      4 H1         -4.7801    7.8800   -0.1602 H         1 <0>         0.1449
      5 C4         -4.4187    5.8076    0.1982 C.2       1 <0>         0.1261
      6 N1         -4.7651    4.5534    0.2680 N.2       1 <0>        -0.2523
      7 N2         -3.7192    3.8102    0.3418 N.2       1 <0>        -0.2810
      8 C5         -2.6396    4.5572    0.3314 C.2       1 <0>         0.1745
      9 N3         -3.0524    5.8552    0.2361 N.pl3     1 <0>        -0.4352
     10 C6         -2.2072    7.0507    0.1850 C.3       1 <0>         0.1363
     11 C7         -1.8754    7.3704   -1.2499 C.ar      1 <0>        -0.1323
     12 C8         -0.7431    6.8338   -1.8335 C.ar      1 <0>        -0.0864
     13 C9         -0.4413    7.1232   -3.1512 C.ar      1 <0>        -0.1066
     14 C10        -1.2664    7.9575   -3.8820 C.ar      1 <0>        -0.0948
     15 C11        -2.3959    8.4983   -3.2967 C.ar      1 <0>        -0.1189
     16 C12        -2.7005    8.2048   -1.9807 C.ar      1 <0>        -0.1152
     17 S1         -0.9731    3.9913    0.4166 S.3       1 <0>         0.1195
     18 C13        -1.2524    2.2062    0.5228 C.3       1 <0>        -0.1516
     19 C14         0.0733    1.4945    0.6074 C.2       1 <0>         0.5303
     20 O1          1.1054    2.1311    0.5918 O.2       1 <0>        -0.4843
     21 N4          0.1120    0.1501    0.6947 N.am      1 <0>        -0.6076
     22 C15         1.3319   -0.5051    0.7667 C.2       1 <0>         0.0530
     23 C16         1.5738   -1.8645    0.8656 C.2       1 <0>        -0.1992
     24 C17         2.9682   -2.3019    0.9225 C.2       1 <0>        -0.0959
     25 C18         3.8791   -1.3129    0.8809 C.2       1 <0>        -0.2228
     26 S2          2.9219    0.1785    0.7624 S.3       1 <0>         0.2677
     27 C19         5.2871   -1.8398    0.9464 C.3       1 <0>        -0.0343
     28 C20         5.1578   -3.3396    0.6003 C.3       1 <0>        -0.1167
     29 C21         3.7068   -3.6368    1.0280 C.3       1 <0>        -0.0626
     30 C22         0.4721   -2.8311    0.9078 C.2       1 <0>         0.5805
     31 O2          0.0384   -3.3050   -0.1259 O.2       1 <0>        -0.5307
     32 N5         -0.0603   -3.1948    2.0913 N.am      1 <0>        -0.8466
     33 C23        -5.7134    6.5819   -2.2645 C.3       1 <0>        -0.0463
     34 C24        -7.1637    5.5512   -0.6222 C.3       1 <0>        -0.0628
     35 H2         -6.3550    9.2938    1.0333 H         1 <0>         0.0736
     36 H3         -7.7487    8.2619    0.6320 H         1 <0>         0.0578
     37 H4         -7.3822    8.6408    2.3321 H         1 <0>         0.0920
     38 H5         -6.6666    6.3256    1.6671 H         1 <0>         0.1036
     39 H6         -5.3121    7.3395    2.2198 H         1 <0>         0.1119
     40 H7         -2.7392    7.8911    0.6308 H         1 <0>         0.1141
     41 H8         -1.2863    6.8686    0.7389 H         1 <0>         0.1216
     42 H9         -0.0961    6.1855   -1.2612 H         1 <0>         0.1317
     43 H10         0.4414    6.7010   -3.6083 H         1 <0>         0.1353
     44 H11        -1.0283    8.1872   -4.9100 H         1 <0>         0.1330
     45 H12        -3.0403    9.1505   -3.8676 H         1 <0>         0.1304
     46 H13        -3.5828    8.6275   -1.5233 H         1 <0>         0.1122
     47 H14        -1.7899    1.8691   -0.3635 H         1 <0>         0.1395
     48 H15        -1.8420    1.9829    1.4120 H         1 <0>         0.1395
     49 H16        -0.7135   -0.3591    0.7072 H         1 <0>         0.4237
     50 H17         5.9168   -1.3336    0.2147 H         1 <0>         0.0820
     51 H18         5.6934   -1.7149    1.9501 H         1 <0>         0.0881
     52 H19         5.2913   -3.5062   -0.4686 H         1 <0>         0.0789
     53 H20         5.8646   -3.9356    1.1777 H         1 <0>         0.0872
     54 H21         3.2586   -4.3699    0.3573 H         1 <0>         0.0757
     55 H22         3.6836   -4.0020    2.0548 H         1 <0>         0.0824
     56 H23         0.2854   -2.8172    2.9152 H         1 <0>         0.4040
     57 H24        -0.7892   -3.8343    2.1192 H         1 <0>         0.4051
     58 H25        -5.0147    5.7457   -2.2369 H         1 <0>         0.1181
     59 H26        -6.4767    6.3927   -3.0194 H         1 <0>         0.1320
     60 H27        -5.1756    7.4968   -2.5130 H         1 <0>         0.1195
     61 H28        -7.5883    5.6679    0.3748 H         1 <0>         0.1249
     62 H29        -7.9685    5.4508   -1.3504 H         1 <0>         0.1236
     63 H30        -6.5370    4.6598   -0.6481 H         1 <0>         0.1495
     64 N6         -6.3689    6.7533   -0.9509 N.4       1 <0>        -0.3874
     65 H31        -6.9952    7.5657   -0.9942 H         1 <0>         0.4354
@<TRIPOS>BOND
     1    1    2 1
     2    1   35 1
     3    1   36 1
     4    1   37 1
     5    2    3 1
     6    2   38 1
     7    2   39 1
     8    3    4 1
     9    3    5 1
    10    3   64 1
    11    5    9 1
    12    5    6 2
    13    6    7 1
    14    7    8 2
    15    8    9 1
    16    8   17 1
    17    9   10 1
    18   10   11 1
    19   10   40 1
    20   10   41 1
    21   11   16 ar
    22   11   12 ar
    23   12   13 ar
    24   12   42 1
    25   13   14 ar
    26   13   43 1
    27   14   15 ar
    28   14   44 1
    29   15   16 ar
    30   15   45 1
    31   16   46 1
    32   17   18 1
    33   18   19 1
    34   18   47 1
    35   18   48 1
    36   19   20 2
    37   19   21 am
    38   21   22 1
    39   21   49 1
    40   22   26 1
    41   22   23 2
    42   23   24 1
    43   23   30 1
    44   24   29 1
    45   24   25 2
    46   25   26 1
    47   25   27 1
    48   27   28 1
    49   27   50 1
    50   27   51 1
    51   28   29 1
    52   28   52 1
    53   28   53 1
    54   29   54 1
    55   29   55 1
    56   30   31 2
    57   30   32 am
    58   32   56 1
    59   32   57 1
    60   33   58 1
    61   33   59 1
    62   33   60 1
    63   33   64 1
    64   34   61 1
    65   34   62 1
    66   34   63 1
    67   34   64 1
    68   64   65 1
@<TRIPOS>MOLECULE
ZINC24987052
   66    70     0     0     0
SMALL
USER_CHARGES

@<TRIPOS>ATOM
      1 C1          0.2228    1.7743    0.0393 C.ar      1 <0>        -0.1105
      2 C2          1.4749    2.3597    0.0137 C.ar      1 <0>        -0.1113
      3 C3          2.6077    1.5678   -0.0081 C.ar      1 <0>        -0.1087
      4 C4          2.4886    0.1906   -0.0038 C.ar      1 <0>        -0.0731
      5 C5          1.2366   -0.3947    0.0228 C.ar      1 <0>        -0.1047
      6 C6          0.1037    0.3971    0.0431 C.ar      1 <0>        -0.1056
      7 C7          3.7236   -0.6726   -0.0285 C.3       1 <0>        -0.0822
      8 C8          4.1717   -0.9628    1.4054 C.3       1 <0>         0.1363
      9 H1          4.2908   -0.0238    1.9459 H         1 <0>         0.1118
     10 C9          5.4865   -1.6989    1.3815 C.2       1 <0>         0.5186
     11 O1          5.5056   -2.9089    1.4616 O.2       1 <0>        -0.5164
     12 N1          6.6411   -1.0126    1.2711 N.am      1 <0>        -0.6151
     13 C10         6.6427    0.4566    1.2829 C.3       1 <0>         0.0993
     14 C11         7.3810    0.9585    0.0378 C.3       1 <0>        -0.1662
     15 C12         8.7726    0.3269   -0.0148 C.3       1 <0>         0.1871
     16 C13         8.6475   -1.1942   -0.1061 C.3       1 <0>        -0.1238
     17 C14         7.9228   -1.7195    1.1427 C.3       1 <0>         0.1101
     18 C15         9.5228    0.8494   -1.2105 C.2       1 <0>         0.0606
     19 C16        10.4972    1.7849   -1.1344 C.2       1 <0>         0.0459
     20 N2         10.9470    2.0139   -2.3680 N.pl3     1 <0>        -0.4647
     21 C17        10.2901    1.2586   -3.2105 C.cat     1 <0>         0.2973
     22 N3          9.3907    0.5173   -2.5218 N.pl3     1 <0>        -0.4954
     23 H2          8.7696   -0.1284   -2.8937 H         1 <0>         0.4645
     24 C18        10.9352    2.4115    0.1666 C.3       1 <0>        -0.0549
     25 C19         9.8571    2.1179    1.2190 C.3       1 <0>         0.0478
     26 N4          9.5221    0.6874    1.1997 N.3       1 <0>        -0.6737
     27 N5          3.1626   -1.7872    2.0750 N.am      1 <0>        -0.7224
     28 C20         2.0986   -1.2050    2.6627 C.2       1 <0>         0.5179
     29 O2          1.9766    0.0014    2.6373 O.2       1 <0>        -0.5028
     30 C21         1.0606   -2.0530    3.3515 C.3       1 <0>        -0.1021
     31 C22        -0.0155   -1.1653    3.9216 C.ar      1 <0>        -0.0634
     32 C23         0.1061   -0.6702    5.2066 C.ar      1 <0>        -0.0918
     33 C24        -0.8806    0.1440    5.7300 C.ar      1 <0>        -0.1086
     34 C25        -1.9901    0.4634    4.9677 C.ar      1 <0>        -0.0311
     35 C26        -2.1112   -0.0325    3.6818 C.ar      1 <0>        -0.1081
     36 C27        -1.1212   -0.8419    3.1574 C.ar      1 <0>        -0.0876
     37 Cl1        -3.2300    1.4855    5.6247 Cl        1 <0>        -0.0677
     38 H3         -0.6622    2.3930    0.0608 H         1 <0>         0.1185
     39 H4          1.5679    3.4357    0.0103 H         1 <0>         0.1172
     40 H5          3.5859    2.0252   -0.0288 H         1 <0>         0.1086
     41 H6          1.1435   -1.4707    0.0258 H         1 <0>         0.1111
     42 H7         -0.8745   -0.0602    0.0634 H         1 <0>         0.1171
     43 H8          3.5009   -1.6109   -0.5365 H         1 <0>         0.0834
     44 H9          4.5203   -0.1519   -0.5598 H         1 <0>         0.0770
     45 H10         5.6163    0.8233    1.2717 H         1 <0>         0.1051
     46 H11         7.1511    0.8144    2.1783 H         1 <0>         0.0791
     47 H12         6.8208    0.6791   -0.8545 H         1 <0>         0.0837
     48 H13         7.4755    2.0434    0.0836 H         1 <0>         0.0922
     49 H14         8.0795   -1.4595   -0.9978 H         1 <0>         0.0755
     50 H15         9.6414   -1.6382   -0.1621 H         1 <0>         0.0975
     51 H16         8.5323   -1.5345    2.0272 H         1 <0>         0.0840
     52 H17         7.7413   -2.7892    1.0387 H         1 <0>         0.1082
     53 H18        10.4408    1.2308   -4.2796 H         1 <0>         0.2692
     54 H19        11.8854    1.9804    0.4820 H         1 <0>         0.1148
     55 H20        11.0425    3.4887    0.0393 H         1 <0>         0.1068
     56 H21        10.2305    2.3897    2.2063 H         1 <0>         0.1098
     57 H22         8.9642    2.7020    0.9962 H         1 <0>         0.0554
     58 H23         9.0133    0.4238    2.0302 H         1 <0>         0.3707
     59 H24         3.2602   -2.7521    2.0953 H         1 <0>         0.4107
     60 H25         0.6193   -2.7428    2.6321 H         1 <0>         0.1056
     61 H26         1.5295   -2.6186    4.1567 H         1 <0>         0.1061
     62 H27         0.9721   -0.9199    5.8017 H         1 <0>         0.1280
     63 H28        -0.7856    0.5304    6.7340 H         1 <0>         0.1335
     64 H29        -2.9772    0.2163    3.0863 H         1 <0>         0.1331
     65 H30        -1.2133   -1.2252    2.1519 H         1 <0>         0.1269
     66 H31        11.6491    2.6404   -2.6035 H         1 <0>         0.4659
@<TRIPOS>BOND
     1    1    6 ar
     2    1    2 ar
     3    1   38 1
     4    2    3 ar
     5    2   39 1
     6    3    4 ar
     7    3   40 1
     8    4    5 ar
     9    4    7 1
    10    5    6 ar
    11    5   41 1
    12    6   42 1
    13    7    8 1
    14    7   43 1
    15    7   44 1
    16    8    9 1
    17    8   10 1
    18    8   27 1
    19   10   11 2
    20   10   12 am
    21   12   17 1
    22   12   13 1
    23   13   14 1
    24   13   45 1
    25   13   46 1
    26   14   15 1
    27   14   47 1
    28   14   48 1
    29   15   26 1
    30   15   16 1
    31   15   18 1
    32   16   17 1
    33   16   49 1
    34   16   50 1
    35   17   51 1
    36   17   52 1
    37   18   22 1
    38   18   19 2
    39   19   20 1
    40   19   24 1
    41   20   21 2
    42   20   66 1
    43   21   22 1
    44   21   53 1
    45   22   23 1
    46   24   25 1
    47   24   54 1
    48   24   55 1
    49   25   26 1
    50   25   56 1
    51   25   57 1
    52   26   58 1
    53   27   28 am
    54   27   59 1
    55   28   29 2
    56   28   30 1
    57   30   31 1
    58   30   60 1
    59   30   61 1
    60   31   36 ar
    61   31   32 ar
    62   32   33 ar
    63   32   62 1
    64   33   34 ar
    65   33   63 1
    66   34   35 ar
    67   34   37 1
    68   35   36 ar
    69   35   64 1
    70   36   65 1
@<TRIPOS>MOLECULE
ZINC40570127
   65    69     0     0     0
SMALL
USER_CHARGES

@<TRIPOS>ATOM
      1 C1         -0.0458    1.4670    0.0385 C.3       1 <0>         0.0203
      2 N1         -0.0251   -0.0018    0.0285 N.3       1 <0>        -0.5378
      3 C2         -1.3905   -0.5482   -0.0239 C.3       1 <0>         0.0450
      4 C3         -1.3065   -2.0273   -0.4008 C.3       1 <0>        -0.1003
      5 C4         -0.3149   -2.7307    0.4916 C.ar      1 <0>         0.2338
      6 C5          0.6159   -2.0299    1.2307 C.ar      1 <0>        -0.1009
      7 C6          1.5208   -2.7155    2.0400 C.ar      1 <0>         0.1861
      8 C7          1.4650   -4.1399    2.0938 C.ar      1 <0>        -0.1338
      9 C8          2.2942   -5.0548    2.8573 C.2       1 <0>         0.3181
     10 C9          2.0484   -6.4076    2.7478 C.2       1 <0>        -0.3405
     11 S1          0.6836   -6.4859    1.6046 S.3       1 <0>         0.2440
     12 C10         0.4699   -4.7496    1.2989 C.ar      1 <0>         0.0872
     13 N2         -0.3567   -4.0539    0.5512 N.ar      1 <0>        -0.4312
     14 C11         2.7194   -7.4770    3.3890 C.2       1 <0>         0.6184
     15 O1          3.6430   -7.2479    4.1493 O.2       1 <0>        -0.5185
     16 N3          2.3362   -8.7483    3.1580 N.am      1 <0>        -0.6639
     17 C12         3.0589   -9.8084    3.7140 C.ar      1 <0>         0.1323
     18 C13         3.6275   -9.6777    4.9745 C.ar      1 <0>        -0.1167
     19 C14         4.3403  -10.7268    5.5209 C.ar      1 <0>        -0.1015
     20 C15         4.4885  -11.9063    4.8145 C.ar      1 <0>        -0.1250
     21 C16         3.9241  -12.0395    3.5591 C.ar      1 <0>        -0.0997
     22 C17         3.2048  -10.9964    3.0094 C.ar      1 <0>        -0.1400
     23 N4          3.3094   -4.5800    3.6769 N.pl3     1 <0>        -0.7997
     24 C18         2.5265   -1.9751    2.8327 C.ar      1 <0>        -0.1788
     25 C19         2.2285   -1.5641    4.1334 C.ar      1 <0>        -0.1153
     26 C20         3.1704   -0.8733    4.8704 C.ar      1 <0>         0.0788
     27 C21         4.4176   -0.5862    4.3179 C.ar      1 <0>         0.1837
     28 C22         4.7182   -0.9919    3.0273 C.ar      1 <0>        -0.2679
     29 C23         3.7816   -1.6896    2.2831 C.ar      1 <0>         0.1759
     30 O2          4.0789   -2.0921    1.0200 O.3       1 <0>        -0.3085
     31 C24         5.3789   -1.7659    0.5243 C.3       1 <0>         0.0206
     32 O3          5.3412    0.0941    5.0467 O.3       1 <0>        -0.2871
     33 C25         6.5985    0.3549    4.4197 C.3       1 <0>         0.0172
     34 O4          2.8804   -0.4721    6.1379 O.3       1 <0>        -0.2931
     35 C26         1.5837   -0.7994    6.6412 C.3       1 <0>         0.0210
     36 C27         0.6861   -0.5252    1.1989 C.3       1 <0>         0.0972
     37 H1          0.9765    1.8449    0.0240 H         1 <0>         0.0794
     38 H2         -0.5794    1.8288   -0.8405 H         1 <0>         0.0846
     39 H3         -0.5499    1.8172    0.9392 H         1 <0>         0.0388
     40 H4         -1.8639   -0.4453    0.9525 H         1 <0>         0.0582
     41 H5         -1.9712   -0.0114   -0.7742 H         1 <0>         0.1124
     42 H6         -2.2880   -2.4868   -0.2838 H         1 <0>         0.1205
     43 H7         -0.9874   -2.1187   -1.4390 H         1 <0>         0.1344
     44 H8          1.5590   -8.9279    2.6060 H         1 <0>         0.4066
     45 H9          3.5127   -8.7565    5.5265 H         1 <0>         0.1384
     46 H10         4.7826  -10.6258    6.5010 H         1 <0>         0.1288
     47 H11         5.0467  -12.7250    5.2439 H         1 <0>         0.1275
     48 H12         4.0420  -12.9619    3.0098 H         1 <0>         0.1302
     49 H13         2.7605  -11.1027    2.0309 H         1 <0>         0.1260
     50 H14         3.4720   -3.6261    3.7446 H         1 <0>         0.4067
     51 H15         3.8562   -5.2022    4.1817 H         1 <0>         0.4314
     52 H16         1.2625   -1.7856    4.5625 H         1 <0>         0.1519
     53 H17         5.6857   -0.7674    2.6030 H         1 <0>         0.1591
     54 H18         5.4854   -2.1442   -0.4924 H         1 <0>         0.1119
     55 H19         5.5068   -0.6835    0.5245 H         1 <0>         0.0661
     56 H20         6.1360   -2.2214    1.1626 H         1 <0>         0.0640
     57 H21         7.2413    0.9030    5.1086 H         1 <0>         0.1148
     58 H22         7.0738   -0.5888    4.1522 H         1 <0>         0.0626
     59 H23         6.4395    0.9495    3.5201 H         1 <0>         0.0631
     60 H24         0.8225   -0.3433    6.0082 H         1 <0>         0.0572
     61 H25         1.4562   -1.8819    6.6403 H         1 <0>         0.0569
     62 H26         1.4833   -0.4226    7.6591 H         1 <0>         0.1118
     63 H27         1.7300   -0.2147    1.1538 H         1 <0>         0.1126
     64 H28         0.2313   -0.1247    2.1049 H         1 <0>         0.0746
     65 H29        -1.0211   -4.5254    0.0248 H         1 <0>         0.4502
@<TRIPOS>BOND
     1    1    2 1
     2    1   37 1
     3    1   38 1
     4    1   39 1
     5    2   36 1
     6    2    3 1
     7    3    4 1
     8    3   40 1
     9    3   41 1
    10    4    5 1
    11    4   42 1
    12    4   43 1
    13    5   13 ar
    14    5    6 ar
    15    6    7 ar
    16    6   36 1
    17    7    8 ar
    18    7   24 1
    19    8   12 ar
    20    8    9 1
    21    9   10 2
    22    9   23 1
    23   10   11 1
    24   10   14 1
    25   11   12 1
    26   12   13 ar
    27   13   65 1
    28   14   15 2
    29   14   16 am
    30   16   17 1
    31   16   44 1
    32   17   22 ar
    33   17   18 ar
    34   18   19 ar
    35   18   45 1
    36   19   20 ar
    37   19   46 1
    38   20   21 ar
    39   20   47 1
    40   21   22 ar
    41   21   48 1
    42   22   49 1
    43   23   50 1
    44   23   51 1
    45   24   29 ar
    46   24   25 ar
    47   25   26 ar
    48   25   52 1
    49   26   27 ar
    50   26   34 1
    51   27   28 ar
    52   27   32 1
    53   28   29 ar
    54   28   53 1
    55   29   30 1
    56   30   31 1
    57   31   54 1
    58   31   55 1
    59   31   56 1
    60   32   33 1
    61   33   57 1
    62   33   58 1
    63   33   59 1
    64   34   35 1
    65   35   60 1
    66   35   61 1
    67   35   62 1
    68   36   63 1
    69   36   64 1
@<TRIPOS>MOLECULE
ZINC59076474
   47    49     0     0     0
SMALL
USER_CHARGES

@<TRIPOS>ATOM
      1 C1         -0.0173    1.4248    0.0099 C.3       1 <0>         0.0185
      2 O1          0.0021   -0.0041    0.0020 O.3       1 <0>        -0.2917
      3 C2         -1.1995   -0.6370    0.0101 C.ar      1 <0>         0.1573
      4 C3         -2.3730    0.1046    0.0196 C.ar      1 <0>        -0.1816
      5 C4         -3.5946   -0.5329    0.0278 C.ar      1 <0>        -0.0694
      6 C5         -3.6542   -1.9286    0.0266 C.ar      1 <0>        -0.1512
      7 C6         -2.4732   -2.6753    0.0171 C.ar      1 <0>        -0.1019
      8 C7         -1.2518   -2.0300    0.0031 C.ar      1 <0>         0.1005
      9 O2         -0.1004   -2.7537   -0.0122 O.3       1 <0>        -0.2961
     10 C8         -0.2288   -4.1769   -0.0186 C.3       1 <0>         0.0203
     11 C9         -4.9619   -2.6130    0.0359 C.2       1 <0>         0.5851
     12 O3         -5.0123   -3.8286    0.0348 O.2       1 <0>        -0.4948
     13 N1         -6.1002   -1.8914    0.0455 N.am      1 <0>        -0.5348
     14 N2         -7.3414   -2.5410    0.0543 N.pl3     1 <0>        -0.3734
     15 C10        -8.4345   -1.8480    0.0635 C.cat     1 <0>         0.5156
     16 C11        -8.3720   -0.3423    0.0648 C.3       1 <0>        -0.1399
     17 H1         -7.4655   -0.0103    0.5709 H         1 <0>         0.1719
     18 C12        -9.6030    0.2283    0.7758 C.3       1 <0>        -0.0773
     19 C13       -10.8094    0.1188   -0.1219 C.ar      1 <0>        -0.1914
     20 C14       -12.0688    0.1739    0.4544 C.ar      1 <0>        -0.0458
     21 C15       -13.2012    0.0836   -0.3316 C.ar      1 <0>        -0.1019
     22 C16       -13.0820   -0.0612   -1.7026 C.ar      1 <0>        -0.0401
     23 C17       -11.8311   -0.1185   -2.2816 C.ar      1 <0>        -0.1070
     24 C18       -10.6891   -0.0321   -1.4917 C.ar      1 <0>         0.1170
     25 O4         -9.4746   -0.1125   -2.1011 O.3       1 <0>        -0.2706
     26 C19        -8.3841    0.1742   -1.3601 C.2       1 <0>         0.4953
     27 O5         -7.4621    0.8129   -1.8095 O.2       1 <0>        -0.3701
     28 Br1       -14.9142    0.1574    0.4660 Br        1 <0>        -0.0091
     29 N3         -9.6593   -2.4891    0.0722 N.pl3     1 <0>        -0.7668
     30 H2          1.0053    1.8021    0.0021 H         1 <0>         0.1118
     31 H3         -0.5445    1.7859   -0.8732 H         1 <0>         0.0633
     32 H4         -0.5275    1.7763    0.9067 H         1 <0>         0.0630
     33 H5         -2.3283    1.1837    0.0208 H         1 <0>         0.1533
     34 H6         -4.5060    0.0466    0.0355 H         1 <0>         0.1284
     35 H7         -2.5152   -3.7545    0.0165 H         1 <0>         0.1559
     36 H8         -0.7643   -4.4974    0.8750 H         1 <0>         0.0600
     37 H9         -0.7819   -4.4878   -0.9048 H         1 <0>         0.0600
     38 H10         0.7621   -4.6310   -0.0309 H         1 <0>         0.1110
     39 H11        -6.0600   -0.9222    0.0463 H         1 <0>         0.4419
     40 H12        -9.7827   -0.3310    1.6939 H         1 <0>         0.1262
     41 H13        -9.4271    1.2760    1.0199 H         1 <0>         0.1373
     42 H14       -12.1653    0.2877    1.5240 H         1 <0>         0.1557
     43 H15       -13.9667   -0.1295   -2.3183 H         1 <0>         0.1591
     44 H16       -11.7380   -0.2311   -3.3516 H         1 <0>         0.1593
     45 H17        -9.6994   -3.4582    0.0714 H         1 <0>         0.4354
     46 H18       -10.4785   -1.9697    0.0792 H         1 <0>         0.4461
     47 H19        -7.3816   -3.5102    0.0535 H         1 <0>         0.4656
@<TRIPOS>BOND
     1    1    2 1
     2    1   30 1
     3    1   31 1
     4    1   32 1
     5    2    3 1
     6    3    8 ar
     7    3    4 ar
     8    4    5 ar
     9    4   33 1
    10    5    6 ar
    11    5   34 1
    12    6    7 ar
    13    6   11 1
    14    7    8 ar
    15    7   35 1
    16    8    9 1
    17    9   10 1
    18   10   36 1
    19   10   37 1
    20   10   38 1
    21   11   12 2
    22   11   13 am
    23   13   14 1
    24   13   39 1
    25   14   15 2
    26   14   47 1
    27   15   16 1
    28   15   29 1
    29   16   17 1
    30   16   26 1
    31   16   18 1
    32   18   19 1
    33   18   40 1
    34   18   41 1
    35   19   24 ar
    36   19   20 ar
    37   20   21 ar
    38   20   42 1
    39   21   22 ar
    40   21   28 1
    41   22   23 ar
    42   22   43 1
    43   23   24 ar
    44   23   44 1
    45   24   25 1
    46   25   26 1
    47   26   27 2
    48   29   45 1
    49   29   46 1
@<TRIPOS>MOLECULE
ZINC63552605
   67    71     0     0     0
SMALL
USER_CHARGES

@<TRIPOS>ATOM
      1 C1         -0.0460    1.6485   -0.2307 C.3       1 <0>        -0.1480
      2 C2         -0.0328    0.1262   -0.0787 C.3       1 <0>        -0.1434
      3 C3          0.7182   -0.4975   -1.2568 C.3       1 <0>         0.1444
      4 H1          0.2732   -0.1579   -2.1921 H         1 <0>         0.0866
      5 C4          0.6247   -2.0222   -1.1716 C.3       1 <0>        -0.1688
      6 N1          2.1249   -0.0911   -1.2094 N.am      1 <0>        -0.6434
      7 C5          2.6894    0.6807   -2.3102 C.3       1 <0>         0.4874
      8 H2          2.5998    1.7449   -2.0922 H         1 <0>         0.1176
      9 N2          2.0519    0.3889   -3.6040 N.3       1 <0>        -0.4798
     10 N3          3.0462   -0.3748   -4.3764 N.3       1 <0>        -0.4730
     11 C6          4.3525    0.1696   -3.9000 C.3       1 <0>         0.3004
     12 H3          4.5715    1.1238   -4.3791 H         1 <0>         0.1136
     13 N4          4.1159    0.3314   -2.4864 N.pl3     1 <0>        -0.6464
     14 C7          4.9502    0.1430   -1.3867 C.2       1 <0>         0.2482
     15 C8          6.3090    0.2716   -1.2346 C.2       1 <0>        -0.2105
     16 C9          6.8723    0.0185   -0.0259 C.2       1 <0>        -0.2044
     17 S1          5.5773   -0.4068    0.9628 S.3       1 <0>         0.3202
     18 C10         4.2727   -0.2534   -0.2098 C.2       1 <0>        -0.3803
     19 C11         2.8882   -0.4336   -0.1355 C.2       1 <0>         0.6242
     20 O1          2.3746   -0.8926    0.8690 O.2       1 <0>        -0.5223
     21 C12         5.4815   -0.8323   -4.1499 C.3       1 <0>        -0.1328
     22 C13         5.6912   -0.9991   -5.6562 C.3       1 <0>        -0.0981
     23 C14         6.8202   -2.0010   -5.9062 C.3       1 <0>        -0.1401
     24 C15         7.0267   -2.1653   -7.3899 C.2       1 <0>         0.5173
     25 O2          6.3387   -1.5423   -8.1706 O.2       1 <0>        -0.5247
     26 N5          7.9760   -3.0045   -7.8493 N.am      1 <0>        -0.7397
     27 C16         8.1768   -3.1641   -9.2917 C.3       1 <0>         0.1253
     28 C17         9.3058   -4.1661   -9.5416 C.3       1 <0>        -0.1049
     29 C18         9.5123   -4.3303  -11.0253 C.2       1 <0>         0.0701
     30 C19        10.4126   -3.6806  -11.7978 C.ar      1 <0>        -0.1671
     31 C20        11.4292   -2.6647  -11.4996 C.ar      1 <0>        -0.0129
     32 C21        12.1987   -2.1916  -12.5061 C.ar      1 <0>        -0.1499
     33 C22        12.0498   -2.6457  -13.8238 C.ar      1 <0>         0.0549
     34 C23        11.1382   -3.5770  -14.1755 C.ar      1 <0>        -0.2097
     35 C24        10.2757   -4.1439  -13.1971 C.ar      1 <0>         0.3280
     36 N6          9.3276   -5.0450  -13.2862 N.pl3     1 <0>        -0.5847
     37 C25         8.7594   -5.2598  -11.9508 C.3       1 <0>         0.0604
     38 H4          0.9783    2.0210   -0.2467 H         1 <0>         0.0485
     39 H5         -0.5446    1.9164   -1.1622 H         1 <0>         0.0526
     40 H6         -0.5811    2.0928    0.6086 H         1 <0>         0.0575
     41 H7          0.4658   -0.1417    0.8528 H         1 <0>         0.0945
     42 H8         -1.0571   -0.2463   -0.0627 H         1 <0>         0.0732
     43 H9          1.0697   -2.3618   -0.2362 H         1 <0>         0.0772
     44 H10        -0.4219   -2.3246   -1.2068 H         1 <0>         0.0733
     45 H11         1.1598   -2.4665   -2.0108 H         1 <0>         0.0471
     46 H12         1.2049   -0.1445   -3.4776 H         1 <0>         0.3562
     47 H13         2.9738   -1.3623   -4.1825 H         1 <0>         0.3202
     48 H14         6.9244    0.5713   -2.0700 H         1 <0>         0.1368
     49 H15         7.9171    0.0764    0.2416 H         1 <0>         0.1966
     50 H16         6.4008   -0.4652   -3.6935 H         1 <0>         0.0836
     51 H17         5.2171   -1.7945   -3.7111 H         1 <0>         0.0703
     52 H18         4.7719   -1.3662   -6.1126 H         1 <0>         0.0829
     53 H19         5.9556   -0.0370   -6.0950 H         1 <0>         0.0778
     54 H20         7.7394   -1.6339   -5.4498 H         1 <0>         0.0974
     55 H21         6.5558   -2.9632   -5.4674 H         1 <0>         0.0967
     56 H22         8.5263   -3.5027   -7.2249 H         1 <0>         0.4062
     57 H23         7.2575   -3.5313   -9.7480 H         1 <0>         0.0774
     58 H24         8.4412   -2.2020   -9.7304 H         1 <0>         0.0784
     59 H25        10.2250   -3.7989   -9.0852 H         1 <0>         0.1158
     60 H26         9.0414   -5.1282   -9.1028 H         1 <0>         0.1187
     61 H27        11.5604   -2.3001  -10.4915 H         1 <0>         0.1604
     62 H28        12.9473   -1.4440  -12.2890 H         1 <0>         0.1583
     63 H29        12.6906   -2.2333  -14.5892 H         1 <0>         0.1615
     64 H30        11.0632   -3.8931  -15.2055 H         1 <0>         0.1610
     65 H31         8.9025   -6.2951  -11.6413 H         1 <0>         0.1752
     66 H32         7.6983   -5.0106  -11.9517 H         1 <0>         0.1745
     67 H33         9.0508   -5.4970  -14.0986 H         1 <0>         0.4564
@<TRIPOS>BOND
     1    1    2 1
     2    1   38 1
     3    1   39 1
     4    1   40 1
     5    2    3 1
     6    2   41 1
     7    2   42 1
     8    3    4 1
     9    3    5 1
    10    3    6 1
    11    5   43 1
    12    5   44 1
    13    5   45 1
    14    6   19 am
    15    6    7 1
    16    7    8 1
    17    7   13 1
    18    7    9 1
    19    9   10 1
    20    9   46 1
    21   10   11 1
    22   10   47 1
    23   11   12 1
    24   11   13 1
    25   11   21 1
    26   13   14 1
    27   14   18 2
    28   14   15 1
    29   15   16 2
    30   15   48 1
    31   16   17 1
    32   16   49 1
    33   17   18 1
    34   18   19 1
    35   19   20 2
    36   21   22 1
    37   21   50 1
    38   21   51 1
    39   22   23 1
    40   22   52 1
    41   22   53 1
    42   23   24 1
    43   23   54 1
    44   23   55 1
    45   24   25 2
    46   24   26 am
    47   26   27 1
    48   26   56 1
    49   27   28 1
    50   27   57 1
    51   27   58 1
    52   28   29 1
    53   28   59 1
    54   28   60 1
    55   29   37 1
    56   29   30 2
    57   30   35 ar
    58   30   31 ar
    59   31   32 ar
    60   31   61 1
    61   32   33 ar
    62   32   62 1
    63   33   34 ar
    64   33   63 1
    65   34   35 ar
    66   34   64 1
    67   35   36 2
    68   36   37 1
    69   36   67 1
    70   37   65 1
    71   37   66 1
@<TRIPOS>MOLECULE
ZINC12099895
   67    71     0     0     0
SMALL
USER_CHARGES
N-[(1R,2R)-2-methoxy-1'-[(3-methyl-2-thienyl)methyl]spiro[indane-3,4'-piperidine]-1-yl]-2-phenoxy-acetamide
@<TRIPOS>ATOM
      1 C1         -0.0127    1.0858    0.0080 C.3       1 <0>        -0.1241
      2 C2         -0.7181    1.5718    1.2479 C.2       1 <0>        -0.0452
      3 C3         -0.0093    1.8094    2.4106 C.2       1 <0>        -0.1778
      4 C4         -0.6742    2.2460    3.5081 C.2       1 <0>        -0.1143
      5 S1         -2.3545    2.3337    2.9114 S.3       1 <0>         0.0874
      6 C5         -2.0562    1.7879    1.2380 C.2       1 <0>        -0.2753
      7 C6         -3.0376    1.6116    0.1081 C.3       1 <0>         0.1015
      8 C7         -2.5166   -0.7379   -0.1545 C.3       1 <0>        -0.0099
      9 C8         -3.0712   -2.1529    0.0324 C.3       1 <0>        -0.1242
     10 C9         -4.2667   -2.3531   -0.8952 C.3       1 <0>        -0.0201
     11 C10        -5.3257   -1.2855   -0.6325 C.3       1 <0>        -0.1351
     12 C11        -4.6984    0.1015   -0.7986 C.3       1 <0>        -0.0090
     13 C12        -4.8528   -3.7320   -0.7103 C.ar      1 <0>        -0.0913
     14 C13        -5.1266   -4.4491    0.4426 C.ar      1 <0>        -0.1014
     15 C14        -5.6723   -5.7150    0.3618 C.ar      1 <0>        -0.1054
     16 C15        -5.9460   -6.2710   -0.8741 C.ar      1 <0>        -0.1065
     17 C16        -5.6736   -5.5584   -2.0252 C.ar      1 <0>        -0.0813
     18 C17        -5.1270   -4.2886   -1.9467 C.ar      1 <0>        -0.0992
     19 C18        -4.7427   -3.3169   -3.0425 C.3       1 <0>         0.1659
     20 H1         -4.2162   -3.8378   -3.8422 H         1 <0>         0.1114
     21 C19        -3.8098   -2.2902   -2.3640 C.3       1 <0>         0.0840
     22 H2         -3.9653   -1.2932   -2.7762 H         1 <0>         0.0847
     23 O1         -2.4423   -2.6858   -2.4884 O.3       1 <0>        -0.3588
     24 C20        -1.7520   -2.0585   -3.5711 C.3       1 <0>         0.0194
     25 N1         -5.9348   -2.6491   -3.5707 N.am      1 <0>        -0.7234
     26 C21        -6.6469   -3.2243   -4.5600 C.2       1 <0>         0.5189
     27 O2         -6.3007   -4.2948   -5.0129 O.2       1 <0>        -0.4932
     28 C22        -7.8732   -2.5373   -5.1034 C.3       1 <0>         0.0431
     29 O3         -8.4497   -3.3387   -6.1365 O.3       1 <0>        -0.2895
     30 C23        -9.5710   -2.8591   -6.7362 C.ar      1 <0>         0.1220
     31 C24       -10.1087   -1.6450   -6.3344 C.ar      1 <0>        -0.2120
     32 C25       -11.2456   -1.1571   -6.9492 C.ar      1 <0>        -0.0804
     33 C26       -11.8535   -1.8829   -7.9568 C.ar      1 <0>        -0.1520
     34 C27       -11.3229   -3.0960   -8.3551 C.ar      1 <0>        -0.0764
     35 C28       -10.1832   -3.5856   -7.7471 C.ar      1 <0>        -0.1443
     36 H3          0.0021   -0.0041    0.0020 H         1 <0>         0.0820
     37 H4          1.0099    1.4631    0.0003 H         1 <0>         0.0852
     38 H5         -0.5399    1.4469   -0.8751 H         1 <0>         0.0702
     39 H6          1.0582    1.6491    2.4441 H         1 <0>         0.1491
     40 H7         -0.2877    2.4798    4.4892 H         1 <0>         0.1999
     41 H8         -3.8558    2.3226    0.2232 H         1 <0>         0.1406
     42 H9         -2.5335    1.7886   -0.8420 H         1 <0>         0.1444
     43 H10        -2.1749   -0.6144   -1.1822 H         1 <0>         0.1296
     44 H11        -1.6807   -0.5823    0.5275 H         1 <0>         0.1347
     45 H12        -3.3873   -2.2861    1.0670 H         1 <0>         0.0905
     46 H13        -2.2975   -2.8818   -0.2089 H         1 <0>         0.1275
     47 H14        -5.7068   -1.3932    0.3830 H         1 <0>         0.1055
     48 H15        -6.1440   -1.4021   -1.3431 H         1 <0>         0.1114
     49 H16        -5.4450    0.8660   -0.5839 H         1 <0>         0.1385
     50 H17        -4.3418    0.2189   -1.8219 H         1 <0>         0.1295
     51 H18        -4.9130   -4.0162    1.4087 H         1 <0>         0.1206
     52 H19        -5.8848   -6.2705    1.2633 H         1 <0>         0.1309
     53 H20        -6.3719   -7.2613   -0.9392 H         1 <0>         0.1315
     54 H21        -5.8873   -5.9934   -2.9904 H         1 <0>         0.1296
     55 H22        -2.2458   -2.3082   -4.5102 H         1 <0>         0.0538
     56 H23        -1.7627   -0.9775   -3.4311 H         1 <0>         0.0424
     57 H24        -0.7210   -2.4112   -3.5977 H         1 <0>         0.1016
     58 H25        -6.2117   -1.7929   -3.2085 H         1 <0>         0.3950
     59 H26        -8.5988   -2.4013   -4.3014 H         1 <0>         0.0938
     60 H27        -7.5948   -1.5652   -5.5102 H         1 <0>         0.0936
     61 H28        -9.6365   -1.0797   -5.5446 H         1 <0>         0.1239
     62 H29       -11.6624   -0.2102   -6.6394 H         1 <0>         0.1268
     63 H30       -12.7446   -1.5018   -8.4334 H         1 <0>         0.1277
     64 H31       -11.8000   -3.6613   -9.1420 H         1 <0>         0.1339
     65 H32        -9.7693   -4.5334   -8.0584 H         1 <0>         0.1340
     66 N2         -3.5813    0.2390    0.1605 N.4       1 <0>        -0.3942
     67 H33        -3.9317    0.0552    1.1080 H         1 <0>         0.4281
@<TRIPOS>BOND
     1    1    2 1
     2    1   36 1
     3    1   37 1
     4    1   38 1
     5    2    6 2
     6    2    3 1
     7    3    4 2
     8    3   39 1
     9    4    5 1
    10    4   40 1
    11    5    6 1
    12    6    7 1
    13    7   41 1
    14    7   42 1
    15    7   66 1
    16    8    9 1
    17    8   43 1
    18    8   44 1
    19    8   66 1
    20    9   10 1
    21    9   45 1
    22    9   46 1
    23   10   21 1
    24   10   11 1
    25   10   13 1
    26   11   12 1
    27   11   47 1
    28   11   48 1
    29   12   49 1
    30   12   50 1
    31   12   66 1
    32   13   18 ar
    33   13   14 ar
    34   14   15 ar
    35   14   51 1
    36   15   16 ar
    37   15   52 1
    38   16   17 ar
    39   16   53 1
    40   17   18 ar
    41   17   54 1
    42   18   19 1
    43   19   20 1
    44   19   21 1
    45   19   25 1
    46   21   22 1
    47   21   23 1
    48   23   24 1
    49   24   55 1
    50   24   56 1
    51   24   57 1
    52   25   26 am
    53   25   58 1
    54   26   27 2
    55   26   28 1
    56   28   29 1
    57   28   59 1
    58   28   60 1
    59   29   30 1
    60   30   35 ar
    61   30   31 ar
    62   31   32 ar
    63   31   61 1
    64   32   33 ar
    65   32   62 1
    66   33   34 ar
    67   33   63 1
    68   34   35 ar
    69   34   64 1
    70   35   65 1
    71   66   67 1
@<TRIPOS>MOLECULE
ZINC14994227
   63    66     0     0     0
SMALL
USER_CHARGES
(5S)-5-[(2-chlorophenyl)methyl]-3-(cyclopropylmethyl)-5-[1-(3-methylbut-2-enyl)-4-piperidyl]imidazolidine-2,4-dione
@<TRIPOS>ATOM
      1 C1          2.8685    8.1985   -5.3248 C.3       1 <0>        -0.1481
      2 C2          1.5620    8.7022   -4.7676 C.2       1 <0>        -0.0361
      3 C3          0.5055    7.9276   -4.7730 C.2       1 <0>        -0.2594
      4 C4          0.6250    6.4935   -5.2203 C.3       1 <0>         0.0346
      5 C5          0.4120    4.2035   -4.4644 C.3       1 <0>         0.0054
      6 C6         -0.2723    3.3024   -3.4341 C.3       1 <0>        -0.1533
      7 C7          0.2194    3.6733   -2.0322 C.3       1 <0>        -0.0923
      8 C8         -0.0734    5.1533   -1.7707 C.3       1 <0>        -0.1548
      9 C9          0.6039    6.0007   -2.8502 C.3       1 <0>         0.0021
     10 C10        -0.5064    2.8170   -0.9926 C.3       1 <0>         0.1334
     11 C11        -2.0039    2.8507   -1.2254 C.2       1 <0>         0.5337
     12 O1         -2.7289    3.8217   -1.1891 O.2       1 <0>        -0.4628
     13 N1         -2.3606    1.5778   -1.4876 N.am      1 <0>        -0.5663
     14 C12        -1.3091    0.7517   -1.4440 C.2       1 <0>         0.6997
     15 O2         -1.3814   -0.4450   -1.6431 O.2       1 <0>        -0.5185
     16 N2         -0.1618    1.3947   -1.1607 N.am      1 <0>        -0.7194
     17 C13        -3.7310    1.1508   -1.7805 C.3       1 <0>         0.1485
     18 C14        -4.4401    0.7820   -0.4759 C.3       1 <0>        -0.1813
     19 C15        -4.8843   -0.6715   -0.2998 C.3       1 <0>        -0.1665
     20 C16        -5.9246    0.4206   -0.5565 C.3       1 <0>        -0.1656
     21 C17        -0.1676    3.2893    0.4227 C.3       1 <0>        -0.0803
     22 C18        -0.8377    2.3874    1.4271 C.ar      1 <0>        -0.0997
     23 C19        -2.0619    2.7397    1.9639 C.ar      1 <0>        -0.1010
     24 C20        -2.6786    1.9105    2.8819 C.ar      1 <0>        -0.1093
     25 C21        -2.0671    0.7331    3.2709 C.ar      1 <0>        -0.0949
     26 C22        -0.8408    0.3825    2.7389 C.ar      1 <0>        -0.1038
     27 C23        -0.2252    1.2098    1.8163 C.ar      1 <0>        -0.0185
     28 Cl1         1.3156    0.7703    1.1480 Cl        1 <0>        -0.0643
     29 C24         1.4709   10.0969   -4.2041 C.3       1 <0>        -0.1392
     30 H1          2.7181    7.8528   -6.3475 H         1 <0>         0.0801
     31 H2          3.6015    9.0052   -5.3180 H         1 <0>         0.0813
     32 H3          3.2308    7.3732   -4.7119 H         1 <0>         0.0760
     33 H4         -0.4510    8.3168   -4.4570 H         1 <0>         0.1349
     34 H5          1.6728    6.2564   -5.4044 H         1 <0>         0.1316
     35 H6          0.0535    6.3501   -6.1373 H         1 <0>         0.1309
     36 H7          1.4908    4.0543   -4.4179 H         1 <0>         0.1335
     37 H8          0.0532    3.9517   -5.4624 H         1 <0>         0.1325
     38 H9         -0.0274    2.2608   -3.6419 H         1 <0>         0.1167
     39 H10        -1.3521    3.4403   -3.4893 H         1 <0>         0.0874
     40 H11         1.2929    3.4968   -1.9642 H         1 <0>         0.1132
     41 H12        -1.1499    5.3219   -1.7992 H         1 <0>         0.1067
     42 H13         0.3135    5.4333   -0.7909 H         1 <0>         0.1208
     43 H14         1.6818    5.8430   -2.8113 H         1 <0>         0.1289
     44 H15         0.3845    7.0540   -2.6758 H         1 <0>         0.1364
     45 H16         0.7202    0.9989   -1.0822 H         1 <0>         0.4400
     46 H17        -4.2683    1.9638   -2.2688 H         1 <0>         0.0993
     47 H18        -3.7081    0.2830   -2.4396 H         1 <0>         0.1010
     48 H19        -4.0994    1.3155    0.4115 H         1 <0>         0.1067
     49 H20        -4.6714   -1.3649   -1.1134 H         1 <0>         0.0998
     50 H21        -4.8358   -1.0945    0.7036 H         1 <0>         0.0963
     51 H22        -6.5606    0.7161    0.2781 H         1 <0>         0.1003
     52 H23        -6.3961    0.4457   -1.5389 H         1 <0>         0.0990
     53 H24         0.9121    3.2561    0.5681 H         1 <0>         0.1041
     54 H25        -0.5214    4.3112    0.5592 H         1 <0>         0.1050
     55 H26        -2.5382    3.6612    1.6634 H         1 <0>         0.1326
     56 H27        -3.6366    2.1844    3.2985 H         1 <0>         0.1333
     57 H28        -2.5477    0.0874    3.9910 H         1 <0>         0.1372
     58 H29        -0.3629   -0.5369    3.0434 H         1 <0>         0.1381
     59 H30         1.7067   10.0750   -3.1401 H         1 <0>         0.0858
     60 H31         2.1799   10.7443   -4.7201 H         1 <0>         0.0782
     61 H32         0.4602   10.4801   -4.3445 H         1 <0>         0.0753
     62 N3          0.0697    5.6120   -4.1726 N.4       1 <0>        -0.3926
     63 H33        -0.9523    5.7107   -4.1611 H         1 <0>         0.4275
@<TRIPOS>BOND
     1    1    2 1
     2    1   30 1
     3    1   31 1
     4    1   32 1
     5    2    3 2
     6    2   29 1
     7    3    4 1
     8    3   33 1
     9    4   34 1
    10    4   35 1
    11    4   62 1
    12    5    6 1
    13    5   36 1
    14    5   37 1
    15    5   62 1
    16    6    7 1
    17    6   38 1
    18    6   39 1
    19    7    8 1
    20    7   10 1
    21    7   40 1
    22    8    9 1
    23    8   41 1
    24    8   42 1
    25    9   43 1
    26    9   44 1
    27    9   62 1
    28   10   16 1
    29   10   11 1
    30   10   21 1
    31   11   12 2
    32   11   13 am
    33   13   14 am
    34   13   17 1
    35   14   15 2
    36   14   16 am
    37   16   45 1
    38   17   18 1
    39   17   46 1
    40   17   47 1
    41   18   20 1
    42   18   19 1
    43   18   48 1
    44   19   20 1
    45   19   49 1
    46   19   50 1
    47   20   51 1
    48   20   52 1
    49   21   22 1
    50   21   53 1
    51   21   54 1
    52   22   27 ar
    53   22   23 ar
    54   23   24 ar
    55   23   55 1
    56   24   25 ar
    57   24   56 1
    58   25   26 ar
    59   25   57 1
    60   26   27 ar
    61   26   58 1
    62   27   28 1
    63   29   59 1
    64   29   60 1
    65   29   61 1
    66   62   63 1
@<TRIPOS>MOLECULE
ZINC28402848
   65    68     0     0     0
SMALL
USER_CHARGES
N-[(2R)-2-(4-tert-butylphenyl)-2-(1-piperidyl)ethyl]-4-oxo-chromene-2-carboxamide
@<TRIPOS>ATOM
      1 C1         -1.5348    2.6717    8.4840 C.3       1 <0>        -0.1452
      2 C2         -2.5305    2.8256    7.3325 C.3       1 <0>        -0.0376
      3 C3         -2.9161    4.2989    7.1853 C.3       1 <0>        -0.1518
      4 C4         -3.7829    1.9976    7.6272 C.3       1 <0>        -0.1435
      5 C5         -1.8978    2.3416    6.0533 C.ar      1 <0>        -0.0278
      6 C6         -1.4653    1.0329    5.9481 C.ar      1 <0>        -0.1068
      7 C7         -0.8854    0.5889    4.7745 C.ar      1 <0>        -0.0801
      8 C8         -0.7375    1.4537    3.7062 C.ar      1 <0>        -0.1511
      9 C9         -1.1649    2.7639    3.8134 C.ar      1 <0>        -0.1090
     10 C10        -1.7496    3.2066    4.9852 C.ar      1 <0>        -0.1122
     11 C11        -0.1049    0.9697    2.4269 C.3       1 <0>         0.0806
     12 H1          0.1498   -0.0964    2.5188 H         1 <0>         0.1506
     13 C12         1.1401    1.8063    2.1253 C.3       1 <0>         0.1009
     14 N1          1.6812    1.4232    0.8189 N.am      1 <0>        -0.7488
     15 C13         2.7333    2.0895    0.3035 C.2       1 <0>         0.5887
     16 O1          3.2329    3.0080    0.9223 O.2       1 <0>        -0.4778
     17 C14         3.2807    1.7019   -1.0181 C.2       1 <0>         0.0750
     18 C15         4.3385    2.3892   -1.5114 C.2       1 <0>        -0.2034
     19 C16         4.8829    2.0057   -2.8228 C.2       1 <0>         0.4141
     20 O2          5.8330    2.5884   -3.3147 O.2       1 <0>        -0.4300
     21 C17         4.2235    0.8812   -3.5139 C.ar      1 <0>        -0.2240
     22 C18         4.6614    0.4396   -4.7621 C.ar      1 <0>        -0.0247
     23 C19         4.0253   -0.6061   -5.3715 C.ar      1 <0>        -0.1414
     24 C20         2.9479   -1.2279   -4.7558 C.ar      1 <0>        -0.0484
     25 C21         2.5005   -0.8048   -3.5230 C.ar      1 <0>        -0.1427
     26 C22         3.1330    0.2572   -2.8840 C.ar      1 <0>         0.1504
     27 O3          2.7129    0.6809   -1.6764 O.3       1 <0>        -0.2342
     28 N2         -1.0653    1.1056    1.3237 N.4       1 <0>        -0.3944
     29 C23        -0.9455    2.4203    0.6806 C.3       1 <0>        -0.0341
     30 C24        -1.8542    2.4724   -0.5496 C.3       1 <0>        -0.1423
     31 C25        -3.3025    2.2241   -0.1192 C.3       1 <0>        -0.1399
     32 C26        -3.3907    0.8704    0.5909 C.3       1 <0>        -0.1442
     33 C27        -2.4374    0.8647    1.7881 C.3       1 <0>        -0.0051
     34 H2         -1.2575    1.6125    8.5899 H         1 <0>         0.0598
     35 H3         -1.9967    3.0249    9.4178 H         1 <0>         0.0685
     36 H4         -0.6344    3.2670    8.2722 H         1 <0>         0.0596
     37 H5         -3.6319    4.4096    6.3575 H         1 <0>         0.0599
     38 H6         -2.0157    4.8942    6.9735 H         1 <0>         0.0614
     39 H7         -3.3779    4.6521    8.1191 H         1 <0>         0.0682
     40 H8         -4.4988    2.1082    6.7994 H         1 <0>         0.0576
     41 H9         -4.2447    2.3509    8.5610 H         1 <0>         0.0684
     42 H10        -3.5056    0.9384    7.7331 H         1 <0>         0.0596
     43 H11        -1.5808    0.3573    6.7827 H         1 <0>         0.1360
     44 H12        -0.5474   -0.4336    4.6923 H         1 <0>         0.1335
     45 H13        -1.0453    3.4408    2.9803 H         1 <0>         0.1247
     46 H14        -2.0871    4.2291    5.0675 H         1 <0>         0.1400
     47 H15         0.8709    2.8728    2.1122 H         1 <0>         0.1038
     48 H16         1.8981    1.6290    2.9024 H         1 <0>         0.1182
     49 H17         1.2288    0.5917    0.2586 H         1 <0>         0.4273
     50 H18         4.7739    3.2041   -0.9522 H         1 <0>         0.1767
     51 H19         5.4995    0.9205   -5.2445 H         1 <0>         0.1464
     52 H20         4.3627   -0.9498   -6.3381 H         1 <0>         0.1423
     53 H21         2.4544   -2.0525   -5.2486 H         1 <0>         0.1457
     54 H22         1.6608   -1.2960   -3.0541 H         1 <0>         0.1435
     55 H23        -1.2455    3.2047    1.3910 H         1 <0>         0.1279
     56 H24         0.0977    2.5841    0.3726 H         1 <0>         0.1406
     57 H25        -1.7749    3.4625   -1.0223 H         1 <0>         0.1109
     58 H26        -1.5451    1.6978   -1.2669 H         1 <0>         0.0887
     59 H27        -3.6233    3.0224    0.5662 H         1 <0>         0.0801
     60 H28        -3.9529    2.2191   -1.0063 H         1 <0>         0.0944
     61 H29        -4.4209    0.7057    0.9395 H         1 <0>         0.1114
     62 H30        -3.1081    0.0701   -0.1089 H         1 <0>         0.0878
     63 H31        -2.4878   -0.1119    2.2918 H         1 <0>         0.1300
     64 H32        -2.7302    1.6565    2.4933 H         1 <0>         0.1311
     65 H33        -0.8273    0.3408    0.5698 H         1 <0>         0.4361
@<TRIPOS>BOND
     1    1    2 1
     2    1   34 1
     3    1   35 1
     4    1   36 1
     5    2    3 1
     6    2    4 1
     7    2    5 1
     8    3   37 1
     9    3   38 1
    10    3   39 1
    11    4   40 1
    12    4   41 1
    13    4   42 1
    14    5   10 ar
    15    5    6 ar
    16    6    7 ar
    17    6   43 1
    18    7    8 ar
    19    7   44 1
    20    8    9 ar
    21    8   11 1
    22    9   10 ar
    23    9   45 1
    24   10   46 1
    25   11   12 1
    26   11   13 1
    27   11   28 1
    28   13   14 1
    29   13   47 1
    30   13   48 1
    31   14   15 am
    32   14   49 1
    33   15   16 2
    34   15   17 1
    35   17   27 1
    36   17   18 2
    37   18   19 1
    38   18   50 1
    39   19   20 2
    40   19   21 1
    41   21   26 ar
    42   21   22 ar
    43   22   23 ar
    44   22   51 1
    45   23   24 ar
    46   23   52 1
    47   24   25 ar
    48   24   53 1
    49   25   26 ar
    50   25   54 1
    51   26   27 1
    52   28   33 1
    53   28   29 1
    54   28   65 1
    55   29   30 1
    56   29   55 1
    57   29   56 1
    58   30   31 1
    59   30   57 1
    60   30   58 1
    61   31   32 1
    62   31   59 1
    63   31   60 1
    64   32   33 1
    65   32   61 1
    66   32   62 1
    67   33   63 1
    68   33   64 1
@<TRIPOS>MOLECULE
ZINC39372145
   60    64     0     0     0
SMALL
USER_CHARGES

@<TRIPOS>ATOM
      1 C1         -0.0184    1.5028    0.0103 C.3       1 <0>        -0.1317
      2 C2          0.0021   -0.0041    0.0020 C.ar      1 <0>        -0.0457
      3 C3          0.0057   -0.6887   -1.1989 C.ar      1 <0>        -0.1087
      4 C4          0.0245   -2.0709   -1.2065 C.ar      1 <0>        -0.0751
      5 C5          0.0400   -2.7685   -0.0132 C.ar      1 <0>        -0.1530
      6 C6          0.0373   -2.0839    1.1877 C.ar      1 <0>        -0.1123
      7 C7          0.0229   -0.7016    1.1953 C.ar      1 <0>        -0.1067
      8 C8          0.0595   -4.2753   -0.0215 C.3       1 <0>         0.1372
      9 H1          0.4102   -4.6288   -0.9911 H         1 <0>         0.1598
     10 C9         -1.3318   -4.7970    0.2301 C.ar      1 <0>        -0.0877
     11 C10        -1.8494   -4.8470    1.5154 C.ar      1 <0>        -0.1799
     12 C11        -3.1293   -5.3317    1.7076 C.ar      1 <0>         0.1263
     13 N1         -3.8549   -5.7438    0.6866 N.ar      1 <0>        -0.4609
     14 C12        -3.3953   -5.7108   -0.5490 C.ar      1 <0>         0.1247
     15 C13        -2.1267   -5.2331   -0.8188 C.ar      1 <0>        -0.1420
     16 N2          0.9618   -4.7592    1.0319 N.4       1 <0>        -0.5074
     17 C14         1.0739   -6.2214    0.9471 C.3       1 <0>         0.0131
     18 C15         2.0137   -6.7254    2.0442 C.3       1 <0>        -0.1558
     19 H2          2.9742   -6.2129    1.9908 H         1 <0>         0.1584
     20 C16         1.3857   -6.5421    3.4113 C.2       1 <0>         0.0341
     21 N3          1.2701   -7.7276    3.9155 N.2       1 <0>        -0.2558
     22 N4          1.7437   -8.7181    3.0613 N.2       1 <0>        -0.2989
     23 C17         2.2022   -8.2259    1.9385 C.2       1 <0>         0.1768
     24 C18         2.7779   -8.9702    0.8089 C.ar      1 <0>        -0.0900
     25 C19         3.2289   -8.2744   -0.3305 C.ar      1 <0>        -0.0961
     26 C20         3.7638   -8.9400   -1.3840 C.ar      1 <0>        -0.1028
     27 C21         3.8746  -10.3434   -1.3494 C.ar      1 <0>         0.0118
     28 C22         4.4257  -11.0502   -2.4293 C.ar      1 <0>        -0.1669
     29 C23         4.5212  -12.4221   -2.3662 C.ar      1 <0>         0.1583
     30 C24         4.0747  -13.1188   -1.2383 C.ar      1 <0>        -0.1869
     31 C25         3.5365  -12.4594   -0.1785 C.ar      1 <0>        -0.0502
     32 C26         3.4245  -11.0568   -0.2087 C.ar      1 <0>        -0.0971
     33 C27         2.8788  -10.3534    0.8742 C.ar      1 <0>        -0.0058
     34 O1          5.0545  -13.1070   -3.4110 O.3       1 <0>        -0.3101
     35 C28         5.1265  -14.5287   -3.2858 C.3       1 <0>         0.0213
     36 H3          1.0042    1.8801    0.0026 H         1 <0>         0.0837
     37 H4         -0.5455    1.8639   -0.8728 H         1 <0>         0.0771
     38 H5         -0.5286    1.8543    0.9071 H         1 <0>         0.0763
     39 H6         -0.0064   -0.1436   -2.1312 H         1 <0>         0.1386
     40 H7          0.0266   -2.6057   -2.1448 H         1 <0>         0.1355
     41 H8          0.0491   -2.6289    2.1200 H         1 <0>         0.1171
     42 H9          0.0245   -0.1667    2.1335 H         1 <0>         0.1370
     43 H10        -1.2597   -4.5117    2.3558 H         1 <0>         0.1301
     44 H11        -3.5397   -5.3740    2.7057 H         1 <0>         0.1690
     45 H12        -4.0188   -6.0571   -1.3599 H         1 <0>         0.1717
     46 H13        -1.7577   -5.2040   -1.8334 H         1 <0>         0.1493
     47 H14         1.8736   -4.3444    0.9104 H         1 <0>         0.4376
     48 H15         0.0889   -6.6695    1.0783 H         1 <0>         0.1432
     49 H16         1.4724   -6.4993   -0.0287 H         1 <0>         0.1538
     50 H17         1.0936   -5.6097    3.8716 H         1 <0>         0.2064
     51 H18         3.1473   -7.1980   -0.3653 H         1 <0>         0.1194
     52 H19         4.1049   -8.3932   -2.2506 H         1 <0>         0.1390
     53 H20         4.7724  -10.5211   -3.3046 H         1 <0>         0.1425
     54 H21         4.1585  -14.1951   -1.2092 H         1 <0>         0.1402
     55 H22         3.1955  -13.0108    0.6852 H         1 <0>         0.1406
     56 H23         2.5363  -10.8834    1.7507 H         1 <0>         0.1442
     57 H24         5.7400  -14.7868   -2.4227 H         1 <0>         0.0612
     58 H25         4.1231  -14.9329   -3.1523 H         1 <0>         0.0610
     59 H26         5.5712  -14.9507   -4.1870 H         1 <0>         0.1083
     60 H27         0.5929   -4.5020    1.9351 H         1 <0>         0.4227
@<TRIPOS>BOND
     1    1    2 1
     2    1   36 1
     3    1   37 1
     4    1   38 1
     5    2    7 ar
     6    2    3 ar
     7    3    4 ar
     8    3   39 1
     9    4    5 ar
    10    4   40 1
    11    5    6 ar
    12    5    8 1
    13    6    7 ar
    14    6   41 1
    15    7   42 1
    16    8    9 1
    17    8   10 1
    18    8   16 1
    19   10   15 ar
    20   10   11 ar
    21   11   12 ar
    22   11   43 1
    23   12   13 ar
    24   12   44 1
    25   13   14 ar
    26   14   15 ar
    27   14   45 1
    28   15   46 1
    29   16   17 1
    30   16   47 1
    31   16   60 1
    32   17   18 1
    33   17   48 1
    34   17   49 1
    35   18   19 1
    36   18   23 1
    37   18   20 1
    38   20   21 2
    39   20   50 1
    40   21   22 1
    41   22   23 2
    42   23   24 1
    43   24   33 ar
    44   24   25 ar
    45   25   26 ar
    46   25   51 1
    47   26   27 ar
    48   26   52 1
    49   27   32 ar
    50   27   28 ar
    51   28   29 ar
    52   28   53 1
    53   29   30 ar
    54   29   34 1
    55   30   31 ar
    56   30   54 1
    57   31   32 ar
    58   31   55 1
    59   32   33 ar
    60   33   56 1
    61   34   35 1
    62   35   57 1
    63   35   58 1
    64   35   59 1
@<TRIPOS>MOLECULE
ZINC63182695
   52    55     0     0     0
SMALL
USER_CHARGES

@<TRIPOS>ATOM
      1 C1         -0.0167    1.3792    0.0096 C.ar      1 <0>        -0.0818
      2 C2          1.1684    2.0937    0.0021 C.ar      1 <0>        -0.1031
      3 C3          2.3774    1.4300   -0.0134 C.ar      1 <0>        -0.0654
      4 C4          2.4037    0.0338   -0.0212 C.ar      1 <0>        -0.0188
      5 C5          1.2043   -0.6808   -0.0131 C.ar      1 <0>        -0.0557
      6 C6          0.0021   -0.0041    0.0020 C.ar      1 <0>        -0.1024
      7 C7          1.2228   -2.1876   -0.0219 C.3       1 <0>        -0.5940
      8 S1          1.2475   -2.8020    1.6847 S.o2      1 <0>         2.6012
      9 O1          2.4846   -2.4771    2.3039 O.2       1 <0>        -0.9327
     10 O2          0.0156   -2.5075    2.3288 O.2       1 <0>        -0.9298
     11 N1          1.2664   -4.4518    1.5428 N.pl3     1 <0>        -1.1164
     12 C8          2.4186   -5.1215    0.9343 C.3       1 <0>         0.1200
     13 C9          2.3669   -6.6168    1.2544 C.3       1 <0>        -0.0224
     14 H1          1.4081   -7.0241    0.9336 H         1 <0>         0.1339
     15 C10         2.5269   -6.8185    2.7392 C.ar      1 <0>        -0.0967
     16 C11         3.6697   -6.3749    3.3779 C.ar      1 <0>        -0.1105
     17 C12         3.8166   -6.5599    4.7398 C.ar      1 <0>        -0.1006
     18 C13         2.8207   -7.1886    5.4640 C.ar      1 <0>        -0.0880
     19 C14         1.6778   -7.6326    4.8266 C.ar      1 <0>        -0.0972
     20 C15         1.5276   -7.4426    3.4642 C.ar      1 <0>        -0.0240
     21 Cl1         0.0893   -7.9941    2.6638 Cl        1 <0>        -0.0542
     22 C16         3.4816   -7.3247    0.5282 C.2       1 <0>         0.0708
     23 C17         3.3571   -8.3109   -0.3891 C.ar      1 <0>        -0.1571
     24 C18         2.1914   -8.9941   -0.9625 C.ar      1 <0>        -0.0135
     25 C19         2.3875   -9.9653   -1.8831 C.ar      1 <0>        -0.1476
     26 C20         3.6730  -10.3351   -2.3020 C.ar      1 <0>         0.0559
     27 C21         4.7921   -9.7534   -1.8210 C.ar      1 <0>        -0.2085
     28 C22         4.7037   -8.7195   -0.8485 C.ar      1 <0>         0.3301
     29 N2          5.6249   -8.0135   -0.2389 N.pl3     1 <0>        -0.5797
     30 C23         4.9656   -7.0718    0.6728 C.3       1 <0>         0.0510
     31 C24         3.6553   -0.6619   -0.0379 C.1       1 <0>         0.2486
     32 N3          4.6481   -1.2138   -0.0511 N.1       1 <0>        -0.4013
     33 H2         -0.9605    1.9039    0.0260 H         1 <0>         0.1436
     34 H3          1.1466    3.1734    0.0082 H         1 <0>         0.1449
     35 H4          3.3016    1.9888   -0.0200 H         1 <0>         0.1430
     36 H5         -0.9265   -0.5555    0.0083 H         1 <0>         0.1443
     37 H6          0.3322   -2.5589   -0.5289 H         1 <0>         0.1565
     38 H7          2.1119   -2.5370   -0.5468 H         1 <0>         0.1366
     39 H8          0.5147   -4.9747    1.8627 H         1 <0>         0.4241
     40 H9          2.3921   -4.9801   -0.1461 H         1 <0>         0.0841
     41 H10         3.3390   -4.6960    1.3341 H         1 <0>         0.0956
     42 H11         4.4481   -5.8840    2.8127 H         1 <0>         0.1320
     43 H12         4.7098   -6.2134    5.2384 H         1 <0>         0.1404
     44 H13         2.9362   -7.3332    6.5281 H         1 <0>         0.1436
     45 H14         0.9001   -8.1240    5.3923 H         1 <0>         0.1454
     46 H15         1.1920   -8.7255   -0.6537 H         1 <0>         0.1600
     47 H16         1.5312  -10.4693   -2.3063 H         1 <0>         0.1594
     48 H17         3.7721  -11.1177   -3.0395 H         1 <0>         0.1624
     49 H18         5.7599  -10.0752   -2.1764 H         1 <0>         0.1623
     50 H19         5.2011   -6.0456    0.3910 H         1 <0>         0.1774
     51 H20         5.2810   -7.2622    1.6987 H         1 <0>         0.1769
     52 H21         6.5822   -8.0970   -0.3714 H         1 <0>         0.4575
@<TRIPOS>BOND
     1    1    6 ar
     2    1    2 ar
     3    1   33 1
     4    2    3 ar
     5    2   34 1
     6    3    4 ar
     7    3   35 1
     8    4    5 ar
     9    4   31 1
    10    5    6 ar
    11    5    7 1
    12    6   36 1
    13    7    8 1
    14    7   37 1
    15    7   38 1
    16    8    9 2
    17    8   10 2
    18    8   11 1
    19   11   12 1
    20   11   39 1
    21   12   13 1
    22   12   40 1
    23   12   41 1
    24   13   14 1
    25   13   15 1
    26   13   22 1
    27   15   20 ar
    28   15   16 ar
    29   16   17 ar
    30   16   42 1
    31   17   18 ar
    32   17   43 1
    33   18   19 ar
    34   18   44 1
    35   19   20 ar
    36   19   45 1
    37   20   21 1
    38   22   30 1
    39   22   23 2
    40   23   28 ar
    41   23   24 ar
    42   24   25 ar
    43   24   46 1
    44   25   26 ar
    45   25   47 1
    46   26   27 ar
    47   26   48 1
    48   27   28 ar
    49   27   49 1
    50   28   29 2
    51   29   30 1
    52   29   52 1
    53   30   50 1
    54   30   51 1
    55   31   32 3
@<TRIPOS>MOLECULE
ZINC11936577
   50    54     0     0     0
SMALL
USER_CHARGES
N-[[3-(benzofuran-2-yl)-1H-pyrazol-4-yl]methyl]-2-[(3S)-2,3-dihydro-1,4-benzodioxin-3-yl]ethanamine
@<TRIPOS>ATOM
      1 C1         -0.0126    1.0758    0.0080 C.ar      1 <0>        -0.1277
      2 C2          1.1820    1.7815    0.0003 C.ar      1 <0>        -0.0737
      3 C3          1.1855    3.1604    0.0068 C.ar      1 <0>        -0.1138
      4 C4         -0.0175    3.8548    0.0215 C.ar      1 <0>         0.0649
      5 C5         -1.2251    3.1344    0.0297 C.ar      1 <0>        -0.1375
      6 C6         -1.2081    1.7389    0.0172 C.ar      1 <0>        -0.0568
      7 C7         -2.2872    4.1432    0.0450 C.2       1 <0>        -0.1158
      8 C8         -1.6633    5.3451    0.0450 C.2       1 <0>         0.0545
      9 O1         -0.3277    5.1672    0.0311 O.3       1 <0>        -0.2133
     10 C9         -2.3458    6.6566    0.0589 C.2       1 <0>         0.1699
     11 C10        -1.8941    7.8207    0.7147 C.2       1 <0>        -0.3065
     12 C11        -2.7953    8.8000    0.4868 C.2       1 <0>         0.1251
     13 N1         -3.7825    8.2893   -0.2809 N.pl3     1 <0>        -0.4475
     14 H1         -4.5888    8.7840   -0.6053 H         1 <0>         0.4672
     15 N2         -3.4814    6.9469   -0.5440 N.2       1 <0>        -0.2382
     16 C12        -0.6301    7.9490    1.5251 C.3       1 <0>         0.0914
     17 C13         1.7672    8.2562    1.3787 C.3       1 <0>        -0.0036
     18 C14         2.9340    8.4401    0.4063 C.3       1 <0>        -0.1403
     19 C15         4.2385    8.5742    1.1945 C.3       1 <0>         0.0550
     20 H2          4.3631    7.7112    1.8485 H         1 <0>         0.0963
     21 C16         5.4232    8.6638    0.2230 C.3       1 <0>         0.0272
     22 O2          6.6233    8.8016    0.9914 O.3       1 <0>        -0.2999
     23 C17         6.5993    9.7095    2.0053 C.ar      1 <0>         0.0487
     24 C18         7.7952   10.1540    2.5493 C.ar      1 <0>        -0.1102
     25 C19         7.7870   11.0727    3.5817 C.ar      1 <0>        -0.1054
     26 C20         6.5874   11.5514    4.0747 C.ar      1 <0>        -0.1116
     27 C21         5.3923   11.1136    3.5362 C.ar      1 <0>        -0.1102
     28 C22         5.3934   10.1923    2.4994 C.ar      1 <0>         0.0427
     29 O3          4.2086    9.7728    1.9770 O.3       1 <0>        -0.3106
     30 H3          0.0021   -0.0041    0.0020 H         1 <0>         0.1388
     31 H4          2.1193    1.2451   -0.0111 H         1 <0>         0.1435
     32 H5          2.1214    3.6994    0.0008 H         1 <0>         0.1341
     33 H6         -2.1354    1.1852    0.0186 H         1 <0>         0.1360
     34 H7         -3.3522    3.9645    0.0552 H         1 <0>         0.1677
     35 H8         -2.7371    9.8140    0.8540 H         1 <0>         0.1980
     36 H9         -0.7087    8.8115    2.1869 H         1 <0>         0.1408
     37 H10        -0.4866    7.0468    2.1197 H         1 <0>         0.1356
     38 H11         1.7052    9.1209    2.0395 H         1 <0>         0.1412
     39 H12         1.9272    7.3562    1.9723 H         1 <0>         0.1337
     40 H13         2.9960    7.5754   -0.2544 H         1 <0>         0.1109
     41 H14         2.7739    9.3401   -0.1873 H         1 <0>         0.1028
     42 H15         5.4742    7.7566   -0.3791 H         1 <0>         0.1250
     43 H16         5.3012    9.5305   -0.4266 H         1 <0>         0.0814
     44 H17         8.7337    9.7815    2.1661 H         1 <0>         0.1391
     45 H18         8.7194   11.4176    4.0037 H         1 <0>         0.1383
     46 H19         6.5841   12.2685    4.8822 H         1 <0>         0.1373
     47 H20         4.4566   11.4895    3.9228 H         1 <0>         0.1348
     48 N3          0.5140    8.1277    0.6113 N.4       1 <0>        -0.5200
     49 H21         0.3710    8.9766    0.0516 H         1 <0>         0.4297
     50 H22         0.5802    7.3142   -0.0116 H         1 <0>         0.4313
@<TRIPOS>BOND
     1    1    6 ar
     2    1    2 ar
     3    1   30 1
     4    2    3 ar
     5    2   31 1
     6    3    4 ar
     7    3   32 1
     8    4    9 1
     9    4    5 ar
    10    5    6 ar
    11    5    7 1
    12    6   33 1
    13    7    8 2
    14    7   34 1
    15    8    9 1
    16    8   10 1
    17   10   15 2
    18   10   11 1
    19   11   12 2
    20   11   16 1
    21   12   13 1
    22   12   35 1
    23   13   14 1
    24   13   15 1
    25   16   36 1
    26   16   37 1
    27   16   48 1
    28   17   18 1
    29   17   38 1
    30   17   39 1
    31   17   48 1
    32   18   19 1
    33   18   40 1
    34   18   41 1
    35   19   20 1
    36   19   29 1
    37   19   21 1
    38   21   22 1
    39   21   42 1
    40   21   43 1
    41   22   23 1
    42   23   28 ar
    43   23   24 ar
    44   24   25 ar
    45   24   44 1
    46   25   26 ar
    47   25   45 1
    48   26   27 ar
    49   26   46 1
    50   27   28 ar
    51   27   47 1
    52   28   29 1
    53   48   49 1
    54   48   50 1
@<TRIPOS>MOLECULE
ZINC39485745
   51    54     0     0     0
SMALL
USER_CHARGES

@<TRIPOS>ATOM
      1 C1         -0.0167    1.3792    0.0096 C.ar      1 <0>        -0.1030
      2 C2          1.1686    2.0925    0.0021 C.ar      1 <0>        -0.1166
      3 C3          2.3774    1.4271   -0.0129 C.ar      1 <0>        -0.0999
      4 C4          2.4026    0.0331   -0.0206 C.ar      1 <0>        -0.0729
      5 C5          1.2048   -0.6804   -0.0130 C.ar      1 <0>        -0.1021
      6 C6          0.0021   -0.0041    0.0020 C.ar      1 <0>        -0.1190
      7 C7          3.6979   -0.6876   -0.0373 C.ar      1 <0>         0.0067
      8 C8          4.8947    0.0303   -0.0395 C.ar      1 <0>        -0.1135
      9 C9          6.0939   -0.6341   -0.0545 C.ar      1 <0>        -0.0523
     10 C10         6.1172   -2.0337   -0.0675 C.ar      1 <0>        -0.0720
     11 C11         4.9156   -2.7517   -0.0653 C.ar      1 <0>        -0.0881
     12 C12         3.7188   -2.0830   -0.0449 C.ar      1 <0>        -0.1177
     13 C13         7.4018   -2.7484   -0.0841 C.2       1 <0>         0.1682
     14 N1          8.5960   -2.2218   -0.0827 N.2       1 <0>        -0.2908
     15 N2          9.5963   -3.1882   -0.1005 N.2       1 <0>        -0.2612
     16 C14         9.1220   -4.3916   -0.1144 C.2       1 <0>         0.0418
     17 C15         7.6131   -4.2495   -0.0995 C.3       1 <0>        -0.1577
     18 H1          7.1914   -4.7061    0.7959 H         1 <0>         0.1586
     19 C16         7.0032   -4.8669   -1.3596 C.3       1 <0>         0.0183
     20 N3          7.1160   -6.3300   -1.2918 N.4       1 <0>        -0.5049
     21 C17         6.5304   -6.9228   -2.5017 C.3       1 <0>        -0.0356
     22 C18         6.6478   -8.4467   -2.4311 C.3       1 <0>         0.1320
     23 N4          6.0639   -9.0379   -3.6376 N.am      1 <0>        -0.6352
     24 C19         4.6566   -9.4333   -3.7973 C.3       1 <0>         0.0897
     25 C20         4.5894   -9.9874   -5.2337 C.3       1 <0>         0.0866
     26 N5          5.9661   -9.8453   -5.7309 N.am      1 <0>        -0.7319
     27 C21         6.7258   -9.2988   -4.7725 C.2       1 <0>         0.6997
     28 O1          7.9099   -9.0643   -4.9183 O.2       1 <0>        -0.5761
     29 H2         -0.9603    1.9042    0.0260 H         1 <0>         0.1288
     30 H3          1.1478    3.1723    0.0077 H         1 <0>         0.1302
     31 H4          3.3021    1.9850   -0.0191 H         1 <0>         0.1283
     32 H5          1.2182   -1.7603   -0.0193 H         1 <0>         0.1252
     33 H6         -0.9264   -0.5557    0.0082 H         1 <0>         0.1288
     34 H7          4.8762    1.1101   -0.0298 H         1 <0>         0.1403
     35 H8          7.0198   -0.0781   -0.0565 H         1 <0>         0.1421
     36 H9          4.9312   -3.8315   -0.0757 H         1 <0>         0.1217
     37 H10         2.7915   -2.6366   -0.0391 H         1 <0>         0.1375
     38 H11         9.6871   -5.3118   -0.1301 H         1 <0>         0.2112
     39 H12         5.9523   -4.5864   -1.4296 H         1 <0>         0.1497
     40 H13         7.5360   -4.5018   -2.2376 H         1 <0>         0.1447
     41 H14         8.0888   -6.5898   -1.2270 H         1 <0>         0.4327
     42 H15         5.4795   -6.6423   -2.5717 H         1 <0>         0.1377
     43 H16         7.0632   -6.5577   -3.3796 H         1 <0>         0.1395
     44 H17         7.6988   -8.7273   -2.3611 H         1 <0>         0.1089
     45 H18         6.1150   -8.8119   -1.5531 H         1 <0>         0.1064
     46 H19         4.3923  -10.2068   -3.0762 H         1 <0>         0.0925
     47 H20         4.0016   -8.5687   -3.6897 H         1 <0>         0.0871
     48 H21         4.2918  -11.0359   -5.2258 H         1 <0>         0.0932
     49 H22         3.9012   -9.3979   -5.8394 H         1 <0>         0.0917
     50 H23         6.2741  -10.1026   -6.6139 H         1 <0>         0.4388
     51 H24         6.6227   -6.6681   -0.4791 H         1 <0>         0.4316
@<TRIPOS>BOND
     1    1    6 ar
     2    1    2 ar
     3    1   29 1
     4    2    3 ar
     5    2   30 1
     6    3    4 ar
     7    3   31 1
     8    4    5 ar
     9    4    7 1
    10    5    6 ar
    11    5   32 1
    12    6   33 1
    13    7   12 ar
    14    7    8 ar
    15    8    9 ar
    16    8   34 1
    17    9   10 ar
    18    9   35 1
    19   10   11 ar
    20   10   13 1
    21   11   12 ar
    22   11   36 1
    23   12   37 1
    24   13   17 1
    25   13   14 2
    26   14   15 1
    27   15   16 2
    28   16   17 1
    29   16   38 1
    30   17   18 1
    31   17   19 1
    32   19   20 1
    33   19   39 1
    34   19   40 1
    35   20   21 1
    36   20   41 1
    37   20   51 1
    38   21   22 1
    39   21   42 1
    40   21   43 1
    41   22   23 1
    42   22   44 1
    43   22   45 1
    44   23   27 am
    45   23   24 1
    46   24   25 1
    47   24   46 1
    48   24   47 1
    49   25   26 1
    50   25   48 1
    51   25   49 1
    52   26   27 am
    53   26   50 1
    54   27   28 2
@<TRIPOS>MOLECULE
ZINC56681239
   56    58     0     0     0
SMALL
USER_CHARGES

@<TRIPOS>ATOM
      1 C1          0.0035    1.5438    0.0126 C.3       1 <0>        -0.1863
      2 C2          0.0138    0.0138    0.0006 C.3       1 <0>         0.0282
      3 H1         -1.0115   -0.3560    0.0054 H         1 <0>         0.1370
      4 C3          0.7280   -0.4810   -1.2590 C.3       1 <0>        -0.1408
      5 C4          0.7356   -2.0123   -1.2666 C.3       1 <0>        -0.1393
      6 C5          1.4044   -2.5161    0.0156 C.3       1 <0>        -0.1458
      7 C6          0.6652   -1.9459    1.2279 C.3       1 <0>        -0.0144
      8 N1          0.7168   -0.4794    1.1910 N.4       1 <0>        -0.3761
      9 C7          0.0746    0.0616    2.3964 C.3       1 <0>        -0.0289
     10 C8          0.8792   -0.3494    3.6311 C.3       1 <0>         0.1165
     11 N2          0.2388    0.1901    4.8332 N.am      1 <0>        -0.7437
     12 C9          0.7756   -0.0462    6.0466 C.2       1 <0>         0.7087
     13 O1          1.7915   -0.7073    6.1436 O.2       1 <0>        -0.5589
     14 N3          0.1865    0.4501    7.1524 N.am      1 <0>        -0.6780
     15 C10         0.6875    0.1251    8.4180 C.ar      1 <0>         0.1591
     16 C11        -0.1813   -0.0418    9.4885 C.ar      1 <0>        -0.1442
     17 C12         0.3163   -0.3631   10.7362 C.ar      1 <0>        -0.0824
     18 C13         1.6780   -0.5185   10.9201 C.ar      1 <0>        -0.1237
     19 C14         2.5457   -0.3525    9.8563 C.ar      1 <0>        -0.0696
     20 C15         2.0540   -0.0368    8.6049 C.ar      1 <0>        -0.1190
     21 C16         2.2175   -0.8690   12.2829 C.3       1 <0>         0.1309
     22 N4          2.2797   -2.3259   12.4235 N.am      1 <0>        -0.4923
     23 C17         1.2084   -2.9989   12.9161 C.2       1 <0>         0.1311
     24 C18         1.2422   -4.3447   13.0557 C.2       1 <0>        -0.2301
     25 C19         2.3924   -5.0576   12.6893 C.2       1 <0>        -0.0168
     26 C20         3.4676   -4.3798   12.1942 C.2       1 <0>        -0.2435
     27 C21         3.3967   -2.9829   12.0577 C.2       1 <0>         0.5136
     28 O2          4.3499   -2.3644   11.6118 O.2       1 <0>        -0.5499
     29 H2          1.0287    1.9141    0.0078 H         1 <0>         0.0826
     30 H3         -0.5194    1.9105   -0.8707 H         1 <0>         0.1076
     31 H4         -0.5061    1.8967    0.9091 H         1 <0>         0.0817
     32 H5          0.2040   -0.1151   -2.1420 H         1 <0>         0.1130
     33 H6          1.7536   -0.1119   -1.2646 H         1 <0>         0.0892
     34 H7         -0.2889   -2.3817   -1.3127 H         1 <0>         0.0821
     35 H8          1.2924   -2.3697   -2.1328 H         1 <0>         0.0960
     36 H9          1.3639   -3.6050    0.0436 H         1 <0>         0.1141
     37 H10         2.4441   -2.1893    0.0364 H         1 <0>         0.0892
     38 H11        -0.3742   -2.2735    1.2063 H         1 <0>         0.1306
     39 H12         1.1387   -2.3028    2.1426 H         1 <0>         0.1338
     40 H13         0.0384    1.1491    2.3318 H         1 <0>         0.1420
     41 H14        -0.9389   -0.3316    2.4757 H         1 <0>         0.1373
     42 H15         0.9154   -1.4369    3.6957 H         1 <0>         0.0904
     43 H16         1.8927    0.0438    3.5518 H         1 <0>         0.0904
     44 H17        -0.5717    0.7175    4.7558 H         1 <0>         0.4047
     45 H18        -0.5849    1.0326    7.0711 H         1 <0>         0.4101
     46 H19        -1.2448    0.0798    9.3455 H         1 <0>         0.1287
     47 H20        -0.3588   -0.4927   11.5691 H         1 <0>         0.1300
     48 H21         3.6088   -0.4742   10.0032 H         1 <0>         0.1371
     49 H22         2.7318    0.0880    7.7734 H         1 <0>         0.1408
     50 H23         3.2173   -0.4500   12.3966 H         1 <0>         0.1112
     51 H24         1.5617   -0.4575   13.0501 H         1 <0>         0.1024
     52 H25         0.3198   -2.4545   13.1999 H         1 <0>         0.1603
     53 H26         0.3840   -4.8689   13.4494 H         1 <0>         0.1460
     54 H27         2.4269   -6.1316   12.7981 H         1 <0>         0.1357
     55 H28         4.3625   -4.9115   11.9064 H         1 <0>         0.1483
     56 H29         1.6792   -0.1780    1.1611 H         1 <0>         0.4235
@<TRIPOS>BOND
     1    1    2 1
     2    1   29 1
     3    1   30 1
     4    1   31 1
     5    2    3 1
     6    2    8 1
     7    2    4 1
     8    4    5 1
     9    4   32 1
    10    4   33 1
    11    5    6 1
    12    5   34 1
    13    5   35 1
    14    6    7 1
    15    6   36 1
    16    6   37 1
    17    7    8 1
    18    7   38 1
    19    7   39 1
    20    8    9 1
    21    8   56 1
    22    9   10 1
    23    9   40 1
    24    9   41 1
    25   10   11 1
    26   10   42 1
    27   10   43 1
    28   11   12 am
    29   11   44 1
    30   12   13 2
    31   12   14 am
    32   14   15 1
    33   14   45 1
    34   15   20 ar
    35   15   16 ar
    36   16   17 ar
    37   16   46 1
    38   17   18 ar
    39   17   47 1
    40   18   19 ar
    41   18   21 1
    42   19   20 ar
    43   19   48 1
    44   20   49 1
    45   21   22 1
    46   21   50 1
    47   21   51 1
    48   22   27 am
    49   22   23 1
    50   23   24 2
    51   23   52 1
    52   24   25 1
    53   24   53 1
    54   25   26 2
    55   25   54 1
    56   26   27 1
    57   26   55 1
    58   27   28 2
@<TRIPOS>MOLECULE
ZINC66178176
   57    58     0     0     0
SMALL
USER_CHARGES

@<TRIPOS>ATOM
      1 C1         -0.9132   -2.3824   -0.7253 C.3       1 <0>        -0.1755
      2 C2          0.5415   -1.9936   -0.9965 C.3       1 <0>        -0.1493
      3 C3          0.6181   -0.5007   -1.3225 C.3       1 <0>         0.0248
      4 H1          0.1875    0.0730   -0.5018 H         1 <0>         0.1388
      5 C4          2.0807   -0.0953   -1.5159 C.3       1 <0>        -0.1858
      6 N1         -0.1323   -0.2298   -2.5560 N.4       1 <0>        -0.3798
      7 C5          0.5279   -0.8953   -3.6870 C.3       1 <0>        -0.0663
      8 C6         -0.1729    1.2189   -2.7962 C.3       1 <0>        -0.0254
      9 C7         -1.0449    1.5087   -4.0195 C.3       1 <0>         0.1171
     10 N2         -1.0854    2.9535   -4.2591 N.am      1 <0>        -0.7485
     11 C8         -1.7983    3.4456   -5.2917 C.2       1 <0>         0.7108
     12 O1         -2.4077    2.6905   -6.0243 O.2       1 <0>        -0.5772
     13 N3         -1.8355    4.7747   -5.5120 N.am      1 <0>        -0.7319
     14 C9         -2.6104    5.3096   -6.6344 C.3       1 <0>         0.2054
     15 H2         -2.5591    4.6167   -7.4743 H         1 <0>         0.1024
     16 C10        -4.0690    5.4875   -6.2083 C.3       1 <0>        -0.1609
     17 C11        -2.0415    6.6426   -7.0475 C.ar      1 <0>        -0.0922
     18 C12        -1.6106    7.5360   -6.0844 C.ar      1 <0>        -0.1076
     19 C13        -1.0869    8.7614   -6.4560 C.ar      1 <0>        -0.1112
     20 C14        -0.9953    9.0901   -7.7979 C.ar      1 <0>         0.0731
     21 C15        -1.4276    8.1934   -8.7645 C.ar      1 <0>         0.0748
     22 C16        -1.9470    6.9660   -8.3893 C.ar      1 <0>        -0.1023
     23 O2         -1.3320    8.5267  -10.0844 O.3       1 <0>        -0.3187
     24 C17        -2.1910    9.5796  -10.5267 C.3       1 <0>         0.0602
     25 C18        -1.5642   10.9378  -10.2534 C.3       1 <0>        -0.1903
     26 C19        -1.4038   11.2126   -8.7664 C.3       1 <0>         0.0603
     27 O3         -0.4795   10.2950   -8.1783 O.3       1 <0>        -0.3196
     28 H3         -1.2974   -1.7937    0.1077 H         1 <0>         0.0726
     29 H4         -1.5130   -2.1883   -1.6145 H         1 <0>         0.0508
     30 H5         -0.9656   -3.4422   -0.4759 H         1 <0>         0.0852
     31 H6          1.1446   -2.2040   -0.1132 H         1 <0>         0.1129
     32 H7          0.9203   -2.5698   -1.8407 H         1 <0>         0.0897
     33 H8          2.1353    0.9682   -1.7482 H         1 <0>         0.0807
     34 H9          2.6375   -0.2964   -0.6006 H         1 <0>         0.1065
     35 H10         2.5113   -0.6690   -2.3366 H         1 <0>         0.0850
     36 H11         1.5444   -0.5153   -3.7892 H         1 <0>         0.1290
     37 H12         0.5581   -1.9702   -3.5088 H         1 <0>         0.1290
     38 H13        -0.0289   -0.6943   -4.6022 H         1 <0>         0.1285
     39 H14        -0.5924    1.7202   -1.9240 H         1 <0>         0.1374
     40 H15         0.8377    1.5860   -2.9752 H         1 <0>         0.1384
     41 H16        -0.6254    1.0074   -4.8918 H         1 <0>         0.0896
     42 H17        -2.0555    1.1416   -3.8406 H         1 <0>         0.0879
     43 H18        -0.5993    3.5558   -3.6746 H         1 <0>         0.4030
     44 H19        -1.3493    5.3771   -4.9275 H         1 <0>         0.3987
     45 H20        -4.6455    5.8855   -7.0434 H         1 <0>         0.0736
     46 H21        -4.4805    4.5234   -5.9096 H         1 <0>         0.0667
     47 H22        -4.1203    6.1804   -5.3685 H         1 <0>         0.0612
     48 H23        -1.6832    7.2766   -5.0386 H         1 <0>         0.1278
     49 H24        -0.7514    9.4588   -5.7027 H         1 <0>         0.1389
     50 H25        -2.2804    6.2655   -9.1407 H         1 <0>         0.1392
     51 H26        -2.3658    9.4741  -11.5974 H         1 <0>         0.1088
     52 H27        -3.1429    9.5113  -10.0001 H         1 <0>         0.0590
     53 H28        -0.5834   10.9759  -10.7273 H         1 <0>         0.0865
     54 H29        -2.1953   11.7122  -10.6895 H         1 <0>         0.0953
     55 H30        -1.0374   12.2297   -8.6270 H         1 <0>         0.1085
     56 H31        -2.3719   11.1104   -8.2762 H         1 <0>         0.0588
     57 H32        -1.0732   -0.5815   -2.4614 H         1 <0>         0.4255
@<TRIPOS>BOND
     1    1    2 1
     2    1   28 1
     3    1   29 1
     4    1   30 1
     5    2    3 1
     6    2   31 1
     7    2   32 1
     8    3    4 1
     9    3    5 1
    10    3    6 1
    11    5   33 1
    12    5   34 1
    13    5   35 1
    14    6    7 1
    15    6    8 1
    16    6   57 1
    17    7   36 1
    18    7   37 1
    19    7   38 1
    20    8    9 1
    21    8   39 1
    22    8   40 1
    23    9   10 1
    24    9   41 1
    25    9   42 1
    26   10   11 am
    27   10   43 1
    28   11   12 2
    29   11   13 am
    30   13   14 1
    31   13   44 1
    32   14   15 1
    33   14   16 1
    34   14   17 1
    35   16   45 1
    36   16   46 1
    37   16   47 1
    38   17   22 ar
    39   17   18 ar
    40   18   19 ar
    41   18   48 1
    42   19   20 ar
    43   19   49 1
    44   20   27 1
    45   20   21 ar
    46   21   22 ar
    47   21   23 1
    48   22   50 1
    49   23   24 1
    50   24   25 1
    51   24   51 1
    52   24   52 1
    53   25   26 1
    54   25   53 1
    55   25   54 1
    56   26   27 1
    57   26   55 1
    58   26   56 1
@<TRIPOS>MOLECULE
ZINC67629676
   37    38     0     0     0
SMALL
USER_CHARGES

@<TRIPOS>ATOM
      1 C1         -0.0127    1.0858    0.0080 C.3       1 <0>        -0.1129
      2 C2         -0.7416    1.5850   -1.2129 C.ar      1 <0>         0.1216
      3 C3         -2.1121    1.7974   -1.1641 C.ar      1 <0>        -0.0029
      4 C4         -2.7414    2.2570   -2.3103 C.ar      1 <0>        -0.1414
      5 C5         -1.9570    2.4773   -3.4419 C.ar      1 <0>         0.4246
      6 N1         -0.6533    2.2454   -3.3919 N.ar      1 <0>        -0.3402
      7 N2         -0.0763    1.8250   -2.3253 N.ar      1 <0>        -0.2011
      8 N3         -2.5402    2.9378   -4.6172 N.pl3     1 <0>        -0.6822
      9 C6         -3.9819    3.1925   -4.6687 C.3       1 <0>         0.0926
     10 C7         -4.3627    3.6879   -6.0653 C.3       1 <0>         0.0921
     11 N4         -5.8045    3.9427   -6.1168 N.pl3     1 <0>        -1.1089
     12 S1         -6.4450    4.8275   -7.3615 S.o2      1 <0>         2.6963
     13 O1         -7.8487    4.8752   -7.1456 O.2       1 <0>        -0.9327
     14 O2         -5.6516    6.0008   -7.4761 O.2       1 <0>        -0.9255
     15 C8         -6.1942    3.9034   -8.8406 C.ar      1 <0>        -0.6636
     16 C9         -7.2801    3.4206   -9.5464 C.ar      1 <0>         0.0018
     17 C10        -7.0832    2.6951  -10.7076 C.ar      1 <0>        -0.0487
     18 C11        -5.7990    2.4527  -11.1626 C.ar      1 <0>        -0.0390
     19 C12        -4.7134    2.9353  -10.4571 C.ar      1 <0>        -0.1095
     20 C13        -4.9106    3.6660   -9.2985 C.ar      1 <0>         0.0448
     21 Cl1        -3.5470    4.2785   -8.4160 Cl        1 <0>        -0.0448
     22 Cl2        -8.4470    2.0882  -11.5937 Cl        1 <0>        -0.0316
     23 H1          0.0021   -0.0041    0.0020 H         1 <0>         0.1091
     24 H2          1.0099    1.4631    0.0003 H         1 <0>         0.1010
     25 H3         -0.5229    1.4373    0.9048 H         1 <0>         0.1070
     26 H4         -2.6719    1.6098   -0.2598 H         1 <0>         0.1953
     27 H5         -3.8060    2.4384   -2.3266 H         1 <0>         0.1955
     28 H6         -1.9923    3.0903   -5.4031 H         1 <0>         0.4260
     29 H7         -4.5217    2.2711   -4.4504 H         1 <0>         0.1045
     30 H8         -4.2435    3.9506   -3.9305 H         1 <0>         0.1061
     31 H9         -3.8229    4.6093   -6.2837 H         1 <0>         0.1004
     32 H10        -4.1011    2.9299   -6.8036 H         1 <0>         0.0888
     33 H11        -6.3839    3.5931   -5.4219 H         1 <0>         0.4271
     34 H12        -8.2823    3.6095   -9.1911 H         1 <0>         0.1677
     35 H13        -5.6453    1.8859  -12.0690 H         1 <0>         0.1584
     36 H14        -3.7112    2.7458  -10.8120 H         1 <0>         0.1571
     37 H15        -0.1175    2.4022   -4.1852 H         1 <0>         0.4673
@<TRIPOS>BOND
     1    1   23 1
     2    1   24 1
     3    1   25 1
     4    1    2 1
     5    2    3 ar
     6    2    7 ar
     7    3    4 ar
     8    3   26 1
     9    4    5 ar
    10    4   27 1
    11    5    8 1
    12    5    6 ar
    13    6    7 ar
    14    6   37 1
    15    8    9 1
    16    8   28 1
    17    9   10 1
    18    9   29 1
    19    9   30 1
    20   10   11 1
    21   10   31 1
    22   10   32 1
    23   11   12 1
    24   11   33 1
    25   12   13 2
    26   12   14 2
    27   12   15 1
    28   15   20 ar
    29   15   16 ar
    30   16   17 ar
    31   16   34 1
    32   17   18 ar
    33   17   22 1
    34   18   19 ar
    35   18   35 1
    36   19   20 ar
    37   19   36 1
    38   20   21 1
@<TRIPOS>MOLECULE
ZINC12135368
   67    70     0     0     0
SMALL
USER_CHARGES
N-(2-phenylbutyl)-2-[[4-phenyl-5-(1-piperidylmethyl)-1,2,4-triazol-3-yl]sulfanyl]acetamide
@<TRIPOS>ATOM
      1 C1          0.2657    1.1283    2.3700 C.3       1 <0>        -0.1533
      2 C2         -0.7909    1.6014    1.3697 C.3       1 <0>        -0.1172
      3 C3         -0.8298    3.1308    1.3540 C.3       1 <0>        -0.0586
      4 H1          0.1691    3.5176    1.1521 H         1 <0>         0.0871
      5 C4         -1.7908    3.6054    0.2622 C.3       1 <0>         0.1263
      6 N1         -1.2602    3.2322   -1.0514 N.am      1 <0>        -0.7166
      7 C5         -1.9778    3.4833   -2.1642 C.2       1 <0>         0.5325
      8 O1         -3.0629    4.0182   -2.0782 O.2       1 <0>        -0.5217
      9 C6         -1.4320    3.0994   -3.5154 C.3       1 <0>        -0.1591
     10 S1         -2.6195    3.5637   -4.8000 S.3       1 <0>         0.1251
     11 C7         -1.7511    3.0160   -6.2319 C.2       1 <0>         0.1823
     12 N2         -0.5689    2.4456   -6.2577 N.2       1 <0>        -0.2808
     13 N3         -0.2405    2.1732   -7.4700 N.2       1 <0>        -0.2226
     14 C8         -1.1801    2.5581   -8.2868 C.2       1 <0>         0.1007
     15 N4         -2.1783    3.1098   -7.5281 N.pl3     1 <0>        -0.4042
     16 C9         -3.3859    3.6573   -7.9850 C.ar      1 <0>         0.0707
     17 C10        -4.3244    2.8474   -8.6096 C.ar      1 <0>        -0.1035
     18 C11        -5.5150    3.3886   -9.0543 C.ar      1 <0>        -0.0977
     19 C12        -5.7678    4.7377   -8.8872 C.ar      1 <0>        -0.0866
     20 C13        -4.8326    5.5479   -8.2701 C.ar      1 <0>        -0.0957
     21 C14        -3.6425    5.0114   -7.8187 C.ar      1 <0>        -0.1037
     22 C15        -1.1701    2.4220   -9.7876 C.3       1 <0>         0.1026
     23 C16        -1.3927    4.8065  -10.1409 C.3       1 <0>        -0.0101
     24 C17        -0.6626    6.0529  -10.6464 C.3       1 <0>        -0.1437
     25 C18        -0.3813    5.9015  -12.1439 C.3       1 <0>        -0.1377
     26 C19         0.4430    4.6320  -12.3746 C.3       1 <0>        -0.1468
     27 C20        -0.3192    3.4268  -11.8190 C.3       1 <0>        -0.0020
     28 C21        -1.3025    3.6350    2.6932 C.ar      1 <0>        -0.0783
     29 C22        -2.5525    3.2787    3.1639 C.ar      1 <0>        -0.1134
     30 C23        -2.9843    3.7376    4.3943 C.ar      1 <0>        -0.1161
     31 C24        -2.1701    4.5607    5.1496 C.ar      1 <0>        -0.1183
     32 C25        -0.9221    4.9209    4.6767 C.ar      1 <0>        -0.1168
     33 C26        -0.4885    4.4585    3.4483 C.ar      1 <0>        -0.1127
     34 H2          0.3614    0.0440    2.3118 H         1 <0>         0.0564
     35 H3         -0.0352    1.4129    3.3782 H         1 <0>         0.0586
     36 H4          1.2237    1.5908    2.1325 H         1 <0>         0.0547
     37 H5         -0.5395    1.2341    0.3747 H         1 <0>         0.0637
     38 H6         -1.7674    1.2161    1.6632 H         1 <0>         0.0686
     39 H7         -2.7647    3.1377    0.4069 H         1 <0>         0.0779
     40 H8         -1.8964    4.6889    0.3169 H         1 <0>         0.0751
     41 H9         -0.3923    2.8044   -1.1202 H         1 <0>         0.4059
     42 H10        -0.4892    3.6187   -3.6873 H         1 <0>         0.1319
     43 H11        -1.2648    2.0228   -3.5472 H         1 <0>         0.1324
     44 H12        -4.1256    1.7945   -8.7444 H         1 <0>         0.1344
     45 H13        -6.2473    2.7581   -9.5366 H         1 <0>         0.1439
     46 H14        -6.6978    5.1593   -9.2390 H         1 <0>         0.1423
     47 H15        -5.0326    6.6014   -8.1413 H         1 <0>         0.1448
     48 H16        -2.9126    5.6446   -7.3364 H         1 <0>         0.1362
     49 H17        -0.5908    1.5426  -10.0688 H         1 <0>         0.1655
     50 H18        -2.1926    2.3144  -10.1494 H         1 <0>         0.1464
     51 H19        -2.3404    4.7015  -10.6691 H         1 <0>         0.1321
     52 H20        -1.5818    4.9049   -9.0720 H         1 <0>         0.1170
     53 H21         0.2788    6.1662  -10.1089 H         1 <0>         0.0875
     54 H22        -1.2853    6.9319  -10.4801 H         1 <0>         0.1124
     55 H23         0.1769    6.7678  -12.4990 H         1 <0>         0.0960
     56 H24        -1.3241    5.8273  -12.6859 H         1 <0>         0.0827
     57 H25         1.4019    4.7229  -11.8643 H         1 <0>         0.0893
     58 H26         0.6102    4.4958  -13.4430 H         1 <0>         0.1157
     59 H27         0.2715    2.5230  -11.9689 H         1 <0>         0.1343
     60 H28        -1.2719    3.3283  -12.3393 H         1 <0>         0.1329
     61 H29        -3.1902    2.6389    2.5720 H         1 <0>         0.1206
     62 H30        -3.9592    3.4559    4.7639 H         1 <0>         0.1235
     63 H31        -2.5089    4.9220    6.1093 H         1 <0>         0.1232
     64 H32        -0.2860    5.5640    5.2668 H         1 <0>         0.1236
     65 H33         0.4864    4.7402    3.0787 H         1 <0>         0.1210
     66 N5         -0.5367    3.6230  -10.3700 N.4       1 <0>        -0.3932
     67 H34         0.3709    3.7753   -9.9147 H         1 <0>         0.4326
@<TRIPOS>BOND
     1    1    2 1
     2    1   34 1
     3    1   35 1
     4    1   36 1
     5    2    3 1
     6    2   37 1
     7    2   38 1
     8    3    4 1
     9    3    5 1
    10    3   28 1
    11    5    6 1
    12    5   39 1
    13    5   40 1
    14    6    7 am
    15    6   41 1
    16    7    8 2
    17    7    9 1
    18    9   10 1
    19    9   42 1
    20    9   43 1
    21   10   11 1
    22   11   15 1
    23   11   12 2
    24   12   13 1
    25   13   14 2
    26   14   15 1
    27   14   22 1
    28   15   16 1
    29   16   21 ar
    30   16   17 ar
    31   17   18 ar
    32   17   44 1
    33   18   19 ar
    34   18   45 1
    35   19   20 ar
    36   19   46 1
    37   20   21 ar
    38   20   47 1
    39   21   48 1
    40   22   49 1
    41   22   50 1
    42   22   66 1
    43   23   24 1
    44   23   51 1
    45   23   52 1
    46   23   66 1
    47   24   25 1
    48   24   53 1
    49   24   54 1
    50   25   26 1
    51   25   55 1
    52   25   56 1
    53   26   27 1
    54   26   57 1
    55   26   58 1
    56   27   59 1
    57   27   60 1
    58   27   66 1
    59   28   33 ar
    60   28   29 ar
    61   29   30 ar
    62   29   61 1
    63   30   31 ar
    64   30   62 1
    65   31   32 ar
    66   31   63 1
    67   32   33 ar
    68   32   64 1
    69   33   65 1
    70   66   67 1
@<TRIPOS>MOLECULE
ZINC22338269
   61    62     0     0     0
SMALL
USER_CHARGES
2-[[4-chloro-3-(trifluoromethyl)phenyl]-methylsulfonyl-amino]-N-[3-[(2R)-2-ethyl-1-piperidyl]propyl]acetamide
@<TRIPOS>ATOM
      1 C1         -0.1724    5.6534   -0.2530 C.3       1 <0>        -0.1793
      2 C2         -1.5862    5.0839   -0.1207 C.3       1 <0>        -0.1514
      3 C3         -1.5170    3.5568   -0.0565 C.3       1 <0>         0.0369
      4 H1         -2.5277    3.1228   -0.0706 H         1 <0>         0.1317
      5 C4         -0.7681    3.1333    1.2092 C.3       1 <0>        -0.1429
      6 C5         -0.6827    1.6053    1.2595 C.3       1 <0>        -0.1406
      7 C6          0.0148    1.0990   -0.0061 C.3       1 <0>        -0.1464
      8 C7         -0.7568    1.5815   -1.2365 C.3       1 <0>        -0.0072
      9 N1         -0.8091    3.0490   -1.2386 N.4       1 <0>        -0.3982
     10 C8         -1.4215    3.5522   -2.4755 C.3       1 <0>        -0.0146
     11 C9         -0.4634    3.3274   -3.6470 C.3       1 <0>        -0.1593
     12 C10        -1.1013    3.8515   -4.9352 C.3       1 <0>         0.1254
     13 N2         -0.1839    3.6363   -6.0570 N.am      1 <0>        -0.7450
     14 C11        -0.5365    4.0220   -7.2993 C.2       1 <0>         0.4978
     15 O1         -1.6131    4.5472   -7.4886 O.2       1 <0>        -0.5094
     16 C12         0.4072    3.8007   -8.4532 C.3       1 <0>         0.0909
     17 N3         -0.2035    4.3025   -9.6867 N.pl3     1 <0>        -0.9217
     18 C13        -1.0739    3.4886  -10.4167 C.ar      1 <0>         0.1819
     19 C14        -1.7673    2.4659   -9.7818 C.ar      1 <0>        -0.0944
     20 C15        -2.6267    1.6632  -10.5056 C.ar      1 <0>        -0.0766
     21 C16        -2.7976    1.8768  -11.8624 C.ar      1 <0>        -0.0145
     22 C17        -2.1079    2.8944  -12.4973 C.ar      1 <0>        -0.1351
     23 C18        -1.2516    3.7044  -11.7770 C.ar      1 <0>        -0.1036
     24 C19        -2.2962    3.1236  -13.9749 C.3       1 <0>         0.5094
     25 F1         -1.5005    4.1987  -14.3851 F         1 <0>        -0.1720
     26 F2         -1.9227    1.9725  -14.6767 F         1 <0>        -0.1655
     27 F3         -3.6402    3.4125  -14.2344 F         1 <0>        -0.1633
     28 Cl1        -3.8788    0.8658  -12.7692 Cl        1 <0>        -0.0325
     29 S1          0.1375    5.8341  -10.2159 S.o2      1 <0>         2.5901
     30 O2         -1.0330    6.2479  -10.9072 O.2       1 <0>        -0.9234
     31 O3          0.5780    6.5285   -9.0570 O.2       1 <0>        -0.9365
     32 C20         1.5121    5.6292  -11.3817 C.3       1 <0>        -0.6758
     33 H2         -0.2222    6.7513   -0.2992 H         1 <0>         0.0872
     34 H3          0.2934    5.2685   -1.1722 H         1 <0>         0.0493
     35 H4          0.4281    5.3498    0.6172 H         1 <0>         0.0760
     36 H5         -2.0520    5.4688    0.7985 H         1 <0>         0.1129
     37 H6         -2.1867    5.3875   -0.9909 H         1 <0>         0.0903
     38 H7          0.2463    3.5585    1.1946 H         1 <0>         0.0912
     39 H8         -1.3071    3.5013    2.0947 H         1 <0>         0.1124
     40 H9         -0.1077    1.2992    2.1459 H         1 <0>         0.0954
     41 H10        -1.6968    1.1830    1.3165 H         1 <0>         0.0815
     42 H11         1.0426    1.4896   -0.0395 H         1 <0>         0.0875
     43 H12         0.0406   -0.0006    0.0044 H         1 <0>         0.1127
     44 H13        -0.2495    1.2318   -2.1478 H         1 <0>         0.1301
     45 H14        -1.7800    1.1786   -1.2089 H         1 <0>         0.1264
     46 H15        -2.3629    3.0151   -2.6634 H         1 <0>         0.1323
     47 H16        -1.6275    4.6277   -2.3715 H         1 <0>         0.1397
     48 H17         0.4780    3.8645   -3.4590 H         1 <0>         0.0952
     49 H18        -0.2574    2.2519   -3.7510 H         1 <0>         0.0945
     50 H19        -2.0427    3.3143   -5.1231 H         1 <0>         0.0776
     51 H20        -1.3074    4.9270   -4.8311 H         1 <0>         0.0784
     52 H21         0.7926    3.1599   -5.8853 H         1 <0>         0.4259
     53 H22         1.3485    4.3379   -8.2652 H         1 <0>         0.1310
     54 H23         0.6133    2.7252   -8.5573 H         1 <0>         0.1264
     55 H24        -1.6341    2.2985   -8.7232 H         1 <0>         0.1390
     56 H25        -3.1663    0.8682  -10.0125 H         1 <0>         0.1528
     57 H26        -0.7174    4.5018  -12.2721 H         1 <0>         0.1469
     58 H27         1.8020    6.6115  -11.7831 H         1 <0>         0.1445
     59 H28         1.1979    4.9739  -12.2074 H         1 <0>         0.1362
     60 H29         2.3699    5.1780  -10.8615 H         1 <0>         0.1373
     61 H30         0.2251    3.4213   -1.1956 H         1 <0>         0.4341
@<TRIPOS>BOND
     1    1    2 1
     2    1   33 1
     3    1   34 1
     4    1   35 1
     5    2    3 1
     6    2   36 1
     7    2   37 1
     8    3    4 1
     9    3    9 1
    10    3    5 1
    11    5    6 1
    12    5   38 1
    13    5   39 1
    14    6    7 1
    15    6   40 1
    16    6   41 1
    17    7    8 1
    18    7   42 1
    19    7   43 1
    20    8    9 1
    21    8   44 1
    22    8   45 1
    23    9   10 1
    24    9   61 1
    25   10   11 1
    26   10   46 1
    27   10   47 1
    28   11   12 1
    29   11   48 1
    30   11   49 1
    31   12   13 1
    32   12   50 1
    33   12   51 1
    34   13   14 am
    35   13   52 1
    36   14   15 2
    37   14   16 1
    38   16   17 1
    39   16   53 1
    40   16   54 1
    41   17   18 1
    42   17   29 1
    43   18   23 ar
    44   18   19 ar
    45   19   20 ar
    46   19   55 1
    47   20   21 ar
    48   20   56 1
    49   21   22 ar
    50   21   28 1
    51   22   23 ar
    52   22   24 1
    53   23   57 1
    54   24   25 1
    55   24   26 1
    56   24   27 1
    57   29   30 2
    58   29   31 2
    59   29   32 1
    60   32   58 1
    61   32   59 1
    62   32   60 1
@<TRIPOS>MOLECULE
ZINC35991736
   60    62     0     0     0
SMALL
USER_CHARGES

@<TRIPOS>ATOM
      1 C1          1.4338    1.3567   -0.2593 C.3       1 <0>        -0.1576
      2 C2          1.2160   -0.1575   -0.2379 C.3       1 <0>         0.0638
      3 O1          1.6750   -0.6873    1.0074 O.3       1 <0>        -0.3161
      4 C3          1.6470   -2.0288    1.1500 C.2       1 <0>         0.5425
      5 O2          1.3337   -2.7343    0.2093 O.2       1 <0>        -0.5440
      6 C4          1.9819   -2.6151    2.3930 C.2       1 <0>        -0.2257
      7 C5          1.8413   -3.9422    2.5995 C.2       1 <0>         0.2016
      8 N1          2.1655   -4.5070    3.7998 N.am      1 <0>        -0.5368
      9 C6          2.6361   -3.8133    4.8439 C.2       1 <0>         0.7032
     10 O3          2.8970   -4.4048    5.8733 O.2       1 <0>        -0.5287
     11 N2          2.8304   -2.4807    4.7906 N.am      1 <0>        -0.7014
     12 C7          2.5166   -1.7763    3.5360 C.3       1 <0>         0.2175
     13 H1          3.4221   -1.2769    3.1914 H         1 <0>         0.1046
     14 C8          1.4959   -0.7127    3.8489 C.ar      1 <0>        -0.0683
     15 C9          0.2224   -1.0730    4.2489 C.ar      1 <0>        -0.0992
     16 C10        -0.7137   -0.0976    4.5358 C.ar      1 <0>        -0.0843
     17 C11        -0.3766    1.2386    4.4233 C.ar      1 <0>        -0.1021
     18 C12         0.8967    1.5988    4.0243 C.ar      1 <0>        -0.0686
     19 C13         1.8344    0.6230    3.7414 C.ar      1 <0>        -0.1505
     20 C14         3.2244    1.0158    3.3115 C.3       1 <0>         0.5024
     21 F1          3.3537    2.4077    3.3666 F         1 <0>        -0.1701
     22 F2          4.1612    0.4262    4.1670 F         1 <0>        -0.1782
     23 F3          3.4485    0.5781    2.0017 F         1 <0>        -0.1649
     24 C15         1.9878   -5.9530    3.9540 C.3       1 <0>         0.0490
     25 C16         1.3178   -4.8141    1.4874 C.3       1 <0>         0.0115
     26 N3          2.4202   -5.1706    0.5843 N.4       1 <0>        -0.3719
     27 C17         3.3951   -5.9999    1.3054 C.3       1 <0>        -0.0679
     28 C18         1.8910   -5.9219   -0.5618 C.3       1 <0>         0.0482
     29 C19         3.0005   -6.1812   -1.5480 C.ar      1 <0>        -0.1616
     30 C20         3.2586   -5.2687   -2.5537 C.ar      1 <0>        -0.0890
     31 C21         4.2764   -5.5066   -3.4584 C.ar      1 <0>        -0.1140
     32 C22         5.0364   -6.6568   -3.3570 C.ar      1 <0>        -0.0831
     33 C23         4.7788   -7.5689   -2.3508 C.ar      1 <0>        -0.1151
     34 C24         3.7639   -7.3290   -1.4435 C.ar      1 <0>        -0.0971
     35 H2          2.4818    1.5760   -0.0552 H         1 <0>         0.0721
     36 H3          1.1649    1.7487   -1.2402 H         1 <0>         0.0861
     37 H4          0.8097    1.8244    0.5023 H         1 <0>         0.0675
     38 H5          0.1540   -0.3735   -0.3553 H         1 <0>         0.0738
     39 H6          1.7726   -0.6162   -1.0552 H         1 <0>         0.0742
     40 H7          3.1721   -1.9976    5.5592 H         1 <0>         0.4432
     41 H8         -0.0409   -2.1167    4.3368 H         1 <0>         0.1231
     42 H9         -1.7087   -0.3791    4.8475 H         1 <0>         0.1370
     43 H10        -1.1084    2.0008    4.6468 H         1 <0>         0.1417
     44 H11         1.1599    2.6425    3.9361 H         1 <0>         0.1450
     45 H12         2.8974   -6.4661    3.6419 H         1 <0>         0.0847
     46 H13         1.7806   -6.1842    4.9989 H         1 <0>         0.1167
     47 H14         1.1534   -6.2845    3.3361 H         1 <0>         0.0899
     48 H15         0.8860   -5.7215    1.9096 H         1 <0>         0.1501
     49 H16         0.5528   -4.2727    0.9307 H         1 <0>         0.1845
     50 H17         2.9164   -6.9237    1.6303 H         1 <0>         0.1295
     51 H18         4.2299   -6.2359    0.6455 H         1 <0>         0.1333
     52 H19         3.7622   -5.4555    2.1753 H         1 <0>         0.1172
     53 H20         1.4825   -6.8716   -0.2163 H         1 <0>         0.1371
     54 H21         1.1042   -5.3419   -1.0442 H         1 <0>         0.1437
     55 H22         2.6649   -4.3700   -2.6329 H         1 <0>         0.1335
     56 H23         4.4776   -4.7940   -4.2446 H         1 <0>         0.1360
     57 H24         5.8311   -6.8430   -4.0643 H         1 <0>         0.1357
     58 H25         5.3724   -8.4678   -2.2718 H         1 <0>         0.1361
     59 H26         3.5651   -8.0398   -0.6551 H         1 <0>         0.1311
     60 H27         2.8714   -4.3299    0.2561 H         1 <0>         0.4290
@<TRIPOS>BOND
     1    1    2 1
     2    1   35 1
     3    1   36 1
     4    1   37 1
     5    2    3 1
     6    2   38 1
     7    2   39 1
     8    3    4 1
     9    4    5 2
    10    4    6 1
    11    6   12 1
    12    6    7 2
    13    7    8 1
    14    7   25 1
    15    8    9 am
    16    8   24 1
    17    9   10 2
    18    9   11 am
    19   11   12 1
    20   11   40 1
    21   12   13 1
    22   12   14 1
    23   14   19 ar
    24   14   15 ar
    25   15   16 ar
    26   15   41 1
    27   16   17 ar
    28   16   42 1
    29   17   18 ar
    30   17   43 1
    31   18   19 ar
    32   18   44 1
    33   19   20 1
    34   20   21 1
    35   20   22 1
    36   20   23 1
    37   24   45 1
    38   24   46 1
    39   24   47 1
    40   25   26 1
    41   25   48 1
    42   25   49 1
    43   26   27 1
    44   26   28 1
    45   26   60 1
    46   27   50 1
    47   27   51 1
    48   27   52 1
    49   28   29 1
    50   28   53 1
    51   28   54 1
    52   29   34 ar
    53   29   30 ar
    54   30   31 ar
    55   30   55 1
    56   31   32 ar
    57   31   56 1
    58   32   33 ar
    59   32   57 1
    60   33   34 ar
    61   33   58 1
    62   34   59 1
@<TRIPOS>MOLECULE
ZINC40316288
   59    62     0     0     0
SMALL
USER_CHARGES

@<TRIPOS>ATOM
      1 C1          2.2677   -0.7660    0.2654 C.ar      1 <0>        -0.1011
      2 C2          3.0004    0.4005    0.1855 C.ar      1 <0>        -0.0901
      3 C3          4.3831    0.3420    0.0045 C.ar      1 <0>        -0.0383
      4 C4          5.0163   -0.8981   -0.0945 C.ar      1 <0>        -0.0780
      5 C5          4.2719   -2.0579   -0.0129 C.ar      1 <0>        -0.0337
      6 C6          2.9002   -1.9921    0.1666 C.ar      1 <0>        -0.0844
      7 Cl1         5.0565   -3.6016   -0.1357 Cl        1 <0>        -0.0459
      8 C7          5.1735    1.5878   -0.0823 C.2       1 <0>         0.1001
      9 C8          6.5285    1.6693   -0.1580 C.2       1 <0>        -0.2006
     10 C9          6.8496    3.0398   -0.2250 C.2       1 <0>        -0.1250
     11 C10         5.6870    3.7198   -0.1872 C.2       1 <0>        -0.1139
     12 O1          4.6763    2.8392   -0.1061 O.3       1 <0>        -0.1610
     13 C11         5.5444    5.2194   -0.2332 C.3       1 <0>         0.0740
     14 N1          5.6283    5.6768   -1.6266 N.4       1 <0>        -0.3681
     15 C12         6.4161    6.9151   -1.6889 C.3       1 <0>        -0.0551
     16 C13         6.6879    7.2736   -3.1513 C.3       1 <0>         0.0877
     17 H1          7.1882    6.4394   -3.6430 H         1 <0>         0.1390
     18 C14         7.5819    8.5136   -3.2147 C.3       1 <0>         0.0288
     19 O2          7.9310    8.7801   -4.5745 O.3       1 <0>        -0.2984
     20 C15         8.7280    9.8565   -4.8076 C.ar      1 <0>         0.1073
     21 C16         9.1689   10.6361   -3.7484 C.ar      1 <0>        -0.1796
     22 C17         9.9786   11.7297   -3.9867 C.ar      1 <0>        -0.1140
     23 C18        10.3497   12.0481   -5.2820 C.ar      1 <0>         0.0750
     24 C19         9.9099   11.2711   -6.3402 C.ar      1 <0>        -0.1102
     25 C20         9.1055   10.1730   -6.1042 C.ar      1 <0>        -0.1126
     26 F1         11.1412   13.1181   -5.5136 F         1 <0>        -0.1331
     27 O3          5.4506    7.5441   -3.8132 O.3       1 <0>        -0.5399
     28 C21         4.2759    5.9305   -2.1410 C.3       1 <0>         0.0000
     29 H2          4.3245    6.1642   -3.2045 H         1 <0>         0.1937
     30 C22         3.6426    7.1065   -1.3792 C.3       1 <0>        -0.1499
     31 C23         2.1263    7.1761   -1.6818 C.3       1 <0>        -0.5754
     32 S1          1.7072    5.4236   -2.0504 S.o2      1 <0>         2.3867
     33 O4          1.2618    5.3281   -3.3963 O.2       1 <0>        -0.9005
     34 O5          0.8899    4.9142   -1.0055 O.2       1 <0>        -0.9033
     35 C24         3.3853    4.6746   -1.9193 C.3       1 <0>        -0.6346
     36 H3          1.1983   -0.7216    0.4098 H         1 <0>         0.1458
     37 H4          2.5048    1.3570    0.2624 H         1 <0>         0.1368
     38 H5          6.0859   -0.9502   -0.2349 H         1 <0>         0.1426
     39 H6          2.3219   -2.9020    0.2302 H         1 <0>         0.1455
     40 H7          7.2243    0.8433   -0.1654 H         1 <0>         0.1672
     41 H8          7.8402    3.4647   -0.2932 H         1 <0>         0.1657
     42 H9          4.5796    5.5056    0.1857 H         1 <0>         0.1477
     43 H10         6.3437    5.6784    0.3487 H         1 <0>         0.1655
     44 H11         5.8605    7.7235   -1.2138 H         1 <0>         0.1463
     45 H12         7.3628    6.7700   -1.1685 H         1 <0>         0.1545
     46 H13         7.0465    9.3690   -2.8027 H         1 <0>         0.0797
     47 H14         8.4879    8.3383   -2.6346 H         1 <0>         0.0856
     48 H15         8.8790   10.3884   -2.7379 H         1 <0>         0.1342
     49 H16        10.3221   12.3368   -3.1621 H         1 <0>         0.1425
     50 H17        10.1998   11.5207   -7.3502 H         1 <0>         0.1490
     51 H18         8.7666    9.5642   -6.9294 H         1 <0>         0.1449
     52 H19         4.9967    8.3347   -3.4908 H         1 <0>         0.3908
     53 H20         3.7919    6.9665   -0.3086 H         1 <0>         0.1079
     54 H21         4.1169    8.0371   -1.6910 H         1 <0>         0.1182
     55 H22         1.5743    7.5306   -0.8114 H         1 <0>         0.1621
     56 H23         1.9337    7.8098   -2.5475 H         1 <0>         0.1587
     57 H24         3.5479    3.9330   -2.7014 H         1 <0>         0.1671
     58 H25         3.5492    4.2447   -0.9311 H         1 <0>         0.1613
     59 H26         6.0737    4.9662   -2.1876 H         1 <0>         0.4345
@<TRIPOS>BOND
     1    1    6 ar
     2    1    2 ar
     3    1   36 1
     4    2    3 ar
     5    2   37 1
     6    3    4 ar
     7    3    8 1
     8    4    5 ar
     9    4   38 1
    10    5    6 ar
    11    5    7 1
    12    6   39 1
    13    8   12 1
    14    8    9 2
    15    9   10 1
    16    9   40 1
    17   10   11 2
    18   10   41 1
    19   11   12 1
    20   11   13 1
    21   13   14 1
    22   13   42 1
    23   13   43 1
    24   14   15 1
    25   14   28 1
    26   14   59 1
    27   15   16 1
    28   15   44 1
    29   15   45 1
    30   16   17 1
    31   16   18 1
    32   16   27 1
    33   18   19 1
    34   18   46 1
    35   18   47 1
    36   19   20 1
    37   20   25 ar
    38   20   21 ar
    39   21   22 ar
    40   21   48 1
    41   22   23 ar
    42   22   49 1
    43   23   24 ar
    44   23   26 1
    45   24   25 ar
    46   24   50 1
    47   25   51 1
    48   27   52 1
    49   28   29 1
    50   28   35 1
    51   28   30 1
    52   30   31 1
    53   30   53 1
    54   30   54 1
    55   31   32 1
    56   31   55 1
    57   31   56 1
    58   32   33 2
    59   32   34 2
    60   32   35 1
    61   35   57 1
    62   35   58 1
@<TRIPOS>MOLECULE
ZINC63622996
   64    67     0     0     0
SMALL
USER_CHARGES

@<TRIPOS>ATOM
      1 C1         -1.0393    0.8255   -0.2887 C.3       1 <0>        -0.1501
      2 C2         -0.8618   -0.6936   -0.3328 C.3       1 <0>        -0.0950
      3 C3         -0.0041   -1.0650   -1.5149 C.ar      1 <0>        -0.0396
      4 C4         -0.5938   -1.3242   -2.7393 C.ar      1 <0>        -0.1228
      5 C5          0.1856   -1.6648   -3.8255 C.ar      1 <0>        -0.0472
      6 C6          1.5720   -1.7476   -3.6871 C.ar      1 <0>        -0.1541
      7 C7          2.1606   -1.4849   -2.4491 C.ar      1 <0>        -0.0811
      8 C8          1.3701   -1.1399   -1.3723 C.ar      1 <0>        -0.1253
      9 C9          2.4134   -2.1125   -4.8467 C.2       1 <0>         0.5698
     10 O1          1.8980   -2.3412   -5.9236 O.2       1 <0>        -0.5139
     11 N1          3.7519   -2.1916   -4.7098 N.am      1 <0>        -0.7258
     12 C10         4.5856   -2.5532   -5.8589 C.3       1 <0>         0.1650
     13 H1          4.1195   -2.1897   -6.7747 H         1 <0>         0.1620
     14 C11         4.7268   -4.0751   -5.9278 C.3       1 <0>        -0.1011
     15 C12         5.3424   -4.5809   -4.6486 C.2       1 <0>         0.0546
     16 C13         4.6886   -5.0484   -3.5608 C.ar      1 <0>        -0.1589
     17 C14         3.2632   -5.2182   -3.2541 C.ar      1 <0>        -0.0082
     18 C15         2.9067   -5.7229   -2.0511 C.ar      1 <0>        -0.1485
     19 C16         3.8619   -6.0866   -1.0920 C.ar      1 <0>         0.0588
     20 C17         5.1896   -5.9600   -1.3005 C.ar      1 <0>        -0.2103
     21 C18         5.6774   -5.4404   -2.5312 C.ar      1 <0>         0.3295
     22 N2          6.8952   -5.2238   -2.9657 N.pl3     1 <0>        -0.5827
     23 C19         6.8165   -4.6748   -4.3240 C.3       1 <0>         0.0584
     24 C20         5.9486   -1.9287   -5.7068 C.2       1 <0>         0.4465
     25 O2          6.1980   -1.2511   -4.7381 O.2       1 <0>        -0.4839
     26 O3          6.8856   -2.1252   -6.6477 O.3       1 <0>        -0.3230
     27 C21         8.1551   -1.5032   -6.4388 C.3       1 <0>         0.0163
     28 C22         9.0714   -1.8331   -7.5889 C.2       1 <0>         0.4000
     29 O4          8.6763   -2.5319   -8.4977 O.2       1 <0>        -0.4221
     30 C23        10.4458   -1.3072   -7.6090 C.ar      1 <0>        -0.1843
     31 C24        10.9071   -0.5057   -6.5598 C.ar      1 <0>        -0.0723
     32 C25        12.1962   -0.0172   -6.5858 C.ar      1 <0>        -0.1322
     33 C26        13.0330   -0.3181   -7.6464 C.ar      1 <0>        -0.0389
     34 C27        12.5837   -1.1102   -8.6886 C.ar      1 <0>        -0.1307
     35 C28        11.2991   -1.6111   -8.6745 C.ar      1 <0>        -0.0469
     36 C29        14.4405    0.2200   -7.6667 C.3       1 <0>        -0.1283
     37 H2         -0.0638    1.3026   -0.1941 H         1 <0>         0.0569
     38 H3         -1.5208    1.1618   -1.2069 H         1 <0>         0.0588
     39 H4         -1.6596    1.0941    0.5663 H         1 <0>         0.0650
     40 H5         -0.3803   -1.0299    0.5855 H         1 <0>         0.0772
     41 H6         -1.8372   -1.1707   -0.4274 H         1 <0>         0.0794
     42 H7         -1.6668   -1.2602   -2.8450 H         1 <0>         0.1352
     43 H8         -0.2760   -1.8673   -4.7807 H         1 <0>         0.1403
     44 H9          3.2327   -1.5473   -2.3354 H         1 <0>         0.1190
     45 H10         1.8246   -0.9320   -0.4149 H         1 <0>         0.1304
     46 H11         4.1631   -2.0092   -3.8505 H         1 <0>         0.4098
     47 H12         3.7431   -4.5256   -6.0605 H         1 <0>         0.1348
     48 H13         5.3657   -4.3431   -6.7693 H         1 <0>         0.1408
     49 H14         2.5104   -4.9438   -3.9782 H         1 <0>         0.1574
     50 H15         1.8585   -5.8486   -1.8233 H         1 <0>         0.1583
     51 H16         3.5218   -6.4840   -0.1471 H         1 <0>         0.1619
     52 H17         5.8850   -6.2546   -0.5286 H         1 <0>         0.1614
     53 H18         7.3150   -5.3394   -5.0296 H         1 <0>         0.1794
     54 H19         7.2716   -3.6848   -4.3537 H         1 <0>         0.1581
     55 H20         8.0246   -0.4229   -6.3766 H         1 <0>         0.1145
     56 H21         8.5913   -1.8706   -5.5099 H         1 <0>         0.1045
     57 H22        10.2552   -0.2698   -5.7317 H         1 <0>         0.1292
     58 H23        12.5538    0.6022   -5.7765 H         1 <0>         0.1336
     59 H24        13.2425   -1.3403   -9.5129 H         1 <0>         0.1355
     60 H25        10.9514   -2.2328   -9.4863 H         1 <0>         0.1381
     61 H26        15.1074   -0.4884   -7.1753 H         1 <0>         0.0808
     62 H27        14.7597    0.3636   -8.6990 H         1 <0>         0.0752
     63 H28        14.4723    1.1741   -7.1405 H         1 <0>         0.0744
     64 H29         7.7118   -5.4007   -2.4730 H         1 <0>         0.4563
@<TRIPOS>BOND
     1    1    2 1
     2    1   37 1
     3    1   38 1
     4    1   39 1
     5    2    3 1
     6    2   40 1
     7    2   41 1
     8    3    8 ar
     9    3    4 ar
    10    4    5 ar
    11    4   42 1
    12    5    6 ar
    13    5   43 1
    14    6    7 ar
    15    6    9 1
    16    7    8 ar
    17    7   44 1
    18    8   45 1
    19    9   10 2
    20    9   11 am
    21   11   12 1
    22   11   46 1
    23   12   13 1
    24   12   14 1
    25   12   24 1
    26   14   15 1
    27   14   47 1
    28   14   48 1
    29   15   23 1
    30   15   16 2
    31   16   21 ar
    32   16   17 ar
    33   17   18 ar
    34   17   49 1
    35   18   19 ar
    36   18   50 1
    37   19   20 ar
    38   19   51 1
    39   20   21 ar
    40   20   52 1
    41   21   22 2
    42   22   23 1
    43   22   64 1
    44   23   53 1
    45   23   54 1
    46   24   25 2
    47   24   26 1
    48   26   27 1
    49   27   28 1
    50   27   55 1
    51   27   56 1
    52   28   29 2
    53   28   30 1
    54   30   35 ar
    55   30   31 ar
    56   31   32 ar
    57   31   57 1
    58   32   33 ar
    59   32   58 1
    60   33   34 ar
    61   33   36 1
    62   34   35 ar
    63   34   59 1
    64   35   60 1
    65   36   61 1
    66   36   62 1
    67   36   63 1
@<TRIPOS>MOLECULE
ZINC12561224
   55    58     0     0     0
SMALL
USER_CHARGES
(2S)-4-[2-[[3-cyano-1-(2-furylmethyl)-4,5-dimethyl-pyrrol-2-yl]amino]-2-oxo-ethyl]-2,3-dihydro-1,4-benzoxazine-2-carboxamide
@<TRIPOS>ATOM
      1 C1         -0.5110    0.4588    0.0957 C.3       1 <0>        -0.0839
      2 C2         -0.9467    1.2842    1.2788 C.2       1 <0>        -0.1048
      3 C3         -2.0178    2.0919    1.3421 C.2       1 <0>         0.0346
      4 N1         -2.0808    2.6636    2.5847 N.pl3     1 <0>        -0.4463
      5 C4         -1.0425    2.2370    3.3491 C.2       1 <0>         0.3117
      6 C5         -0.2814    1.3635    2.5851 C.2       1 <0>        -0.1067
      7 C6          0.9076    0.6758    2.9900 C.1       1 <0>         0.2965
      8 N2          1.8509    0.1302    3.3112 N.1       1 <0>        -0.4280
      9 N3         -0.7875    2.6089    4.6607 N.am      1 <0>        -0.6535
     10 C7          0.4803    2.6456    5.1165 C.2       1 <0>         0.5142
     11 O1          1.4045    2.4585    4.3537 O.2       1 <0>        -0.4698
     12 C8          0.7496    2.9190    6.5738 C.3       1 <0>         0.0371
     13 N4          2.1887    2.7894    6.8386 N.pl3     1 <0>        -0.4622
     14 C9          2.9252    3.9481    6.3202 C.3       1 <0>         0.0257
     15 C10         4.3966    3.8183    6.7349 C.3       1 <0>         0.0736
     16 H1          4.7980    2.8697    6.3783 H         1 <0>         0.1143
     17 O2          4.4562    3.8627    8.1644 O.3       1 <0>        -0.2859
     18 C11         3.5471    3.1050    8.8376 C.ar      1 <0>         0.0946
     19 C12         2.4307    2.5770    8.1995 C.ar      1 <0>         0.0393
     20 C13         1.5232    1.8129    8.9257 C.ar      1 <0>        -0.1267
     21 C14         1.7312    1.5780   10.2707 C.ar      1 <0>        -0.1202
     22 C15         2.8438    2.1012   10.9022 C.ar      1 <0>        -0.1059
     23 C16         3.7501    2.8626   10.1884 C.ar      1 <0>        -0.1160
     24 C17         5.1922    4.9596    6.1557 C.2       1 <0>         0.5299
     25 O3          5.7063    5.7753    6.8914 O.2       1 <0>        -0.5133
     26 N5          5.3324    5.0739    4.8201 N.am      1 <0>        -0.8452
     27 C18        -3.1182    3.5993    3.0259 C.3       1 <0>         0.1837
     28 C19        -4.3115    2.8270    3.5262 C.2       1 <0>        -0.0520
     29 C20        -4.5104    2.4199    4.7928 C.2       1 <0>        -0.1797
     30 C21        -5.7478    1.7362    4.8137 C.2       1 <0>        -0.2153
     31 C22        -6.2310    1.7663    3.5588 C.2       1 <0>        -0.0183
     32 O4         -5.3596    2.4333    2.7844 O.3       1 <0>        -0.1667
     33 C23        -2.9997    2.3272    0.2234 C.3       1 <0>        -0.0880
     34 H2          0.1659    1.0444   -0.5264 H         1 <0>         0.0702
     35 H3          0.0014   -0.4370    0.4466 H         1 <0>         0.0650
     36 H4         -1.3851    0.1719   -0.4889 H         1 <0>         0.0697
     37 H5         -1.5217    2.8427    5.2500 H         1 <0>         0.4106
     38 H6          0.4244    3.9298    6.8199 H         1 <0>         0.0886
     39 H7          0.2016    2.2021    7.1853 H         1 <0>         0.1269
     40 H8          2.8522    3.9716    5.2329 H         1 <0>         0.1167
     41 H9          2.5049    4.8643    6.7350 H         1 <0>         0.0649
     42 H10         0.6528    1.4018    8.4361 H         1 <0>         0.1297
     43 H11         1.0231    0.9847   10.8302 H         1 <0>         0.1291
     44 H12         3.0052    1.9149   11.9537 H         1 <0>         0.1329
     45 H13         4.6188    3.2703   10.6839 H         1 <0>         0.1367
     46 H14         4.9212    4.4215    4.2317 H         1 <0>         0.4065
     47 H15         5.8445    5.8085    4.4473 H         1 <0>         0.4111
     48 H16        -2.7266    4.2236    3.8290 H         1 <0>         0.1191
     49 H17        -3.4183    4.2299    2.1890 H         1 <0>         0.1172
     50 H18        -3.8512    2.5835    5.6324 H         1 <0>         0.1462
     51 H19        -6.2151    1.2774    5.6725 H         1 <0>         0.1531
     52 H20        -7.1639    1.3324    3.2306 H         1 <0>         0.2079
     53 H21        -2.6674    3.1720   -0.3800 H         1 <0>         0.0765
     54 H22        -3.9824    2.5439    0.6421 H         1 <0>         0.0694
     55 H23        -3.0594    1.4358   -0.4011 H         1 <0>         0.0857
@<TRIPOS>BOND
     1    1    2 1
     2    1   34 1
     3    1   35 1
     4    1   36 1
     5    2    6 1
     6    2    3 2
     7    3    4 1
     8    3   33 1
     9    4    5 1
    10    4   27 1
    11    5    6 2
    12    5    9 1
    13    6    7 1
    14    7    8 3
    15    9   10 am
    16    9   37 1
    17   10   11 2
    18   10   12 1
    19   12   13 1
    20   12   38 1
    21   12   39 1
    22   13   19 1
    23   13   14 1
    24   14   15 1
    25   14   40 1
    26   14   41 1
    27   15   16 1
    28   15   17 1
    29   15   24 1
    30   17   18 1
    31   18   23 ar
    32   18   19 ar
    33   19   20 ar
    34   20   21 ar
    35   20   42 1
    36   21   22 ar
    37   21   43 1
    38   22   23 ar
    39   22   44 1
    40   23   45 1
    41   24   25 2
    42   24   26 am
    43   26   46 1
    44   26   47 1
    45   27   28 1
    46   27   48 1
    47   27   49 1
    48   28   32 1
    49   28   29 2
    50   29   30 1
    51   29   50 1
    52   30   31 2
    53   30   51 1
    54   31   32 1
    55   31   52 1
    56   33   53 1
    57   33   54 1
    58   33   55 1
@<TRIPOS>MOLECULE
ZINC14721705
   49    50     0     0     0
SMALL
USER_CHARGES
N-(6-amino-1-isobutyl-2,4-dioxo-pyrimidin-5-yl)-5,6-dichloro-N-(2-methoxyethyl)pyridine-3-carboxamide
@<TRIPOS>ATOM
      1 C1         -4.0481    6.2009   -1.8984 C.3       1 <0>        -0.1459
      2 C2         -2.7831    5.3410   -1.8618 C.3       1 <0>        -0.1145
      3 C3         -1.5827    6.1807   -2.3032 C.3       1 <0>        -0.1560
      4 C4         -2.5533    4.8321   -0.4374 C.3       1 <0>         0.1084
      5 N1         -1.4122    3.9134   -0.4251 N.am      1 <0>        -0.5315
      6 C5         -0.1441    4.4012   -0.2106 C.2       1 <0>         0.4966
      7 C6          0.9222    3.5251   -0.2015 C.2       1 <0>        -0.1906
      8 C7          0.6775    2.1550   -0.4128 C.2       1 <0>         0.5640
      9 O1          1.6013    1.3590   -0.4103 O.2       1 <0>        -0.5078
     10 N2         -0.5842    1.7292   -0.6183 N.am      1 <0>        -0.6620
     11 H1         -0.7597    0.7556   -0.7643 H         1 <0>         0.4444
     12 C8         -1.6102    2.5984   -0.6293 C.2       1 <0>         0.7110
     13 O2         -2.7383    2.1877   -0.8225 O.2       1 <0>        -0.5201
     14 N3          2.2342    3.9942    0.0162 N.am      1 <0>        -0.5036
     15 C9          3.2739    3.7545   -0.9877 C.3       1 <0>         0.1196
     16 C10         3.2103    4.8456   -2.0584 C.3       1 <0>         0.0428
     17 O3          3.5347    6.1077   -1.4722 O.3       1 <0>        -0.3772
     18 C11         3.5043    7.2009   -2.3920 C.3       1 <0>         0.0294
     19 C12         2.5316    4.6632    1.1478 C.2       1 <0>         0.5625
     20 O4          3.6409    5.1378    1.2999 O.2       1 <0>        -0.4910
     21 C13         1.5098    4.8199    2.2037 C.ar      1 <0>        -0.1679
     22 C14         1.6367    5.8223    3.1739 C.ar      1 <0>         0.0007
     23 C15         0.6529    5.9272    4.1411 C.ar      1 <0>        -0.0856
     24 C16        -0.4167    5.0450    4.1187 C.ar      1 <0>         0.1982
     25 N4         -0.5086    4.1102    3.1909 N.ar      1 <0>        -0.4592
     26 C17         0.3999    3.9755    2.2471 C.ar      1 <0>         0.1342
     27 Cl1        -1.6540    5.1713    5.3299 Cl        1 <0>         0.0036
     28 Cl2         0.7567    7.1496    5.3695 Cl        1 <0>        -0.0189
     29 N5          0.0586    5.7453   -0.0072 N.pl3     1 <0>        -0.8252
     30 H2         -3.9304    7.0491   -1.2241 H         1 <0>         0.0590
     31 H3         -4.2117    6.5634   -2.9132 H         1 <0>         0.0659
     32 H4         -4.9032    5.6026   -1.5840 H         1 <0>         0.0639
     33 H5         -2.9007    4.4927   -2.5362 H         1 <0>         0.0862
     34 H6         -1.4650    7.0290   -1.6289 H         1 <0>         0.0563
     35 H7         -0.6815    5.5681   -2.2772 H         1 <0>         0.0548
     36 H8         -1.7464    6.5433   -3.3180 H         1 <0>         0.0661
     37 H9         -3.4445    4.3091   -0.0902 H         1 <0>         0.1176
     38 H10        -2.3475    5.6759    0.2212 H         1 <0>         0.0900
     39 H11         4.2527    3.7723   -0.5085 H         1 <0>         0.1028
     40 H12         3.1139    2.7809   -1.4511 H         1 <0>         0.1072
     41 H13         3.9235    4.6190   -2.8509 H         1 <0>         0.0640
     42 H14         2.2042    4.8868   -2.4759 H         1 <0>         0.0487
     43 H15         3.7618    8.1224   -1.8699 H         1 <0>         0.0858
     44 H16         4.2237    7.0231   -3.1914 H         1 <0>         0.0421
     45 H17         2.5044    7.2909   -2.8164 H         1 <0>         0.0365
     46 H18         2.4807    6.4961    3.1670 H         1 <0>         0.1697
     47 H19         0.2872    3.2013    1.5026 H         1 <0>         0.1851
     48 H20         0.9604    6.1018    0.0154 H         1 <0>         0.4283
     49 H21        -0.7001    6.3374    0.1136 H         1 <0>         0.4116
@<TRIPOS>BOND
     1    1    2 1
     2    1   30 1
     3    1   31 1
     4    1   32 1
     5    2    3 1
     6    2    4 1
     7    2   33 1
     8    3   34 1
     9    3   35 1
    10    3   36 1
    11    4    5 1
    12    4   37 1
    13    4   38 1
    14    5   12 am
    15    5    6 1
    16    6    7 2
    17    6   29 1
    18    7    8 1
    19    7   14 1
    20    8    9 2
    21    8   10 am
    22   10   11 1
    23   10   12 am
    24   12   13 2
    25   14   15 1
    26   14   19 am
    27   15   16 1
    28   15   39 1
    29   15   40 1
    30   16   17 1
    31   16   41 1
    32   16   42 1
    33   17   18 1
    34   18   43 1
    35   18   44 1
    36   18   45 1
    37   19   20 2
    38   19   21 1
    39   21   26 ar
    40   21   22 ar
    41   22   23 ar
    42   22   46 1
    43   23   24 ar
    44   23   28 1
    45   24   25 ar
    46   24   27 1
    47   25   26 ar
    48   26   47 1
    49   29   48 1
    50   29   49 1
@<TRIPOS>MOLECULE
ZINC21623467
   51    54     0     0     0
SMALL
USER_CHARGES
(2S)-2-[[5-cyclopropyl-4-(2-furylmethyl)-1,2,4-triazol-3-yl]sulfanyl]-N-(4-sulfamoylphenyl)propanamide
@<TRIPOS>ATOM
      1 C1         -6.3584   -1.1385   -2.9259 C.3       1 <0>        -0.1513
      2 C2         -5.3277   -1.7766   -3.8594 C.3       1 <0>        -0.1112
      3 H1         -4.9264   -2.6329   -3.2976 H         1 <0>         0.1287
      4 C3         -6.0344   -2.4106   -5.0297 C.2       1 <0>         0.5358
      5 O1         -6.0844   -1.8315   -6.0941 O.2       1 <0>        -0.5005
      6 N1         -6.6108   -3.6213   -4.8935 N.am      1 <0>        -0.6822
      7 C4         -7.3494   -4.1673   -5.9491 C.ar      1 <0>         0.2098
      8 C5         -8.4714   -4.9420   -5.6857 C.ar      1 <0>        -0.1648
      9 C6         -9.2021   -5.4740   -6.7301 C.ar      1 <0>        -0.0049
     10 C7         -8.8101   -5.2464   -8.0365 C.ar      1 <0>        -0.6797
     11 C8         -7.6898   -4.4805   -8.3020 C.ar      1 <0>         0.0079
     12 C9         -6.9586   -3.9402   -7.2622 C.ar      1 <0>        -0.1456
     13 S1         -9.7405   -5.9334   -9.3658 S.o2      1 <0>         2.6374
     14 O2        -11.0537   -6.1553   -8.8704 O.2       1 <0>        -0.9868
     15 O3         -9.4824   -5.1225  -10.5038 O.2       1 <0>        -0.9517
     16 N2         -9.0996   -7.4251   -9.6925 N.pl3     1 <0>        -1.1627
     17 S2         -4.1882   -0.5049   -4.4596 S.3       1 <0>         0.0949
     18 C10        -3.4106   -0.0513   -2.9449 C.2       1 <0>         0.1412
     19 N3         -3.6587   -0.5556   -1.7584 N.2       1 <0>        -0.2870
     20 N4         -2.9047    0.0032   -0.8802 N.2       1 <0>        -0.2892
     21 C11        -2.1439    0.8963   -1.4470 C.2       1 <0>         0.2047
     22 N5         -2.4359    0.8911   -2.7830 N.pl3     1 <0>        -0.4616
     23 C12        -1.8293    1.7242   -3.8243 C.3       1 <0>         0.1872
     24 C13        -0.6264    1.0183   -4.3950 C.2       1 <0>        -0.0597
     25 C14        -0.6338    0.1705   -5.4393 C.2       1 <0>        -0.1646
     26 C15         0.7013   -0.2522   -5.6333 C.2       1 <0>        -0.2163
     27 C16         1.4435    0.3561   -4.6907 C.2       1 <0>        -0.0187
     28 O4          0.6341    1.1244   -3.9435 O.3       1 <0>        -0.1680
     29 C17        -1.1259    1.7687   -0.7588 C.3       1 <0>        -0.1694
     30 C18         0.0167    1.0714   -0.0178 C.3       1 <0>        -0.0972
     31 C19        -1.1014    1.7550    0.7717 C.3       1 <0>        -0.0958
     32 H2         -5.8425   -0.6757   -2.0717 H         1 <0>         0.0959
     33 H3         -7.0508   -1.9115   -2.5612 H         1 <0>         0.0736
     34 H4         -6.9228   -0.3696   -3.4738 H         1 <0>         0.0709
     35 H5         -6.5006   -4.1802   -3.9525 H         1 <0>         0.4444
     36 H6         -8.7751   -5.1244   -4.6655 H         1 <0>         0.1391
     37 H7        -10.0779   -6.0720   -6.5261 H         1 <0>         0.1461
     38 H8         -7.3864   -4.3043   -9.3234 H         1 <0>         0.1467
     39 H9         -6.0842   -3.3416   -7.4702 H         1 <0>         0.1496
     40 H10        -9.6552   -7.8895  -10.5205 H         1 <0>         0.4139
     41 H11        -9.1755   -8.0607   -8.7979 H         1 <0>         0.4085
     42 H12        -2.5629    1.9035   -4.6241 H         1 <0>         0.1309
     43 H13        -1.5183    2.6857   -3.3898 H         1 <0>         0.1200
     44 H14        -1.4942   -0.1281   -6.0198 H         1 <0>         0.1537
     45 H15         1.0565   -0.9358   -6.3902 H         1 <0>         0.1543
     46 H16         2.5096    0.2457   -4.5576 H         1 <0>         0.2085
     47 H17        -1.1990    2.5448   -1.5349 H         1 <0>         0.1227
     48 H18         0.0365    0.0066   -0.2933 H         1 <0>         0.1020
     49 H19         0.9729    1.5395   -0.2945 H         1 <0>         0.1115
     50 H20        -1.0698    2.7885    1.1472 H         1 <0>         0.1124
     51 H21        -2.0062    1.2555    1.1485 H         1 <0>         0.1169
@<TRIPOS>BOND
     1    1    2 1
     2    1   32 1
     3    1   33 1
     4    1   34 1
     5    2    3 1
     6    2    4 1
     7    2   17 1
     8    4    5 2
     9    4    6 am
    10    6    7 1
    11    6   35 1
    12    7   12 ar
    13    7    8 ar
    14    8    9 ar
    15    8   36 1
    16    9   10 ar
    17    9   37 1
    18   10   11 ar
    19   10   13 1
    20   11   12 ar
    21   11   38 1
    22   12   39 1
    23   13   14 2
    24   13   15 2
    25   13   16 1
    26   16   40 1
    27   16   41 1
    28   17   18 1
    29   18   22 1
    30   18   19 2
    31   19   20 1
    32   20   21 2
    33   21   22 1
    34   21   29 1
    35   22   23 1
    36   23   24 1
    37   23   42 1
    38   23   43 1
    39   24   28 1
    40   24   25 2
    41   25   26 1
    42   25   44 1
    43   26   27 2
    44   26   45 1
    45   27   28 1
    46   27   46 1
    47   29   31 1
    48   29   30 1
    49   29   47 1
    50   30   31 1
    51   30   48 1
    52   30   49 1
    53   31   50 1
    54   31   51 1
@<TRIPOS>MOLECULE
ZINC12921102
   62    65     0     0     0
SMALL
USER_CHARGES

@<TRIPOS>ATOM
      1 C1          0.3542    2.5808   -1.5346 C.3       1 <0>        -0.1539
      2 C2          0.3698    1.1451   -1.0061 C.3       1 <0>        -0.1208
      3 C3          0.9391    0.2133   -2.0778 C.3       1 <0>        -0.1376
      4 C4          0.9547   -1.2225   -1.5492 C.3       1 <0>         0.0945
      5 N1          1.4999   -2.1147   -2.5754 N.am      1 <0>        -0.5264
      6 C5          2.8956   -2.2833   -2.6944 C.2       1 <0>        -0.1390
      7 C6          3.6119   -2.9250   -1.7048 C.2       1 <0>         0.4862
      8 N2          4.9717   -3.0741   -1.8493 N.am      1 <0>        -0.5338
      9 C7          5.5961   -2.5997   -2.9425 C.2       1 <0>         0.7138
     10 O1          6.7989   -2.7412   -3.0514 O.2       1 <0>        -0.5319
     11 N3          4.9144   -1.9722   -3.9172 N.am      1 <0>        -0.6593
     12 H1          5.3879   -1.6394   -4.6956 H         1 <0>         0.4329
     13 C8          3.5804   -1.8051   -3.8273 C.2       1 <0>         0.5638
     14 O2          2.9712   -1.2389   -4.7191 O.2       1 <0>        -0.5022
     15 C9          5.7446   -3.7533   -0.8065 C.3       1 <0>         0.1491
     16 C10         5.8035   -5.2291   -1.1055 C.ar      1 <0>        -0.1287
     17 C11         4.8253   -6.0734   -0.6143 C.ar      1 <0>        -0.1024
     18 C12         4.8793   -7.4272   -0.8887 C.ar      1 <0>        -0.1204
     19 C13         5.9112   -7.9366   -1.6546 C.ar      1 <0>        -0.1038
     20 C14         6.8889   -7.0921   -2.1466 C.ar      1 <0>        -0.1195
     21 C15         6.8325   -5.7377   -1.8758 C.ar      1 <0>        -0.0856
     22 N4          2.9743   -3.4089   -0.5876 N.pl3     1 <0>        -0.8329
     23 C16         0.6671   -2.7752   -3.4067 C.2       1 <0>         0.5085
     24 O3          1.1114   -3.5868   -4.1916 O.2       1 <0>        -0.4904
     25 C17        -0.8147   -2.5048   -3.3602 C.3       1 <0>         0.1425
     26 H2         -0.9643   -1.4264   -3.3088 H         1 <0>         0.1134
     27 C18        -1.3865   -3.1390   -2.0706 C.3       1 <0>        -0.0685
     28 S1         -2.9300   -3.9092   -2.7388 S.3       1 <0>        -0.2539
     29 C19        -2.2752   -4.1924   -4.4362 C.3       1 <0>         0.1830
     30 N5         -1.4141   -2.9964   -4.6049 N.am      1 <0>        -0.6119
     31 C20        -1.4563   -2.6467   -5.9190 C.2       1 <0>         0.5437
     32 O4         -0.6767   -1.8903   -6.4584 O.2       1 <0>        -0.4938
     33 C21        -2.6101   -3.3331   -6.6127 C.3       1 <0>        -0.1398
     34 C22        -3.3950   -4.0107   -5.4736 C.3       1 <0>        -0.1095
     35 C23        -1.5327   -5.5222   -4.5817 C.3       1 <0>        -0.1355
     36 H3          1.3705    2.8884   -1.7809 H         1 <0>         0.0544
     37 H4         -0.2676    2.6322   -2.4284 H         1 <0>         0.0553
     38 H5         -0.0514    3.2447   -0.7712 H         1 <0>         0.0560
     39 H6          0.9916    1.0937   -0.1123 H         1 <0>         0.0630
     40 H7         -0.6465    0.8375   -0.7598 H         1 <0>         0.0635
     41 H8          0.3173    0.2647   -2.9715 H         1 <0>         0.0684
     42 H9          1.9554    0.5209   -2.3240 H         1 <0>         0.0711
     43 H10         1.5765   -1.2739   -0.6555 H         1 <0>         0.0810
     44 H11        -0.0616   -1.5300   -1.3030 H         1 <0>         0.0858
     45 H12         6.7558   -3.3471   -0.7810 H         1 <0>         0.1221
     46 H13         5.2659   -3.5973    0.1603 H         1 <0>         0.1001
     47 H14         4.0192   -5.6755   -0.0159 H         1 <0>         0.1155
     48 H15         4.1155   -8.0870   -0.5043 H         1 <0>         0.1260
     49 H16         5.9538   -8.9944   -1.8683 H         1 <0>         0.1261
     50 H17         7.6952   -7.4902   -2.7447 H         1 <0>         0.1274
     51 H18         7.5943   -5.0774   -2.2633 H         1 <0>         0.1333
     52 H19         2.0207   -3.2712   -0.4756 H         1 <0>         0.4223
     53 H20         3.4779   -3.8881    0.0888 H         1 <0>         0.4064
     54 H21        -0.7106   -3.8936   -1.6681 H         1 <0>         0.1057
     55 H22        -1.6156   -2.3784   -1.3242 H         1 <0>         0.1338
     56 H23        -3.2383   -2.6017   -7.1212 H         1 <0>         0.1150
     57 H24        -2.2417   -4.0767   -7.3193 H         1 <0>         0.1126
     58 H25        -3.7959   -4.9723   -5.7941 H         1 <0>         0.1012
     59 H26        -4.1848   -3.3635   -5.0925 H         1 <0>         0.1000
     60 H27        -2.2148   -6.3447   -4.3663 H         1 <0>         0.0815
     61 H28        -1.1570   -5.6191   -5.6003 H         1 <0>         0.0739
     62 H29        -0.6973   -5.5503   -3.8821 H         1 <0>         0.0688
@<TRIPOS>BOND
     1    1    2 1
     2    1   36 1
     3    1   37 1
     4    1   38 1
     5    2    3 1
     6    2   39 1
     7    2   40 1
     8    3    4 1
     9    3   41 1
    10    3   42 1
    11    4    5 1
    12    4   43 1
    13    4   44 1
    14    5    6 1
    15    5   23 am
    16    6   13 1
    17    6    7 2
    18    7    8 1
    19    7   22 1
    20    8    9 am
    21    8   15 1
    22    9   10 2
    23    9   11 am
    24   11   12 1
    25   11   13 am
    26   13   14 2
    27   15   16 1
    28   15   45 1
    29   15   46 1
    30   16   21 ar
    31   16   17 ar
    32   17   18 ar
    33   17   47 1
    34   18   19 ar
    35   18   48 1
    36   19   20 ar
    37   19   49 1
    38   20   21 ar
    39   20   50 1
    40   21   51 1
    41   22   52 1
    42   22   53 1
    43   23   24 2
    44   23   25 1
    45   25   26 1
    46   25   30 1
    47   25   27 1
    48   27   28 1
    49   27   54 1
    50   27   55 1
    51   28   29 1
    52   29   34 1
    53   29   30 1
    54   29   35 1
    55   30   31 am
    56   31   32 2
    57   31   33 1
    58   33   34 1
    59   33   56 1
    60   33   57 1
    61   34   58 1
    62   34   59 1
    63   35   60 1
    64   35   61 1
    65   35   62 1
@<TRIPOS>MOLECULE
ZINC59772153
   47    49     0     0     0
SMALL
USER_CHARGES

@<TRIPOS>ATOM
      1 C1         -5.4163   -4.6660   -0.4992 C.3       1 <0>        -0.1172
      2 C2         -3.9262   -4.4827   -0.3687 C.ar      1 <0>        -0.0907
      3 C3         -3.3933   -3.2102   -0.2736 C.ar      1 <0>        -0.1041
      4 C4         -2.0282   -3.0386   -0.1538 C.ar      1 <0>        -0.1230
      5 C5         -1.1902   -4.1462   -0.1289 C.ar      1 <0>         0.1333
      6 C6         -1.7287   -5.4231   -0.2247 C.ar      1 <0>        -0.1467
      7 C7         -3.0952   -5.5876   -0.3386 C.ar      1 <0>        -0.0980
      8 N1          0.1910   -3.9763   -0.0084 N.pl3     1 <0>        -1.0556
      9 S1          1.0483   -4.9009    1.0651 S.o2      1 <0>         2.6918
     10 O1          0.7122   -6.2547    0.7941 O.2       1 <0>        -0.9454
     11 O2          2.3875   -4.4268    1.0304 O.2       1 <0>        -0.9486
     12 C8          0.4281   -4.5405    2.6745 C.ar      1 <0>        -0.6869
     13 C9          0.9111   -3.4479    3.3713 C.ar      1 <0>         0.0053
     14 C10         0.4272   -3.1626    4.6328 C.ar      1 <0>        -0.1573
     15 C11        -0.5459   -3.9746    5.2019 C.ar      1 <0>         0.1987
     16 C12        -1.0288   -5.0714    4.4991 C.ar      1 <0>        -0.1402
     17 C13        -0.5446   -5.3477    3.2357 C.ar      1 <0>         0.0085
     18 N2         -1.0374   -3.6891    6.4783 N.am      1 <0>        -0.6423
     19 C14        -1.4068   -4.6929    7.2983 C.2       1 <0>         0.5192
     20 O3         -1.2254   -5.8461    6.9658 O.2       1 <0>        -0.4771
     21 C15        -2.0391   -4.3865    8.6154 C.2       1 <0>         0.5271
     22 O4         -2.2205   -3.2334    8.9478 O.2       1 <0>        -0.4757
     23 N3         -2.4086   -5.3903    9.4353 N.am      1 <0>        -0.6053
     24 C16        -2.9988   -5.1043   10.6649 C.2       1 <0>         0.3263
     25 C17        -3.2741   -3.8158   11.1759 C.2       1 <0>        -0.2899
     26 C18        -3.8439   -3.9595   12.3854 C.2       1 <0>         0.0872
     27 O5         -3.9364   -5.2718   12.6515 O.3       1 <0>        -0.0623
     28 N4         -3.4017   -5.9814   11.5487 N.2       1 <0>        -0.3391
     29 C19        -4.2997   -2.8406   13.2863 C.3       1 <0>        -0.0905
     30 H1         -5.8608   -4.7463    0.4928 H         1 <0>         0.0716
     31 H2         -5.8434   -3.8092   -1.0204 H         1 <0>         0.0675
     32 H3         -5.6224   -5.5749   -1.0645 H         1 <0>         0.0686
     33 H4         -4.0454   -2.3495   -0.2933 H         1 <0>         0.1272
     34 H5         -1.6127   -2.0445   -0.0799 H         1 <0>         0.1285
     35 H6         -1.0799   -6.2863   -0.2060 H         1 <0>         0.1559
     36 H7         -3.5150   -6.5803   -0.4086 H         1 <0>         0.1305
     37 H8          0.6479   -3.3168   -0.5535 H         1 <0>         0.4275
     38 H9          1.6678   -2.8173    2.9284 H         1 <0>         0.1474
     39 H10         0.8050   -2.3093    5.1765 H         1 <0>         0.1426
     40 H11        -1.7850   -5.7050    4.9387 H         1 <0>         0.1464
     41 H12        -0.9227   -6.1976    2.6870 H         1 <0>         0.1488
     42 H13        -1.1128   -2.7684    6.7743 H         1 <0>         0.4296
     43 H14        -2.2636   -6.3119    9.1696 H         1 <0>         0.4362
     44 H15        -3.0636   -2.8791   10.6812 H         1 <0>         0.1834
     45 H16        -5.3379   -2.5947   13.0633 H         1 <0>         0.0981
     46 H17        -4.2160   -3.1549   14.3266 H         1 <0>         0.0901
     47 H18        -3.6747   -1.9631   13.1204 H         1 <0>         0.0986
@<TRIPOS>BOND
     1    1    2 1
     2    1   30 1
     3    1   31 1
     4    1   32 1
     5    2    7 ar
     6    2    3 ar
     7    3    4 ar
     8    3   33 1
     9    4    5 ar
    10    4   34 1
    11    5    6 ar
    12    5    8 1
    13    6    7 ar
    14    6   35 1
    15    7   36 1
    16    8    9 1
    17    8   37 1
    18    9   10 2
    19    9   11 2
    20    9   12 1
    21   12   17 ar
    22   12   13 ar
    23   13   14 ar
    24   13   38 1
    25   14   15 ar
    26   14   39 1
    27   15   16 ar
    28   15   18 1
    29   16   17 ar
    30   16   40 1
    31   17   41 1
    32   18   19 am
    33   18   42 1
    34   19   20 2
    35   19   21 1
    36   21   22 2
    37   21   23 am
    38   23   24 1
    39   23   43 1
    40   24   28 2
    41   24   25 1
    42   25   26 2
    43   25   44 1
    44   26   27 1
    45   26   29 1
    46   27   28 1
    47   29   45 1
    48   29   46 1
    49   29   47 1
@<TRIPOS>MOLECULE
ZINC09147349
   67    70     0     0     0
SMALL
USER_CHARGES
N-(3-allyl-5,6-dimethoxy-benzothiazol-2-ylidene)-4-[(2-ethyl-1-piperidyl)sulfonyl]benzamide
@<TRIPOS>ATOM
      1 C1          3.1154    3.0464    0.4265 C.3       1 <0>        -0.1498
      2 C2          2.0573    2.0059    0.0540 C.3       1 <0>        -0.1604
      3 C3          0.6633    2.6155    0.2162 C.3       1 <0>         0.1545
      4 H1          0.5602    3.0299    1.2191 H         1 <0>         0.0769
      5 C4          0.4606    3.7244   -0.8210 C.3       1 <0>        -0.1281
      6 C5         -0.9805    4.2335   -0.7426 C.3       1 <0>        -0.1198
      7 C6         -1.9456    3.0899   -1.0633 C.3       1 <0>        -0.1329
      8 C7         -1.7697    1.9745   -0.0343 C.3       1 <0>         0.1135
      9 N1         -0.3555    1.5781    0.0048 N.pl3     1 <0>        -0.9919
     10 S1          0.0823   -0.0067   -0.1926 S.o2      1 <0>         2.6864
     11 O1         -1.0430   -0.6727   -0.7488 O.2       1 <0>        -0.9550
     12 O2          1.3541   -0.0008   -0.8264 O.2       1 <0>        -0.9477
     13 C8          0.3243   -0.6845    1.4157 C.ar      1 <0>        -0.6549
     14 C9          1.6026   -0.7876    1.9347 C.ar      1 <0>        -0.0406
     15 C10         1.7981   -1.3130    3.1955 C.ar      1 <0>        -0.0842
     16 C11         0.7047   -1.7504    3.9428 C.ar      1 <0>        -0.0558
     17 C12        -0.5812   -1.6488    3.4120 C.ar      1 <0>        -0.0848
     18 C13        -0.7643   -1.1167    2.1521 C.ar      1 <0>        -0.0311
     19 C14         0.9081   -2.3202    5.2948 C.2       1 <0>         0.5254
     20 O3         -0.0492   -2.7014    5.9459 O.2       1 <0>        -0.5195
     21 N2          2.1413   -2.4164    5.8008 N.2       1 <0>        -0.5845
     22 C15         2.3239   -2.9277    7.0141 C.2       1 <0>         0.4285
     23 N3          3.4918   -3.1038    7.6880 N.pl3     1 <0>        -0.4933
     24 C16         3.4838   -3.6579    8.9563 C.ar      1 <0>         0.1259
     25 C17         4.5770   -3.9145    9.7996 C.ar      1 <0>        -0.1750
     26 C18         4.3913   -4.4761   11.0437 C.ar      1 <0>         0.1473
     27 C19         3.1166   -4.8045   11.5013 C.ar      1 <0>         0.1094
     28 C20         2.0231   -4.5591   10.6848 C.ar      1 <0>        -0.0966
     29 C21         2.2142   -3.9990    9.4431 C.ar      1 <0>        -0.1817
     30 S2          1.1292   -3.5234    8.1208 S.3       1 <0>         0.1569
     31 O4          2.9474   -5.3579   12.7326 O.3       1 <0>        -0.2954
     32 C22         1.6088   -5.6653   13.1272 C.3       1 <0>         0.0209
     33 O5          5.4696   -4.7136   11.8386 O.3       1 <0>        -0.2953
     34 C23         6.7512   -4.3562   11.3172 C.3       1 <0>         0.0204
     35 C24         4.7598   -2.7061    7.0712 C.3       1 <0>         0.1283
     36 C25         4.6545   -2.8421    5.5740 C.2       1 <0>        -0.1517
     37 C26         4.9189   -1.8166    4.8030 C.2       1 <0>        -0.1515
     38 H2          2.9157    3.4249    1.4289 H         1 <0>         0.0534
     39 H3          4.1027    2.5853    0.4022 H         1 <0>         0.0614
     40 H4          3.0815    3.8703   -0.2864 H         1 <0>         0.0590
     41 H5          2.1534    1.1396    0.7084 H         1 <0>         0.0671
     42 H6          2.2004    1.6968   -0.9814 H         1 <0>         0.1105
     43 H7          1.1480    4.5449   -0.6155 H         1 <0>         0.0779
     44 H8          0.6530    3.3292   -1.8185 H         1 <0>         0.0708
     45 H9         -1.1799    4.6059    0.2623 H         1 <0>         0.0644
     46 H10        -1.1207    5.0395   -1.4629 H         1 <0>         0.0670
     47 H11        -2.9707    3.4588   -1.0301 H         1 <0>         0.0780
     48 H12        -1.7305    2.7006   -2.0584 H         1 <0>         0.0689
     49 H13        -2.3816    1.1181   -0.3177 H         1 <0>         0.0969
     50 H14        -2.0753    2.3356    0.9477 H         1 <0>         0.0712
     51 H15         2.4488   -0.4522    1.3534 H         1 <0>         0.1496
     52 H16         2.7961   -1.3891    3.6012 H         1 <0>         0.1506
     53 H17        -1.4318   -1.9855    3.9860 H         1 <0>         0.1452
     54 H18        -1.7594   -1.0371    1.7402 H         1 <0>         0.1433
     55 H19         5.5753   -3.6689    9.4687 H         1 <0>         0.1468
     56 H20         1.0273   -4.8064   11.0218 H         1 <0>         0.1533
     57 H21         1.0127   -4.7528   13.1318 H         1 <0>         0.0593
     58 H22         1.1772   -6.3777   12.4241 H         1 <0>         0.0594
     59 H23         1.6155   -6.1000   14.1268 H         1 <0>         0.1070
     60 H24         7.5216   -4.5976   12.0496 H         1 <0>         0.1078
     61 H25         6.9371   -4.9114   10.3978 H         1 <0>         0.0587
     62 H26         6.7724   -3.2869   11.1066 H         1 <0>         0.0588
     63 H27         4.9791   -1.6696    7.3273 H         1 <0>         0.0880
     64 H28         5.5599   -3.3484    7.4390 H         1 <0>         0.0965
     65 H29         4.3611   -3.7850    5.1368 H         1 <0>         0.1134
     66 H30         4.8435   -1.9140    3.7300 H         1 <0>         0.1057
     67 H31         5.2124   -0.8737    5.2403 H         1 <0>         0.0975
@<TRIPOS>BOND
     1    1    2 1
     2    1   38 1
     3    1   39 1
     4    1   40 1
     5    2    3 1
     6    2   41 1
     7    2   42 1
     8    3    4 1
     9    3    9 1
    10    3    5 1
    11    5    6 1
    12    5   43 1
    13    5   44 1
    14    6    7 1
    15    6   45 1
    16    6   46 1
    17    7    8 1
    18    7   47 1
    19    7   48 1
    20    8    9 1
    21    8   49 1
    22    8   50 1
    23    9   10 1
    24   10   11 2
    25   10   12 2
    26   10   13 1
    27   13   18 ar
    28   13   14 ar
    29   14   15 ar
    30   14   51 1
    31   15   16 ar
    32   15   52 1
    33   16   17 ar
    34   16   19 1
    35   17   18 ar
    36   17   53 1
    37   18   54 1
    38   19   20 2
    39   19   21 1
    40   21   22 2
    41   22   30 1
    42   22   23 1
    43   23   24 1
    44   23   35 1
    45   24   29 ar
    46   24   25 ar
    47   25   26 ar
    48   25   55 1
    49   26   27 ar
    50   26   33 1
    51   27   28 ar
    52   27   31 1
    53   28   29 ar
    54   28   56 1
    55   29   30 1
    56   31   32 1
    57   32   57 1
    58   32   58 1
    59   32   59 1
    60   33   34 1
    61   34   60 1
    62   34   61 1
    63   34   62 1
    64   35   36 1
    65   35   63 1
    66   35   64 1
    67   36   37 2
    68   36   65 1
    69   37   66 1
    70   37   67 1
@<TRIPOS>MOLECULE
ZINC34830632
   66    70     0     0     0
SMALL
USER_CHARGES

@<TRIPOS>ATOM
      1 C1         -0.3775    1.4693    0.2682 C.3       1 <0>        -0.1893
      2 C2         -0.1783   -0.0423    0.1410 C.3       1 <0>         0.1406
      3 H1         -1.1243   -0.5525    0.3220 H         1 <0>         0.0823
      4 C3          0.3264   -0.3782   -1.2678 C.3       1 <0>         0.1039
      5 N1          0.7568   -1.7832   -1.2899 N.am      1 <0>        -0.6133
      6 C4          1.7583   -2.2327   -0.3128 C.3       1 <0>         0.0940
      7 C5          1.2536   -1.8968    1.0960 C.3       1 <0>         0.1001
      8 N2          0.8202   -0.4924    1.1210 N.pl3     1 <0>        -0.9941
      9 S1          1.4499    0.5650    2.2290 S.o2      1 <0>         2.6883
     10 O1          2.6484   -0.0229    2.7159 O.2       1 <0>        -0.9555
     11 O2          1.4229    1.8506    1.6245 O.2       1 <0>        -0.9470
     12 C6          0.3297    0.6239    3.5879 C.ar      1 <0>        -0.6774
     13 C7         -0.7021    1.5437    3.5937 C.ar      1 <0>        -0.0276
     14 C8         -1.5809    1.5899    4.6597 C.ar      1 <0>        -0.1385
     15 C9         -1.4281    0.7160    5.7198 C.ar      1 <0>        -0.0627
     16 C10        -0.3968   -0.2045    5.7136 C.ar      1 <0>        -0.1388
     17 C11         0.4794   -0.2536    4.6455 C.ar      1 <0>        -0.0218
     18 C12         0.2425   -2.6441   -2.1905 C.2       1 <0>         0.5185
     19 O3         -0.5831   -2.2615   -2.9922 O.2       1 <0>        -0.5344
     20 C13         0.6934   -4.0820   -2.2011 C.3       1 <0>        -0.1379
     21 C14        -0.0387   -4.8378   -3.3118 C.3       1 <0>         0.0698
     22 N3          0.4008   -6.2395   -3.3222 N.3       1 <0>        -0.5352
     23 C15         0.0121   -6.9226   -2.0802 C.3       1 <0>         0.0572
     24 C16         0.8275   -8.2206   -1.9524 C.3       1 <0>        -0.0357
     25 C17         0.7804   -8.9191   -3.2721 C.2       1 <0>        -0.1369
     26 C18         0.3704   -8.3896   -4.4588 C.2       1 <0>        -0.1171
     27 C19         0.4103   -9.2357   -5.5645 C.2       1 <0>        -0.1405
     28 C20         0.8429  -10.5108   -5.4258 C.2       1 <0>        -0.1760
     29 S2          1.2252  -10.5830   -3.6816 S.3       1 <0>         0.0472
     30 C21        -0.0958   -6.9379   -4.5147 C.3       1 <0>         0.1952
     31 H2         -1.1851   -6.9039   -4.5314 H         1 <0>         0.0647
     32 C22         0.4534   -6.2776   -5.7530 C.ar      1 <0>        -0.0477
     33 C23         1.7656   -5.8424   -5.7800 C.ar      1 <0>        -0.0960
     34 C24         2.2707   -5.2366   -6.9150 C.ar      1 <0>        -0.0935
     35 C25         1.4643   -5.0648   -8.0244 C.ar      1 <0>        -0.1515
     36 C26         0.1504   -5.5001   -7.9985 C.ar      1 <0>         0.0984
     37 C27        -0.3528   -6.1124   -6.8629 C.ar      1 <0>        -0.1493
     38 F1         -0.6388   -5.3322   -9.0821 F         1 <0>        -0.1396
     39 H3          0.5258    1.9837   -0.0595 H         1 <0>         0.1047
     40 H4         -1.2177    1.7786   -0.3535 H         1 <0>         0.0764
     41 H5         -0.5827    1.7224    1.3084 H         1 <0>         0.0679
     42 H6         -0.4773   -0.2304   -1.9892 H         1 <0>         0.1072
     43 H7          1.1690    0.2665   -1.5179 H         1 <0>         0.0780
     44 H8          1.9003   -3.3096   -0.4034 H         1 <0>         0.1026
     45 H9          2.7028   -1.7201   -0.4949 H         1 <0>         0.0812
     46 H10         0.4110   -2.5415    1.3461 H         1 <0>         0.0773
     47 H11         2.0573   -2.0446    1.8174 H         1 <0>         0.1104
     48 H12        -0.8215    2.2265    2.7655 H         1 <0>         0.1449
     49 H13        -2.3866    2.3091    4.6646 H         1 <0>         0.1345
     50 H14        -2.1143    0.7525    6.5530 H         1 <0>         0.1326
     51 H15        -0.2773   -0.8871    6.5419 H         1 <0>         0.1345
     52 H16         1.2829   -0.9752    4.6389 H         1 <0>         0.1393
     53 H17         1.7678   -4.1245   -2.3799 H         1 <0>         0.1058
     54 H18         0.4667   -4.5410   -1.2388 H         1 <0>         0.0960
     55 H19        -1.1131   -4.7953   -3.1330 H         1 <0>         0.0458
     56 H20         0.1879   -4.3788   -4.2741 H         1 <0>         0.0900
     57 H21         0.2187   -6.2759   -1.2275 H         1 <0>         0.0905
     58 H22        -1.0511   -7.1607   -2.1116 H         1 <0>         0.0451
     59 H23         1.8603   -7.9843   -1.6963 H         1 <0>         0.0933
     60 H24         0.3913   -8.8565   -1.1821 H         1 <0>         0.0866
     61 H25         0.0958   -8.8745   -6.5324 H         1 <0>         0.1295
     62 H26         0.9335  -11.2837   -6.1747 H         1 <0>         0.1861
     63 H27         2.3962   -5.9756   -4.9133 H         1 <0>         0.1369
     64 H28         3.2958   -4.8971   -6.9350 H         1 <0>         0.1328
     65 H29         1.8590   -4.5907   -8.9109 H         1 <0>         0.1343
     66 H30        -1.3763   -6.4564   -6.8432 H         1 <0>         0.1327
@<TRIPOS>BOND
     1    1    2 1
     2    1   39 1
     3    1   40 1
     4    1   41 1
     5    2    3 1
     6    2    8 1
     7    2    4 1
     8    4    5 1
     9    4   42 1
    10    4   43 1
    11    5    6 1
    12    5   18 am
    13    6    7 1
    14    6   44 1
    15    6   45 1
    16    7    8 1
    17    7   46 1
    18    7   47 1
    19    8    9 1
    20    9   10 2
    21    9   11 2
    22    9   12 1
    23   12   17 ar
    24   12   13 ar
    25   13   14 ar
    26   13   48 1
    27   14   15 ar
    28   14   49 1
    29   15   16 ar
    30   15   50 1
    31   16   17 ar
    32   16   51 1
    33   17   52 1
    34   18   19 2
    35   18   20 1
    36   20   21 1
    37   20   53 1
    38   20   54 1
    39   21   22 1
    40   21   55 1
    41   21   56 1
    42   22   30 1
    43   22   23 1
    44   23   24 1
    45   23   57 1
    46   23   58 1
    47   24   25 1
    48   24   59 1
    49   24   60 1
    50   25   29 1
    51   25   26 2
    52   26   27 1
    53   26   30 1
    54   27   28 2
    55   27   61 1
    56   28   29 1
    57   28   62 1
    58   30   31 1
    59   30   32 1
    60   32   37 ar
    61   32   33 ar
    62   33   34 ar
    63   33   63 1
    64   34   35 ar
    65   34   64 1
    66   35   36 ar
    67   35   65 1
    68   36   37 ar
    69   36   38 1
    70   37   66 1
@<TRIPOS>MOLECULE
ZINC36124116
   68    71     0     0     0
SMALL
USER_CHARGES

@<TRIPOS>ATOM
      1 C1         -0.0187    1.5258    0.0104 C.3       1 <0>        -0.1521
      2 C2          0.0021   -0.0041    0.0020 C.3       1 <0>        -0.1476
      3 C3          0.7182   -0.4975   -1.2568 C.3       1 <0>         0.1145
      4 N1          0.7381   -1.9623   -1.2648 N.pl3     1 <0>        -0.9778
      5 C4         -0.4068   -2.7075   -1.7941 C.3       1 <0>         0.1066
      6 C5         -0.2713   -2.8414   -3.2890 C.2       1 <0>         0.5037
      7 O1          0.6872   -2.3616   -3.8565 O.2       1 <0>        -0.5213
      8 N2         -1.2153   -3.4943   -3.9954 N.am      1 <0>        -0.6049
      9 C6         -2.3847   -4.0748   -3.3186 C.3       1 <0>         0.1069
     10 C7         -3.6409   -3.3386   -3.8094 C.3       1 <0>        -0.0562
     11 C8         -3.5431   -3.1589   -5.2894 C.2       1 <0>        -0.1293
     12 C9         -2.4373   -3.2717   -6.0742 C.2       1 <0>        -0.1287
     13 C10        -2.6123   -3.0446   -7.4384 C.2       1 <0>        -0.1439
     14 C11        -3.8375   -2.7351   -7.9210 C.2       1 <0>        -0.1719
     15 S1         -4.8317   -2.7486   -6.4369 S.3       1 <0>         0.0475
     16 C12        -1.0935   -3.6309   -5.4532 C.3       1 <0>         0.2118
     17 H1         -0.3237   -2.9543   -5.8242 H         1 <0>         0.1298
     18 C13        -0.7321   -5.0741   -5.8099 C.3       1 <0>         0.0550
     19 O2         -1.8078   -5.9396   -5.4414 O.3       1 <0>        -0.2992
     20 C14        -1.6465   -7.2655   -5.6922 C.ar      1 <0>         0.1696
     21 C15        -0.4739   -7.7243   -6.2759 C.ar      1 <0>        -0.2438
     22 C16        -0.3094   -9.0721   -6.5312 C.ar      1 <0>        -0.0388
     23 C17        -1.3116   -9.9666   -6.2065 C.ar      1 <0>        -0.2456
     24 C18        -2.4857   -9.5128   -5.6227 C.ar      1 <0>         0.1654
     25 C19        -2.6507   -8.1614   -5.3599 C.ar      1 <0>        -0.1879
     26 O3         -3.4709  -10.3929   -5.3037 O.3       1 <0>        -0.3148
     27 C20        -3.2303  -11.7705   -5.5974 C.3       1 <0>         0.0273
     28 S2          2.0547   -2.7758   -0.6757 S.o2      1 <0>         2.6902
     29 O4          2.0534   -4.0541   -1.2963 O.2       1 <0>        -0.9498
     30 O5          3.1577   -1.8848   -0.7688 O.2       1 <0>        -0.9472
     31 C21         1.7722   -3.0496    1.0419 C.ar      1 <0>        -0.6848
     32 C22         2.1871   -2.1117    1.9687 C.ar      1 <0>        -0.0146
     33 C23         1.9655   -2.3264    3.3161 C.ar      1 <0>        -0.1407
     34 C24         1.3285   -3.4790    3.7367 C.ar      1 <0>        -0.0268
     35 C25         0.9128   -4.4165    2.8098 C.ar      1 <0>        -0.1409
     36 C26         1.1306   -4.1997    1.4621 C.ar      1 <0>        -0.0173
     37 C27         1.0878   -3.7136    5.2058 C.3       1 <0>        -0.1266
     38 H2          1.0039    1.9031    0.0027 H         1 <0>         0.0594
     39 H3         -0.5459    1.8868   -0.8726 H         1 <0>         0.0579
     40 H4         -0.5289    1.8773    0.9072 H         1 <0>         0.0590
     41 H5          0.5293   -0.3651    0.8851 H         1 <0>         0.0641
     42 H6         -1.0205   -0.3814    0.0098 H         1 <0>         0.0682
     43 H7          0.1910   -0.1364   -2.1398 H         1 <0>         0.0874
     44 H8          1.7408   -0.1202   -1.2645 H         1 <0>         0.0980
     45 H9         -0.4357   -3.6988   -1.3417 H         1 <0>         0.1130
     46 H10        -1.3277   -2.1739   -1.5591 H         1 <0>         0.1160
     47 H11        -2.4614   -5.1346   -3.5618 H         1 <0>         0.1003
     48 H12        -2.2841   -3.9511   -2.2404 H         1 <0>         0.0930
     49 H13        -4.5266   -3.9273   -3.5703 H         1 <0>         0.0966
     50 H14        -3.7056   -2.3637   -3.3261 H         1 <0>         0.0873
     51 H15        -1.7695   -3.1154   -8.1100 H         1 <0>         0.1311
     52 H16        -4.1367   -2.5320   -8.9387 H         1 <0>         0.1869
     53 H17        -0.5560   -5.1500   -6.8829 H         1 <0>         0.0775
     54 H18         0.1699   -5.3663   -5.2722 H         1 <0>         0.0762
     55 H19         0.3104   -7.0272   -6.5312 H         1 <0>         0.1283
     56 H20         0.6037   -9.4272   -6.9855 H         1 <0>         0.1279
     57 H21        -1.1810  -11.0196   -6.4077 H         1 <0>         0.1290
     58 H22        -3.5620   -7.8068   -4.9015 H         1 <0>         0.1370
     59 H23        -3.0659  -11.8904   -6.6683 H         1 <0>         0.0571
     60 H24        -2.3479  -12.1091   -5.0543 H         1 <0>         0.0573
     61 H25        -4.0934  -12.3629   -5.2938 H         1 <0>         0.1020
     62 H26         2.6848   -1.2112    1.6401 H         1 <0>         0.1398
     63 H27         2.2903   -1.5940    4.0403 H         1 <0>         0.1338
     64 H28         0.4154   -5.3171    3.1385 H         1 <0>         0.1337
     65 H29         0.8025   -4.9304    0.7376 H         1 <0>         0.1386
     66 H30         0.1215   -3.2948    5.4870 H         1 <0>         0.0804
     67 H31         1.0924   -4.7846    5.4082 H         1 <0>         0.0737
     68 H32         1.8753   -3.2310    5.7846 H         1 <0>         0.0738
@<TRIPOS>BOND
     1    1    2 1
     2    1   38 1
     3    1   39 1
     4    1   40 1
     5    2    3 1
     6    2   41 1
     7    2   42 1
     8    3    4 1
     9    3   43 1
    10    3   44 1
    11    4    5 1
    12    4   28 1
    13    5    6 1
    14    5   45 1
    15    5   46 1
    16    6    7 2
    17    6    8 am
    18    8   16 1
    19    8    9 1
    20    9   10 1
    21    9   47 1
    22    9   48 1
    23   10   11 1
    24   10   49 1
    25   10   50 1
    26   11   15 1
    27   11   12 2
    28   12   13 1
    29   12   16 1
    30   13   14 2
    31   13   51 1
    32   14   15 1
    33   14   52 1
    34   16   17 1
    35   16   18 1
    36   18   19 1
    37   18   53 1
    38   18   54 1
    39   19   20 1
    40   20   25 ar
    41   20   21 ar
    42   21   22 ar
    43   21   55 1
    44   22   23 ar
    45   22   56 1
    46   23   24 ar
    47   23   57 1
    48   24   25 ar
    49   24   26 1
    50   25   58 1
    51   26   27 1
    52   27   59 1
    53   27   60 1
    54   27   61 1
    55   28   29 2
    56   28   30 2
    57   28   31 1
    58   31   36 ar
    59   31   32 ar
    60   32   33 ar
    61   32   62 1
    62   33   34 ar
    63   33   63 1
    64   34   35 ar
    65   34   37 1
    66   35   36 ar
    67   35   64 1
    68   36   65 1
    69   37   66 1
    70   37   67 1
    71   37   68 1
@<TRIPOS>MOLECULE
ZINC38648936
   68    72     0     0     0
SMALL
USER_CHARGES

@<TRIPOS>ATOM
      1 C1         -0.0187    1.5258    0.0104 C.3       1 <0>        -0.1506
      2 C2          0.0021   -0.0041    0.0020 C.3       1 <0>        -0.1230
      3 C3          0.7182   -0.4975   -1.2568 C.3       1 <0>         0.0557
      4 O1          0.7376   -1.9263   -1.2646 O.3       1 <0>        -0.3009
      5 C4          1.3417   -2.5298   -2.3231 C.ar      1 <0>         0.1179
      6 C5          1.9084   -1.7633   -3.3288 C.ar      1 <0>        -0.1745
      7 C6          2.5225   -2.3783   -4.4038 C.ar      1 <0>        -0.0964
      8 C7          2.5727   -3.7579   -4.4788 C.ar      1 <0>        -0.1053
      9 C8          2.0089   -4.5285   -3.4790 C.ar      1 <0>        -0.1431
     10 C9          1.3972   -3.9183   -2.3957 C.ar      1 <0>         0.1079
     11 O2          0.8474   -4.6749   -1.4084 O.3       1 <0>        -0.3014
     12 C10         0.9419   -6.0938   -1.5494 C.3       1 <0>         0.0515
     13 C11         0.2725   -6.7710   -0.3518 C.3       1 <0>        -0.1518
     14 C12         3.2430   -4.4231   -5.6532 C.3       1 <0>         0.2340
     15 H1          2.9091   -5.4571   -5.7400 H         1 <0>         0.1258
     16 C13         4.7273   -4.3726   -5.4957 C.2       1 <0>        -0.2445
     17 C14         5.6078   -4.9169   -4.4566 C.2       1 <0>         0.4575
     18 O3          5.2247   -5.6864   -3.5933 O.2       1 <0>        -0.4318
     19 C15         7.0107   -4.4414   -4.5576 C.ar      1 <0>        -0.2018
     20 C16         7.9220   -4.7068   -3.5356 C.ar      1 <0>        -0.0407
     21 C17         9.2089   -4.2577   -3.6413 C.ar      1 <0>        -0.1003
     22 C18         9.6087   -3.5398   -4.7599 C.ar      1 <0>        -0.0594
     23 C19         8.7231   -3.2707   -5.7790 C.ar      1 <0>        -0.0920
     24 C20         7.4051   -3.7199   -5.6962 C.ar      1 <0>         0.1314
     25 O4          6.5545   -3.4525   -6.7131 O.3       1 <0>        -0.1770
     26 C21         5.2348   -3.6734   -6.5536 C.2       1 <0>         0.0883
     27 C22         4.1124   -3.2517   -7.4101 C.2       1 <0>         0.5733
     28 O5          4.2224   -2.6071   -8.4340 O.2       1 <0>        -0.4785
     29 N1          2.9438   -3.6871   -6.8925 N.am      1 <0>        -0.5834
     30 C23         1.6124   -3.4663   -7.4624 C.3       1 <0>         0.1723
     31 H2          0.8596   -3.9430   -6.8346 H         1 <0>         0.1285
     32 C24         1.5516   -4.0529   -8.8825 C.3       1 <0>        -0.1464
     33 C25         0.2789   -3.5513   -9.6065 C.3       1 <0>        -0.5721
     34 S1         -0.0293   -1.9262   -8.8025 S.o2      1 <0>         2.3755
     35 O6         -1.2783   -1.9743   -8.1266 O.2       1 <0>        -0.9266
     36 O7          0.2169   -0.8906   -9.7439 O.2       1 <0>        -0.9252
     37 C26         1.3279   -1.9400   -7.5567 C.3       1 <0>        -0.6065
     38 C27         9.1778   -2.4892   -6.9846 C.3       1 <0>        -0.1149
     39 C28        10.1965   -4.5425   -2.5393 C.3       1 <0>        -0.1160
     40 H3          1.0039    1.9031    0.0027 H         1 <0>         0.0574
     41 H4         -0.5459    1.8868   -0.8726 H         1 <0>         0.0582
     42 H5         -0.5289    1.8773    0.9072 H         1 <0>         0.0660
     43 H6          0.5293   -0.3651    0.8851 H         1 <0>         0.0742
     44 H7         -1.0205   -0.3814    0.0098 H         1 <0>         0.0749
     45 H8          0.1910   -0.1364   -2.1398 H         1 <0>         0.0633
     46 H9          1.7408   -0.1202   -1.2645 H         1 <0>         0.0619
     47 H10         1.8699   -0.6854   -3.2730 H         1 <0>         0.1384
     48 H11         2.9638   -1.7798   -5.1870 H         1 <0>         0.1233
     49 H12         2.0491   -5.6060   -3.5402 H         1 <0>         0.1413
     50 H13         0.4415   -6.4018   -2.4675 H         1 <0>         0.0616
     51 H14         1.9913   -6.3856   -1.5921 H         1 <0>         0.0650
     52 H15         0.7729   -6.4630    0.5662 H         1 <0>         0.0669
     53 H16        -0.7768   -6.4792   -0.3092 H         1 <0>         0.0668
     54 H17         0.3446   -7.8533   -0.4594 H         1 <0>         0.0792
     55 H18         7.6123   -5.2651   -2.6646 H         1 <0>         0.1444
     56 H19        10.6274   -3.1884   -4.8318 H         1 <0>         0.1435
     57 H20         2.4332   -3.7394   -9.4416 H         1 <0>         0.1044
     58 H21         1.5295   -5.1411   -8.8239 H         1 <0>         0.1052
     59 H22         0.4651   -3.4257  -10.6731 H         1 <0>         0.1487
     60 H23        -0.5559   -4.2313   -9.4363 H         1 <0>         0.1448
     61 H24         0.9886   -1.5425   -6.6001 H         1 <0>         0.1499
     62 H25         2.2013   -1.3979   -7.9190 H         1 <0>         0.1539
     63 H26         9.5572   -3.1763   -7.7410 H         1 <0>         0.0788
     64 H27         8.3368   -1.9283   -7.3924 H         1 <0>         0.0756
     65 H28         9.9683   -1.7979   -6.6926 H         1 <0>         0.0760
     66 H29        10.7021   -5.4872   -2.7397 H         1 <0>         0.0768
     67 H30        10.9319   -3.7393   -2.4939 H         1 <0>         0.0724
     68 H31         9.6698   -4.6072   -1.5871 H         1 <0>         0.0720
@<TRIPOS>BOND
     1    1    2 1
     2    1   40 1
     3    1   41 1
     4    1   42 1
     5    2    3 1
     6    2   43 1
     7    2   44 1
     8    3    4 1
     9    3   45 1
    10    3   46 1
    11    4    5 1
    12    5   10 ar
    13    5    6 ar
    14    6    7 ar
    15    6   47 1
    16    7    8 ar
    17    7   48 1
    18    8    9 ar
    19    8   14 1
    20    9   10 ar
    21    9   49 1
    22   10   11 1
    23   11   12 1
    24   12   13 1
    25   12   50 1
    26   12   51 1
    27   13   52 1
    28   13   53 1
    29   13   54 1
    30   14   15 1
    31   14   29 1
    32   14   16 1
    33   16   26 2
    34   16   17 1
    35   17   18 2
    36   17   19 1
    37   19   24 ar
    38   19   20 ar
    39   20   21 ar
    40   20   55 1
    41   21   22 ar
    42   21   39 1
    43   22   23 ar
    44   22   56 1
    45   23   24 ar
    46   23   38 1
    47   24   25 1
    48   25   26 1
    49   26   27 1
    50   27   28 2
    51   27   29 am
    52   29   30 1
    53   30   31 1
    54   30   37 1
    55   30   32 1
    56   32   33 1
    57   32   57 1
    58   32   58 1
    59   33   34 1
    60   33   59 1
    61   33   60 1
    62   34   35 2
    63   34   36 2
    64   34   37 1
    65   37   61 1
    66   37   62 1
    67   38   63 1
    68   38   64 1
    69   38   65 1
    70   39   66 1
    71   39   67 1
    72   39   68 1
@<TRIPOS>MOLECULE
ZINC01789749
   60    64     0     0     0
SMALL
USER_CHARGES

@<TRIPOS>ATOM
      1 C1          1.9483   -3.1346   -2.4818 C.3       1 <0>        -0.1083
      2 C2          1.2720   -2.4144   -1.3438 C.2       1 <0>         0.2441
      3 C3          0.7528   -1.1676   -1.3939 C.2       1 <0>        -0.1477
      4 C4          0.2117   -0.8666   -0.1173 C.2       1 <0>         0.5628
      5 O1         -0.3380    0.1715    0.2038 O.2       1 <0>        -0.5104
      6 N1          0.4156   -1.9378    0.6761 N.am      1 <0>        -0.3631
      7 N2          1.0732   -2.9142   -0.0835 N.pl3     1 <0>        -0.3764
      8 C5          1.4812   -4.2395    0.3891 C.3       1 <0>         0.0935
      9 C6          0.0337   -2.0552    2.0162 C.ar      1 <0>         0.1463
     10 C7          0.9452   -2.5046    2.9629 C.ar      1 <0>        -0.1246
     11 C8          0.5648   -2.6194    4.2856 C.ar      1 <0>        -0.1020
     12 C9         -0.7221   -2.2876    4.6678 C.ar      1 <0>        -0.1137
     13 C10        -1.6321   -1.8399    3.7277 C.ar      1 <0>        -0.0989
     14 C11        -1.2564   -1.7173    2.4044 C.ar      1 <0>        -0.1003
     15 N3          0.7499   -0.3157   -2.5169 N.am      1 <0>        -0.4235
     16 C12         0.0466   -0.6556   -3.5839 C.2       1 <0>         0.5446
     17 O2         -0.5996   -1.6866   -3.6222 O.2       1 <0>        -0.4503
     18 C13         0.0844    0.2792   -4.7266 C.2       1 <0>        -0.2314
     19 C14        -0.5289    0.1946   -5.9344 C.2       1 <0>         0.0820
     20 C15        -0.1919    1.1498   -6.9977 C.ar      1 <0>        -0.0888
     21 C16         0.8852    2.0300   -6.8361 C.ar      1 <0>        -0.0705
     22 C17         1.1971    2.9231   -7.8364 C.ar      1 <0>        -0.1151
     23 C18         0.4450    2.9522   -9.0050 C.ar      1 <0>         0.1104
     24 C19        -0.6253    2.0808   -9.1708 C.ar      1 <0>        -0.1150
     25 C20        -0.9427    1.1799   -8.1793 C.ar      1 <0>        -0.0595
     26 O3          0.7567    3.8355   -9.9882 O.3       1 <0>        -0.2889
     27 C21         1.8208    3.5637  -10.7687 C.2       1 <0>         0.5128
     28 O4          2.4121    2.5099  -10.6441 O.2       1 <0>        -0.4682
     29 C22         2.2684    4.5471  -11.7759 C.ar      1 <0>        -0.1222
     30 C23         1.5945    5.7620  -11.9179 C.ar      1 <0>        -0.0122
     31 C24         2.0181    6.6759  -12.8600 C.ar      1 <0>        -0.1238
     32 C25         3.1082    6.3912  -13.6637 C.ar      1 <0>        -0.0183
     33 C26         3.7801    5.1894  -13.5287 C.ar      1 <0>        -0.0581
     34 C27         3.3707    4.2686  -12.5864 C.ar      1 <0>         0.0082
     35 N4          4.9447    4.8935  -14.3929 N.pl3     1 <0>         0.0310
     36 O5          5.3078    5.7015  -15.2157 O.2       1 <0>        -0.1461
     37 O6          5.5329    3.8437  -14.2761 O.3       1 <0>        -0.1474
     38 S1          1.1601    1.5530   -4.0816 S.3       1 <0>         0.0704
     39 C28         1.4599    0.8301   -2.4766 C.2       1 <0>         0.2586
     40 S2          2.4185    1.4424   -1.1971 S.2       1 <0>        -0.3008
     41 H1          1.2222   -3.7642   -2.9961 H         1 <0>         0.1051
     42 H2          2.3572   -2.4055   -3.1814 H         1 <0>         0.0898
     43 H3          2.7549   -3.7550   -2.0909 H         1 <0>         0.0932
     44 H4          1.9007   -4.8080   -0.4409 H         1 <0>         0.1096
     45 H5          2.2322   -4.1309    1.1716 H         1 <0>         0.0827
     46 H6          0.6141   -4.7657    0.7884 H         1 <0>         0.0854
     47 H7          1.9503   -2.7642    2.6650 H         1 <0>         0.1271
     48 H8          1.2730   -2.9691    5.0221 H         1 <0>         0.1334
     49 H9         -1.0172   -2.3787    5.7027 H         1 <0>         0.1316
     50 H10        -2.6364   -1.5816    4.0295 H         1 <0>         0.1347
     51 H11        -1.9662   -1.3630    1.6715 H         1 <0>         0.1306
     52 H12        -1.2649   -0.5753   -6.1136 H         1 <0>         0.1681
     53 H13         1.4700    2.0085   -5.9284 H         1 <0>         0.1390
     54 H14         2.0273    3.6026   -7.7126 H         1 <0>         0.1408
     55 H15        -1.2062    2.1077  -10.0808 H         1 <0>         0.1441
     56 H16        -1.7719    0.5006   -8.3108 H         1 <0>         0.1483
     57 H17         0.7434    5.9853  -11.2916 H         1 <0>         0.1615
     58 H18         1.4976    7.6157  -12.9711 H         1 <0>         0.1618
     59 H19         3.4357    7.1104  -14.3998 H         1 <0>         0.1642
     60 H20         3.8988    3.3327  -12.4789 H         1 <0>         0.1698
@<TRIPOS>BOND
     1    1    2 1
     2    1   41 1
     3    1   42 1
     4    1   43 1
     5    2    7 1
     6    2    3 2
     7    3    4 1
     8    3   15 1
     9    4    5 2
    10    4    6 am
    11    6    7 1
    12    6    9 1
    13    7    8 1
    14    8   44 1
    15    8   45 1
    16    8   46 1
    17    9   14 ar
    18    9   10 ar
    19   10   11 ar
    20   10   47 1
    21   11   12 ar
    22   11   48 1
    23   12   13 ar
    24   12   49 1
    25   13   14 ar
    26   13   50 1
    27   14   51 1
    28   15   39 1
    29   15   16 am
    30   16   17 2
    31   16   18 1
    32   18   19 2
    33   18   38 1
    34   19   20 1
    35   19   52 1
    36   20   25 ar
    37   20   21 ar
    38   21   22 ar
    39   21   53 1
    40   22   23 ar
    41   22   54 1
    42   23   24 ar
    43   23   26 1
    44   24   25 ar
    45   24   55 1
    46   25   56 1
    47   26   27 1
    48   27   28 2
    49   27   29 1
    50   29   34 ar
    51   29   30 ar
    52   30   31 ar
    53   30   57 1
    54   31   32 ar
    55   31   58 1
    56   32   33 ar
    57   32   59 1
    58   33   34 ar
    59   33   35 1
    60   34   60 1
    61   35   36 2
    62   35   37 1
    63   38   39 1
    64   39   40 2
@<TRIPOS>MOLECULE
ZINC06292352
   35    38     0     0     0
SMALL
USER_CHARGES
4-[1-[(5-amino-1,3,4-thiadiazol-2-yl)sulfanyl]ethyl]-9-(2-thienyl)-7-thia-3,5-diazabicyclo[4.3.0]nona-4,8,10-trien-2-one
@<TRIPOS>ATOM
      1 C1          0.2118   -2.9507   -1.3232 C.3       1 <0>        -0.1482
      2 C2         -0.5475   -2.7680   -0.0076 C.3       1 <0>        -0.0397
      3 H1          0.1497   -2.8395    0.8272 H         1 <0>         0.1522
      4 C3         -1.5963   -3.8426    0.1205 C.2       1 <0>         0.4328
      5 N1         -2.8697   -3.5825   -0.2727 N.am      1 <0>        -0.6339
      6 H2         -3.0949   -2.6796   -0.6387 H         1 <0>         0.4259
      7 C4         -3.8346   -4.5160   -0.1795 C.2       1 <0>         0.5536
      8 O1         -4.9722   -4.2682   -0.5409 O.2       1 <0>        -0.4938
      9 C5         -3.5065   -5.8020    0.3556 C.2       1 <0>        -0.2391
     10 C6         -4.3658   -6.9628    0.5609 C.2       1 <0>         0.0212
     11 C7         -3.8243   -8.0882    1.0909 C.2       1 <0>        -0.1660
     12 S1         -2.1166   -7.6446    1.3445 S.3       1 <0>         0.1813
     13 C8         -2.1671   -5.9773    0.7403 C.2       1 <0>         0.1064
     14 N2         -1.2662   -5.0064    0.6128 N.2       1 <0>        -0.4713
     15 C9         -5.7977   -6.9140    0.1984 C.2       1 <0>        -0.1105
     16 C10        -6.5274   -7.7942   -0.5551 C.2       1 <0>        -0.1426
     17 C11        -7.8673   -7.5391   -0.7588 C.2       1 <0>        -0.1620
     18 C12        -8.4175   -6.4234   -0.2173 C.2       1 <0>        -0.1874
     19 S2         -7.0244   -5.6881    0.6224 S.3       1 <0>         0.1146
     20 S3         -1.3456   -1.1391    0.0088 S.3       1 <0>         0.0555
     21 C13         0.0021   -0.0041    0.0020 C.2       1 <0>         0.0360
     22 N3          1.2988   -0.2460   -0.0117 N.2       1 <0>        -0.2598
     23 N4          2.1904    0.8017   -0.0146 N.2       1 <0>        -0.3717
     24 C14         1.7450    2.0427   -0.0036 C.2       1 <0>         0.3568
     25 S4         -0.0221    1.7820    0.0118 S.3       1 <0>         0.0182
     26 N5          2.4594    3.2349   -0.0041 N.pl3     1 <0>        -0.7856
     27 H3          0.6914   -3.9295   -1.3331 H         1 <0>         0.0883
     28 H4         -0.4854   -2.8793   -2.1581 H         1 <0>         0.0736
     29 H5          0.9704   -2.1735   -1.4159 H         1 <0>         0.0923
     30 H6         -4.3111   -9.0276    1.3073 H         1 <0>         0.2040
     31 H7         -6.0635   -8.6724   -0.9793 H         1 <0>         0.1320
     32 H8         -8.4699   -8.2165   -1.3455 H         1 <0>         0.1328
     33 H9         -9.4364   -6.0707   -0.2788 H         1 <0>         0.1842
     34 H10         1.9882    4.0827    0.0050 H         1 <0>         0.4249
     35 H11         3.4293    3.2192   -0.0134 H         1 <0>         0.4247
@<TRIPOS>BOND
     1    1    2 1
     2    1   27 1
     3    1   28 1
     4    1   29 1
     5    2    3 1
     6    2    4 1
     7    2   20 1
     8    4   14 2
     9    4    5 1
    10    5    6 1
    11    5    7 am
    12    7    8 2
    13    7    9 1
    14    9   13 2
    15    9   10 1
    16   10   11 2
    17   10   15 1
    18   11   12 1
    19   11   30 1
    20   12   13 1
    21   13   14 1
    22   15   19 1
    23   15   16 2
    24   16   17 1
    25   16   31 1
    26   17   18 2
    27   17   32 1
    28   18   19 1
    29   18   33 1
    30   20   21 1
    31   21   25 1
    32   21   22 2
    33   22   23 1
    34   23   24 2
    35   24   25 1
    36   24   26 1
    37   26   34 1
    38   26   35 1
@<TRIPOS>MOLECULE
ZINC18196240
   43    47     0     0     0
SMALL
USER_CHARGES
(6S,9S)-2-amino-9-(4-chlorophenyl)-6-(2-thienyl)-5,6,7,9-tetrahydro-4H-[1,2,4]triazolo[5,1-b]quinazolin-8-one
@<TRIPOS>ATOM
      1 C1          2.2234    0.7899   -0.0149 C.2       1 <0>        -0.1594
      2 C2          1.3319   -0.2664   -0.0121 C.2       1 <0>        -0.1416
      3 C3          0.0021   -0.0041    0.0020 C.2       1 <0>        -0.1514
      4 S1         -0.0221    1.7810    0.0118 S.3       1 <0>         0.0426
      5 C4          1.7416    2.0568   -0.0035 C.2       1 <0>        -0.1647
      6 C5         -1.1555   -0.9689    0.0075 C.3       1 <0>         0.0110
      7 H1         -0.7807   -1.9923   -0.0115 H         1 <0>         0.1085
      8 C6         -2.0008   -0.7528    1.2643 C.3       1 <0>        -0.0961
      9 C7         -3.1836   -1.6923    1.2482 C.2       1 <0>         0.2565
     10 C8         -3.7482   -2.0759    0.0834 C.2       1 <0>        -0.3117
     11 C9         -4.9432   -3.0025    0.0356 C.3       1 <0>         0.2803
     12 H2         -4.7739   -3.7725   -0.7171 H         1 <0>         0.1137
     13 N1         -5.1374   -3.6338    1.3348 N.pl3     1 <0>        -0.3824
     14 C10        -4.5262   -3.2113    2.4686 C.2       1 <0>         0.5103
     15 N2         -4.9162   -3.9785    3.4501 N.2       1 <0>        -0.5698
     16 C11        -5.7695   -4.9018    2.9847 C.2       1 <0>         0.4901
     17 N3         -5.9297   -4.7242    1.6913 N.2       1 <0>        -0.3418
     18 N4         -6.3886   -5.8916    3.7495 N.pl3     1 <0>        -0.8200
     19 N5         -3.6510   -2.1378    2.4613 N.pl3     1 <0>        -0.6075
     20 C12        -6.1745   -2.2123   -0.3254 C.ar      1 <0>        -0.0909
     21 C13        -6.5926   -1.1748    0.4870 C.ar      1 <0>        -0.0851
     22 C14        -7.7186   -0.4461    0.1534 C.ar      1 <0>        -0.1130
     23 C15        -8.4339   -0.7624   -0.9879 C.ar      1 <0>        -0.0251
     24 C16        -8.0182   -1.8044   -1.7976 C.ar      1 <0>        -0.1098
     25 C17        -6.8888   -2.5288   -1.4659 C.ar      1 <0>        -0.0666
     26 Cl1        -9.8527    0.1476   -1.4035 Cl        1 <0>        -0.0668
     27 C18        -3.2384   -1.6259   -1.1480 C.2       1 <0>         0.4137
     28 O1         -3.7784   -1.9773   -2.1785 O.2       1 <0>        -0.4564
     29 C19        -2.0411   -0.7198   -1.2180 C.3       1 <0>        -0.1502
     30 H3          3.2880    0.6085   -0.0264 H         1 <0>         0.1360
     31 H4          1.6894   -1.2854   -0.0213 H         1 <0>         0.1350
     32 H5          2.2840    2.9908   -0.0040 H         1 <0>         0.1872
     33 H6         -1.3936   -0.9489    2.1480 H         1 <0>         0.1068
     34 H7         -2.3565    0.2772    1.2897 H         1 <0>         0.1120
     35 H8         -6.9950   -6.5211    3.3290 H         1 <0>         0.4169
     36 H9         -6.2123   -5.9501    4.7016 H         1 <0>         0.4159
     37 H10        -3.3757   -1.7129    3.2887 H         1 <0>         0.4406
     38 H11        -6.0366   -0.9309    1.3802 H         1 <0>         0.1187
     39 H12        -8.0426    0.3672    0.7858 H         1 <0>         0.1340
     40 H13        -8.5760   -2.0515   -2.6888 H         1 <0>         0.1378
     41 H14        -6.5644   -3.3424   -2.0977 H         1 <0>         0.1367
     42 H15        -2.3390    0.2348   -1.2255 H         1 <0>         0.0972
     43 H16        -1.4759   -0.9316   -2.1257 H         1 <0>         0.1088
@<TRIPOS>BOND
     1    1    5 2
     2    1    2 1
     3    1   30 1
     4    2    3 2
     5    2   31 1
     6    3    4 1
     7    3    6 1
     8    4    5 1
     9    5   32 1
    10    6    7 1
    11    6   29 1
    12    6    8 1
    13    8    9 1
    14    8   33 1
    15    8   34 1
    16    9   19 1
    17    9   10 2
    18   10   11 1
    19   10   27 1
    20   11   12 1
    21   11   13 1
    22   11   20 1
    23   13   17 1
    24   13   14 1
    25   14   15 2
    26   14   19 1
    27   15   16 1
    28   16   17 2
    29   16   18 1
    30   18   35 1
    31   18   36 1
    32   19   37 1
    33   20   25 ar
    34   20   21 ar
    35   21   22 ar
    36   21   38 1
    37   22   23 ar
    38   22   39 1
    39   23   24 ar
    40   23   26 1
    41   24   25 ar
    42   24   40 1
    43   25   41 1
    44   27   28 2
    45   27   29 1
    46   29   42 1
    47   29   43 1
@<TRIPOS>MOLECULE
ZINC41628334
   46    48     0     0     0
SMALL
USER_CHARGES

@<TRIPOS>ATOM
      1 C1         -0.0241    1.7610   -0.1965 C.3       1 <0>        -0.1586
      2 C2          0.0287    0.2359   -0.0872 C.3       1 <0>        -0.1035
      3 C3         -1.3758   -0.3046    0.1890 C.3       1 <0>        -0.0978
      4 H1         -1.7882    0.1884    1.0693 H         1 <0>         0.1337
      5 C4         -1.3035   -1.7900    0.4328 C.2       1 <0>         0.5270
      6 O1         -1.4991   -2.5646   -0.4799 O.2       1 <0>        -0.4994
      7 N1         -1.0214   -2.2577    1.6649 N.am      1 <0>        -0.6620
      8 C5         -1.0531   -3.6359    1.9153 C.ar      1 <0>         0.1359
      9 C6         -0.6443   -4.5295    0.9344 C.ar      1 <0>        -0.1036
     10 C7         -0.6753   -5.8877    1.1819 C.ar      1 <0>        -0.1267
     11 C8         -1.1151   -6.3593    2.4101 C.ar      1 <0>         0.0926
     12 C9         -1.5240   -5.4671    3.3905 C.ar      1 <0>        -0.1263
     13 C10        -1.4877   -4.1084    3.1464 C.ar      1 <0>        -0.1246
     14 O2         -1.1458   -7.6968    2.6531 O.3       1 <0>        -0.4985
     15 S1         -2.4416    0.0221   -1.2420 S.3       1 <0>         0.0582
     16 C11        -4.0564   -0.3976   -0.6755 C.2       1 <0>         0.3615
     17 N2         -5.1014   -0.3729   -1.5486 N.am      1 <0>        -0.6153
     18 H2         -4.9572   -0.1317   -2.4770 H         1 <0>         0.4208
     19 C12        -6.3376   -0.6867   -1.1122 C.2       1 <0>         0.5313
     20 O3         -7.2872   -0.6649   -1.8780 O.2       1 <0>        -0.5287
     21 C13        -6.5191   -1.0411    0.2415 C.2       1 <0>        -0.2446
     22 C14        -5.4403   -1.0571    1.0664 C.2       1 <0>         0.1920
     23 N3         -4.2343   -0.7356    0.5840 N.2       1 <0>        -0.5442
     24 C15        -5.5347   -1.4407    2.5199 C.3       1 <0>        -0.0689
     25 C16        -6.9806   -1.3581    3.0051 C.3       1 <0>        -0.1196
     26 C17        -7.8644   -2.1425    2.0279 C.3       1 <0>        -0.1217
     27 C18        -7.9098   -1.3808    0.7042 C.3       1 <0>        -0.0523
     28 H3          0.9873    2.1529   -0.3037 H         1 <0>         0.0697
     29 H4         -0.6170    2.0426   -1.0668 H         1 <0>         0.0664
     30 H5         -0.4804    2.1742    0.7031 H         1 <0>         0.0642
     31 H6          0.4018   -0.1827   -1.0219 H         1 <0>         0.0846
     32 H7          0.6938   -0.0471    0.7287 H         1 <0>         0.0927
     33 H8         -0.7965   -1.6402    2.3784 H         1 <0>         0.4127
     34 H9         -0.3026   -4.1625   -0.0222 H         1 <0>         0.1429
     35 H10        -0.3574   -6.5829    0.4190 H         1 <0>         0.1326
     36 H11        -1.8669   -5.8349    4.3462 H         1 <0>         0.1336
     37 H12        -1.8015   -3.4136    3.9114 H         1 <0>         0.1311
     38 H13        -0.3283   -8.0463    3.0336 H         1 <0>         0.3906
     39 H14        -5.1708   -2.4603    2.6468 H         1 <0>         0.0897
     40 H15        -4.9180   -0.7636    3.1110 H         1 <0>         0.0883
     41 H16        -7.0589   -1.7933    4.0013 H         1 <0>         0.0770
     42 H17        -7.2994   -0.3161    3.0331 H         1 <0>         0.0694
     43 H18        -7.4429   -3.1346    1.8666 H         1 <0>         0.0668
     44 H19        -8.8717   -2.2324    2.4347 H         1 <0>         0.0751
     45 H20        -8.4788   -0.4609    0.8382 H         1 <0>         0.0762
     46 H21        -8.3985   -1.9985   -0.0493 H         1 <0>         0.0798
@<TRIPOS>BOND
     1    1    2 1
     2    1   28 1
     3    1   29 1
     4    1   30 1
     5    2    3 1
     6    2   31 1
     7    2   32 1
     8    3    4 1
     9    3    5 1
    10    3   15 1
    11    5    6 2
    12    5    7 am
    13    7    8 1
    14    7   33 1
    15    8   13 ar
    16    8    9 ar
    17    9   10 ar
    18    9   34 1
    19   10   11 ar
    20   10   35 1
    21   11   12 ar
    22   11   14 1
    23   12   13 ar
    24   12   36 1
    25   13   37 1
    26   14   38 1
    27   15   16 1
    28   16   23 2
    29   16   17 1
    30   17   18 1
    31   17   19 am
    32   19   20 2
    33   19   21 1
    34   21   27 1
    35   21   22 2
    36   22   23 1
    37   22   24 1
    38   24   25 1
    39   24   39 1
    40   24   40 1
    41   25   26 1
    42   25   41 1
    43   25   42 1
    44   26   27 1
    45   26   43 1
    46   26   44 1
    47   27   45 1
    48   27   46 1
@<TRIPOS>MOLECULE
ZINC56157494
   47    49     0     0     0
SMALL
USER_CHARGES

@<TRIPOS>ATOM
      1 C1         -0.1075    1.5063    0.0173 C.3       1 <0>        -0.1156
      2 C2         -0.0671   -0.0001    0.0068 C.ar      1 <0>        -0.0734
      3 C3         -0.6554   -0.6987   -1.0314 C.ar      1 <0>        -0.1073
      4 C4         -0.6207   -2.0796   -1.0450 C.ar      1 <0>        -0.1004
      5 C5          0.0062   -2.7673   -0.0150 C.ar      1 <0>         0.1110
      6 C6          0.5976   -2.0629    1.0278 C.ar      1 <0>         0.0721
      7 C7          0.5632   -0.6803    1.0324 C.ar      1 <0>        -0.1339
      8 F1          1.2085   -2.7279    2.0327 F         1 <0>        -0.1374
      9 N1          0.0425   -4.1672   -0.0260 N.am      1 <0>        -0.6638
     10 C8         -0.0554   -4.8348   -1.1927 C.2       1 <0>         0.5133
     11 O1         -0.0731   -4.2247   -2.2409 O.2       1 <0>        -0.5061
     12 C9         -0.1430   -6.3392   -1.1950 C.3       1 <0>         0.1381
     13 H1         -1.0256   -6.6526   -0.6373 H         1 <0>         0.1123
     14 C10         1.1092   -6.9240   -0.5386 C.3       1 <0>        -0.1700
     15 N2         -0.2410   -6.8206   -2.5751 N.pl3     1 <0>        -0.7279
     16 C11        -0.8391   -8.0539   -2.8438 C.ar      1 <0>         0.2462
     17 C12        -1.3466   -8.8225   -1.8030 C.ar      1 <0>        -0.2268
     18 C13        -1.9386  -10.0420   -2.0682 C.ar      1 <0>        -0.0429
     19 C14        -2.0278  -10.5020   -3.3682 C.ar      1 <0>        -0.2156
     20 C15        -1.5221   -9.7389   -4.4129 C.ar      1 <0>         0.2343
     21 C16        -0.9323   -8.5106   -4.1508 C.ar      1 <0>        -0.2270
     22 N3         -1.6125  -10.2060   -5.7290 N.am      1 <0>        -0.5698
     23 C17        -2.3165  -11.4251   -6.1540 C.3       1 <0>         0.0857
     24 C18        -2.1026  -11.4620   -7.6797 C.3       1 <0>         0.0909
     25 N4         -1.3008  -10.2598   -7.9523 N.am      1 <0>        -0.7368
     26 C19        -1.0764   -9.6105   -6.8024 C.2       1 <0>         0.6988
     27 O2         -0.4402   -8.5763   -6.7382 O.2       1 <0>        -0.5633
     28 H2          0.7660    1.8969   -0.5048 H         1 <0>         0.0751
     29 H3         -1.0132    1.8490   -0.4831 H         1 <0>         0.0715
     30 H4         -0.1045    1.8627    1.0474 H         1 <0>         0.0697
     31 H5         -1.1432   -0.1638   -1.8329 H         1 <0>         0.1343
     32 H6         -1.0813   -2.6237   -1.8563 H         1 <0>         0.1549
     33 H7          1.0253   -0.1316    1.8398 H         1 <0>         0.1403
     34 H8          0.1382   -4.6564    0.8061 H         1 <0>         0.4159
     35 H9          1.0458   -8.0122   -0.5402 H         1 <0>         0.0804
     36 H10         1.9918   -6.6106   -1.0962 H         1 <0>         0.0684
     37 H11         1.1821   -6.5658    0.4883 H         1 <0>         0.0699
     38 H12         0.1095   -6.2828   -3.3024 H         1 <0>         0.4117
     39 H13        -1.2778   -8.4660   -0.7858 H         1 <0>         0.1208
     40 H14        -2.3323  -10.6374   -1.2577 H         1 <0>         0.1264
     41 H15        -2.4909  -11.4561   -3.5721 H         1 <0>         0.1210
     42 H16        -0.5427   -7.9133   -4.9619 H         1 <0>         0.1574
     43 H17        -1.8760  -12.3046   -5.6845 H         1 <0>         0.0929
     44 H18        -3.3784  -11.3556   -5.9181 H         1 <0>         0.0928
     45 H19        -1.5559  -12.3599   -7.9678 H         1 <0>         0.0892
     46 H20        -3.0583  -11.4109   -8.2014 H         1 <0>         0.0889
     47 H21        -0.9877   -9.9793   -8.8265 H         1 <0>         0.4342
@<TRIPOS>BOND
     1    1    2 1
     2    1   28 1
     3    1   29 1
     4    1   30 1
     5    2    7 ar
     6    2    3 ar
     7    3    4 ar
     8    3   31 1
     9    4    5 ar
    10    4   32 1
    11    5    6 ar
    12    5    9 1
    13    6    7 ar
    14    6    8 1
    15    7   33 1
    16    9   10 am
    17    9   34 1
    18   10   11 2
    19   10   12 1
    20   12   13 1
    21   12   14 1
    22   12   15 1
    23   14   35 1
    24   14   36 1
    25   14   37 1
    26   15   16 1
    27   15   38 1
    28   16   21 ar
    29   16   17 ar
    30   17   18 ar
    31   17   39 1
    32   18   19 ar
    33   18   40 1
    34   19   20 ar
    35   19   41 1
    36   20   21 ar
    37   20   22 1
    38   21   42 1
    39   22   26 am
    40   22   23 1
    41   23   24 1
    42   23   43 1
    43   23   44 1
    44   24   25 1
    45   24   45 1
    46   24   46 1
    47   25   26 am
    48   25   47 1
    49   26   27 2
@<TRIPOS>MOLECULE
ZINC04808649
   38    41     0     0     0
SMALL
USER_CHARGES

@<TRIPOS>ATOM
      1 C1         -0.0184    1.5028    0.0103 C.3       1 <0>        -0.0807
      2 C2          0.0021   -0.0041    0.0020 C.2       1 <0>         0.1266
      3 C3          0.0080   -0.8130   -1.1263 C.2       1 <0>        -0.2732
      4 C4          0.0268   -2.1161   -0.7131 C.2       1 <0>         0.2864
      5 N1          0.0337   -2.1161    0.6295 N.pl3     1 <0>        -0.4453
      6 H1          0.0476   -2.9000    1.2006 H         1 <0>         0.4472
      7 N2          0.0231   -0.7800    1.0597 N.2       1 <0>        -0.2626
      8 O1          0.0338   -3.1590   -1.5801 O.3       1 <0>        -0.2292
      9 C5         -0.2546   -2.8995   -2.8716 C.2       1 <0>         0.4517
     10 C6         -0.2911   -1.6557   -3.3990 C.2       1 <0>        -0.2689
     11 C7         -0.0023   -0.4214   -2.5814 C.3       1 <0>         0.1661
     12 H2         -0.7779    0.3243   -2.7561 H         1 <0>         0.1210
     13 C8          1.3415    0.1419   -2.9658 C.2       1 <0>         0.0122
     14 C9          1.5670    1.3840   -3.4366 C.2       1 <0>        -0.2025
     15 C10         2.9533    1.4931   -3.6661 C.2       1 <0>        -0.1770
     16 C11         3.5029    0.2990   -3.3190 C.2       1 <0>         0.0151
     17 O2          2.5140   -0.5089   -2.8906 O.3       1 <0>        -0.1469
     18 C12         4.9370   -0.0500   -3.3934 C.ar      1 <0>        -0.0088
     19 C13         5.6578    0.1924   -4.5640 C.ar      1 <0>        -0.0833
     20 C14         6.9961   -0.1357   -4.6269 C.ar      1 <0>        -0.1139
     21 C15         7.6251   -0.7041   -3.5331 C.ar      1 <0>        -0.0984
     22 C16         6.9176   -0.9478   -2.3698 C.ar      1 <0>        -0.1118
     23 C17         5.5787   -0.6186   -2.2908 C.ar      1 <0>        -0.0193
     24 Cl1         4.6939   -0.9173   -0.8274 Cl        1 <0>        -0.0530
     25 C18        -0.6150   -1.5041   -4.7856 C.1       1 <0>         0.2703
     26 N3         -0.8720   -1.3838   -5.8856 N.1       1 <0>        -0.4345
     27 N4         -0.5274   -3.9605   -3.6987 N.pl3     1 <0>        -0.8282
     28 H3          1.0042    1.8801    0.0026 H         1 <0>         0.0854
     29 H4         -0.5455    1.8639   -0.8728 H         1 <0>         0.0843
     30 H5         -0.5286    1.8543    0.9071 H         1 <0>         0.0806
     31 H6          0.8257    2.1508   -3.6064 H         1 <0>         0.1519
     32 H7          3.4777    2.3579   -4.0449 H         1 <0>         0.1498
     33 H8          5.1685    0.6356   -5.4188 H         1 <0>         0.1377
     34 H9          7.5545    0.0511   -5.5323 H         1 <0>         0.1361
     35 H10         8.6731   -0.9589   -3.5881 H         1 <0>         0.1362
     36 H11         7.4144   -1.3920   -1.5199 H         1 <0>         0.1378
     37 H12        -0.5093   -4.8652   -3.3492 H         1 <0>         0.4125
     38 H13        -0.7383   -3.8056   -4.6328 H         1 <0>         0.4287
@<TRIPOS>BOND
     1    1    2 1
     2    1   28 1
     3    1   29 1
     4    1   30 1
     5    2    7 2
     6    2    3 1
     7    3   11 1
     8    3    4 2
     9    4    5 1
    10    4    8 1
    11    5    6 1
    12    5    7 1
    13    8    9 1
    14    9   10 2
    15    9   27 1
    16   10   11 1
    17   10   25 1
    18   11   12 1
    19   11   13 1
    20   13   17 1
    21   13   14 2
    22   14   15 1
    23   14   31 1
    24   15   16 2
    25   15   32 1
    26   16   17 1
    27   16   18 1
    28   18   23 ar
    29   18   19 ar
    30   19   20 ar
    31   19   33 1
    32   20   21 ar
    33   20   34 1
    34   21   22 ar
    35   21   35 1
    36   22   23 ar
    37   22   36 1
    38   23   24 1
    39   25   26 3
    40   27   37 1
    41   27   38 1
@<TRIPOS>MOLECULE
ZINC09644530
   51    54     0     0     0
SMALL
USER_CHARGES
2-[[4-amino-5-(2-thienyl)-1,2,4-triazol-3-yl]sulfanyl]-N-(2,5-dimethylphenyl)-2-phenyl-acetamide
@<TRIPOS>ATOM
      1 C1         -8.2863    4.3647    1.2686 C.3       1 <0>        -0.1143
      2 C2         -7.9732    3.2233    0.3358 C.ar      1 <0>        -0.0702
      3 C3         -8.9446    2.7506   -0.5278 C.ar      1 <0>        -0.1325
      4 C4         -8.6612    1.7038   -1.3854 C.ar      1 <0>        -0.0959
      5 C5         -7.4044    1.1305   -1.3862 C.ar      1 <0>        -0.1194
      6 C6         -6.4288    1.5989   -0.5163 C.ar      1 <0>         0.1492
      7 C7         -6.7167    2.6506    0.3440 C.ar      1 <0>        -0.1260
      8 N1         -5.1565    1.0165   -0.5104 N.am      1 <0>        -0.6553
      9 C8         -4.0920    1.7271   -0.0882 C.2       1 <0>         0.5443
     10 O1         -4.2184    2.9004    0.1916 O.2       1 <0>        -0.4970
     11 C9         -2.7446    1.0637    0.0364 C.3       1 <0>        -0.0776
     12 H1         -2.5929    0.3883   -0.8056 H         1 <0>         0.1328
     13 C10        -2.6864    0.2825    1.3238 C.ar      1 <0>        -0.0950
     14 C11        -2.8471    0.9313    2.5338 C.ar      1 <0>        -0.0957
     15 C12        -2.7981    0.2141    3.7145 C.ar      1 <0>        -0.1231
     16 C13        -2.5792   -1.1506    3.6857 C.ar      1 <0>        -0.1062
     17 C14        -2.4133   -1.7985    2.4759 C.ar      1 <0>        -0.1203
     18 C15        -2.4666   -1.0820    1.2950 C.ar      1 <0>        -0.0678
     19 S1         -1.4481    2.3267    0.0379 S.3       1 <0>         0.1251
     20 C16        -0.0181    1.2973    0.0385 C.2       1 <0>         0.1798
     21 N2         -0.0040   -0.0162    0.0375 N.2       1 <0>        -0.2717
     22 N3          1.2070   -0.4459    0.0329 N.2       1 <0>        -0.2394
     23 C17         2.0433    0.5687    0.0306 C.2       1 <0>         0.2335
     24 N4          1.2831    1.7172    0.0342 N.pl3     1 <0>        -0.3036
     25 N5          1.7348    3.0064    0.0331 N.3       1 <0>        -0.5806
     26 C18         3.5131    0.4918    0.0253 C.2       1 <0>        -0.1097
     27 C19         4.3217   -0.5824   -0.2483 C.2       1 <0>        -0.0896
     28 C20         5.6869   -0.4122   -0.1946 C.2       1 <0>        -0.1573
     29 C21         6.1900    0.8049    0.1372 C.2       1 <0>        -0.1411
     30 S2          4.7080    1.7698    0.3807 S.3       1 <0>         0.0484
     31 C22        -7.0945   -0.0064   -2.3256 C.3       1 <0>        -0.1163
     32 H2         -8.0520    5.3095    0.7781 H         1 <0>         0.0723
     33 H3         -9.3449    4.3425    1.5275 H         1 <0>         0.0673
     34 H4         -7.6885    4.2678    2.1749 H         1 <0>         0.0666
     35 H5         -9.9267    3.1999   -0.5320 H         1 <0>         0.1234
     36 H6         -9.4217    1.3372   -2.0589 H         1 <0>         0.1268
     37 H7         -5.9585    3.0204    1.0184 H         1 <0>         0.1454
     38 H8         -5.0407    0.1013   -0.8103 H         1 <0>         0.4142
     39 H9         -3.0144    1.9980    2.5565 H         1 <0>         0.1271
     40 H10        -2.9280    0.7203    4.6596 H         1 <0>         0.1242
     41 H11        -2.5382   -1.7105    4.6083 H         1 <0>         0.1228
     42 H12        -2.2423   -2.8647    2.4534 H         1 <0>         0.1253
     43 H13        -2.3370   -1.5882    0.3499 H         1 <0>         0.1276
     44 H14         1.8580    3.3471    0.9748 H         1 <0>         0.3700
     45 H15         2.5897    3.0895   -0.4963 H         1 <0>         0.3772
     46 H16         3.8958   -1.5414   -0.5040 H         1 <0>         0.1493
     47 H17         6.3495   -1.2376   -0.4092 H         1 <0>         0.1486
     48 H18         7.2217    1.1104    0.2303 H         1 <0>         0.1970
     49 H19        -7.3310   -0.9534   -1.8406 H         1 <0>         0.0720
     50 H20        -7.6922    0.0974   -3.2312 H         1 <0>         0.0733
     51 H21        -6.0359    0.0147   -2.5847 H         1 <0>         0.0618
@<TRIPOS>BOND
     1    1    2 1
     2    1   32 1
     3    1   33 1
     4    1   34 1
     5    2    7 ar
     6    2    3 ar
     7    3    4 ar
     8    3   35 1
     9    4    5 ar
    10    4   36 1
    11    5    6 ar
    12    5   31 1
    13    6    7 ar
    14    6    8 1
    15    7   37 1
    16    8    9 am
    17    8   38 1
    18    9   10 2
    19    9   11 1
    20   11   12 1
    21   11   13 1
    22   11   19 1
    23   13   18 ar
    24   13   14 ar
    25   14   15 ar
    26   14   39 1
    27   15   16 ar
    28   15   40 1
    29   16   17 ar
    30   16   41 1
    31   17   18 ar
    32   17   42 1
    33   18   43 1
    34   19   20 1
    35   20   24 1
    36   20   21 2
    37   21   22 1
    38   22   23 2
    39   23   24 1
    40   23   26 1
    41   24   25 1
    42   25   44 1
    43   25   45 1
    44   26   30 1
    45   26   27 2
    46   27   28 1
    47   27   46 1
    48   28   29 2
    49   28   47 1
    50   29   30 1
    51   29   48 1
    52   31   49 1
    53   31   50 1
    54   31   51 1
@<TRIPOS>MOLECULE
ZINC20990151
   62    64     0     0     0
SMALL
USER_CHARGES
(2R)-2-[[4-amino-5-(4-tert-butylphenyl)-1,2,4-triazol-3-yl]sulfanyl]-N-[(1S,2R)-2-methylcyclohexyl]propanamide
@<TRIPOS>ATOM
      1 C1         -1.4333   -0.5336    0.0129 C.3       1 <0>        -0.1500
      2 C2          0.0021   -0.0041    0.0020 C.3       1 <0>        -0.0975
      3 H1          0.5342   -0.3686    0.8931 H         1 <0>         0.0862
      4 C3         -0.0187    1.5258    0.0104 C.3       1 <0>        -0.1151
      5 C4          1.4167    2.0553   -0.0004 C.3       1 <0>        -0.1226
      6 C5          2.1328    1.5619   -1.2592 C.3       1 <0>        -0.1182
      7 C6          2.1536    0.0321   -1.2676 C.3       1 <0>        -0.1317
      8 C7          0.7182   -0.4975   -1.2568 C.3       1 <0>         0.1554
      9 H2          0.7103   -1.5966   -1.3013 H         1 <0>         0.0891
     10 N1          0.0097   -0.0122   -2.4437 N.am      1 <0>        -0.7238
     11 C8          0.1105   -0.6813   -3.6092 C.2       1 <0>         0.5333
     12 O1          0.7878   -1.6851   -3.6756 O.2       1 <0>        -0.5299
     13 C9         -0.6184   -0.1821   -4.8301 C.3       1 <0>        -0.1090
     14 H3         -1.4769    0.3688   -4.4184 H         1 <0>         0.1225
     15 C10         0.2317    0.8776   -5.5339 C.3       1 <0>        -0.1486
     16 S1         -0.9182   -1.5634   -5.9607 S.3       1 <0>         0.0873
     17 C11        -1.8868   -0.7500   -7.1874 C.2       1 <0>         0.1197
     18 N2         -2.2396    0.5162   -7.1893 N.2       1 <0>        -0.2761
     19 N3         -2.9431    0.7767   -8.2327 N.2       1 <0>        -0.2561
     20 C12        -3.0827   -0.3065   -8.9609 C.2       1 <0>         0.1993
     21 N4         -2.4059   -1.3163   -8.3165 N.pl3     1 <0>        -0.2072
     22 N5         -2.2810   -2.6151   -8.7208 N.3       1 <0>        -0.7665
     23 C13        -3.8233   -0.4190  -10.2355 C.ar      1 <0>        -0.0126
     24 C14        -4.1523   -1.6755  -10.7464 C.ar      1 <0>        -0.1141
     25 C15        -4.8481   -1.7733  -11.9336 C.ar      1 <0>        -0.1128
     26 C16        -5.2101   -0.6297  -12.6231 C.ar      1 <0>        -0.0555
     27 C17        -4.8820    0.6188  -12.1250 C.ar      1 <0>        -0.1069
     28 C18        -4.1914    0.7307  -10.9360 C.ar      1 <0>        -0.0724
     29 C19        -5.9654   -0.7443  -13.9221 C.3       1 <0>        -0.0316
     30 C20        -5.1505   -0.0987  -15.0446 C.3       1 <0>        -0.1421
     31 C21        -6.2004   -2.2209  -14.2468 C.3       1 <0>        -0.1486
     32 C22        -7.3122   -0.0297  -13.7937 C.3       1 <0>        -0.1424
     33 H4         -1.9481   -0.1788    0.9180 H         1 <0>         0.0586
     34 H5         -1.4184   -1.6335    0.0068 H         1 <0>         0.0567
     35 H6         -1.9653   -0.1692   -0.8782 H         1 <0>         0.0559
     36 H7         -0.5507    1.8901   -0.8808 H         1 <0>         0.0600
     37 H8         -0.5336    1.8806    0.9154 H         1 <0>         0.0686
     38 H9          1.4018    3.1552    0.0057 H         1 <0>         0.0638
     39 H10         1.9487    1.6909    0.8908 H         1 <0>         0.0640
     40 H11         1.6007    1.9263   -2.1503 H         1 <0>         0.0619
     41 H12         3.1648    1.9427   -1.2671 H         1 <0>         0.0624
     42 H13         2.6685   -0.3226   -2.1726 H         1 <0>         0.0683
     43 H14         2.6856   -0.3323   -0.3764 H         1 <0>         0.0724
     44 H15        -0.6046    0.8983   -2.3836 H         1 <0>         0.4192
     45 H16        -0.3004    1.2419   -6.4250 H         1 <0>         0.0917
     46 H17         1.1927    0.4356   -5.8358 H         1 <0>         0.0685
     47 H18         0.4139    1.7171   -4.8468 H         1 <0>         0.0712
     48 H19        -2.7512   -2.9470   -9.6582 H         1 <0>         0.4441
     49 H20        -1.7102   -3.3291   -8.1089 H         1 <0>         0.4446
     50 H21        -3.8664   -2.5691  -10.2114 H         1 <0>         0.1214
     51 H22        -5.1072   -2.7448  -12.3278 H         1 <0>         0.1354
     52 H23        -5.1675    1.5076  -12.6681 H         1 <0>         0.1316
     53 H24        -3.9366    1.7059  -10.5479 H         1 <0>         0.1385
     54 H25        -5.7019   -0.1824  -15.9927 H         1 <0>         0.0618
     55 H26        -4.1822   -0.6125  -15.1369 H         1 <0>         0.0577
     56 H27        -4.9815    0.9629  -14.8111 H         1 <0>         0.0593
     57 H28        -6.7517   -2.3046  -15.1950 H         1 <0>         0.0617
     58 H29        -6.7863   -2.6850  -13.4398 H         1 <0>         0.0601
     59 H30        -5.2321   -2.7346  -14.3391 H         1 <0>         0.0599
     60 H31        -7.8635   -0.1134  -14.7419 H         1 <0>         0.0617
     61 H32        -7.1432    1.0319  -13.5602 H         1 <0>         0.0595
     62 H33        -7.8981   -0.4939  -12.9867 H         1 <0>         0.0580
@<TRIPOS>BOND
     1    1    2 1
     2    1   33 1
     3    1   34 1
     4    1   35 1
     5    2    3 1
     6    2    8 1
     7    2    4 1
     8    4    5 1
     9    4   36 1
    10    4   37 1
    11    5    6 1
    12    5   38 1
    13    5   39 1
    14    6    7 1
    15    6   40 1
    16    6   41 1
    17    7    8 1
    18    7   42 1
    19    7   43 1
    20    8    9 1
    21    8   10 1
    22   10   11 am
    23   10   44 1
    24   11   12 2
    25   11   13 1
    26   13   14 1
    27   13   15 1
    28   13   16 1
    29   15   45 1
    30   15   46 1
    31   15   47 1
    32   16   17 1
    33   17   21 1
    34   17   18 2
    35   18   19 1
    36   19   20 2
    37   20   21 1
    38   20   23 1
    39   21   22 1
    40   22   48 1
    41   22   49 1
    42   23   28 ar
    43   23   24 ar
    44   24   25 ar
    45   24   50 1
    46   25   26 ar
    47   25   51 1
    48   26   27 ar
    49   26   29 1
    50   27   28 ar
    51   27   52 1
    52   28   53 1
    53   29   30 1
    54   29   31 1
    55   29   32 1
    56   30   54 1
    57   30   55 1
    58   30   56 1
    59   31   57 1
    60   31   58 1
    61   31   59 1
    62   32   60 1
    63   32   61 1
    64   32   62 1
@<TRIPOS>MOLECULE
ZINC36214118
   55    57     0     0     0
SMALL
USER_CHARGES

@<TRIPOS>ATOM
      1 C1         -1.9676    0.7565    0.3145 C.3       1 <0>        -0.1483
      2 C2         -1.4971   -0.6955    0.2088 C.3       1 <0>        -0.0864
      3 H1         -2.3600   -1.3524    0.0993 H         1 <0>         0.0774
      4 C3         -0.5760   -0.8502   -1.0050 C.3       1 <0>        -0.1148
      5 C4         -0.3021   -2.3320   -1.2621 C.3       1 <0>        -0.0714
      6 C5          0.2026   -2.9733    0.0280 C.2       1 <0>        -0.0795
      7 C6         -0.0063   -2.3727    1.2208 C.2       1 <0>        -0.1527
      8 S1          0.7334   -3.4498    2.4229 S.3       1 <0>         0.1251
      9 C7          1.3220   -4.7017    1.3288 C.ar      1 <0>         0.1449
     10 C8          0.9204   -4.2380    0.0507 C.ar      1 <0>        -0.2499
     11 C9          1.2597   -5.0528   -1.0681 C.ar      1 <0>         0.5059
     12 N1          1.9237   -6.1728   -0.7932 N.ar      1 <0>        -0.6012
     13 C10         2.2681   -6.5460    0.4303 C.ar      1 <0>         0.3416
     14 N2          1.9795   -5.8283    1.5186 N.ar      1 <0>        -0.4737
     15 S2          3.1464   -8.0603    0.6310 S.3       1 <0>         0.0940
     16 C11         3.3205   -8.6940   -1.0598 C.3       1 <0>        -0.1141
     17 H2          3.7962   -7.9376   -1.6841 H         1 <0>         0.1239
     18 C12         1.9380   -9.0260   -1.6249 C.3       1 <0>        -0.1431
     19 C13         4.1693   -9.9391   -1.0446 C.2       1 <0>         0.5386
     20 O1          4.2393  -10.6131   -0.0388 O.2       1 <0>        -0.5031
     21 N3          4.8507  -10.3037   -2.1488 N.am      1 <0>        -0.7141
     22 C14         5.6758  -11.5141   -2.1341 C.3       1 <0>         0.2849
     23 C15         6.7570  -11.3813   -1.0597 C.3       1 <0>        -0.1704
     24 C16         4.8295  -12.6813   -1.8370 C.1       1 <0>         0.2000
     25 N4          4.1764  -13.5820   -1.6076 N.1       1 <0>        -0.4050
     26 C17         6.3361  -11.6979   -3.5020 C.3       1 <0>        -0.0933
     27 C18         7.3110  -10.5466   -3.7566 C.3       1 <0>        -0.1522
     28 C19         7.0967  -13.0252   -3.5270 C.3       1 <0>        -0.1541
     29 N5          0.9190   -4.7010   -2.3615 N.pl3     1 <0>        -0.8269
     30 C20        -0.7162   -1.0774    1.4741 C.3       1 <0>        -0.0359
     31 H3         -1.1032    1.4115    0.4239 H         1 <0>         0.0581
     32 H4         -2.5166    1.0272   -0.5874 H         1 <0>         0.0597
     33 H5         -2.6181    0.8655    1.1823 H         1 <0>         0.0592
     34 H6         -1.0547   -0.4129   -1.8811 H         1 <0>         0.0741
     35 H7          0.3656   -0.3357   -0.8131 H         1 <0>         0.0696
     36 H8         -1.2220   -2.8237   -1.5785 H         1 <0>         0.0807
     37 H9          0.4543   -2.4336   -2.0404 H         1 <0>         0.0787
     38 H10         1.4624   -9.7824   -1.0006 H         1 <0>         0.0703
     39 H11         1.3241   -8.1254   -1.6359 H         1 <0>         0.0898
     40 H12         2.0427   -9.4068   -2.6408 H         1 <0>         0.0688
     41 H13         4.7948   -9.7646   -2.9533 H         1 <0>         0.4115
     42 H14         6.2866  -11.2503   -0.0852 H         1 <0>         0.0874
     43 H15         7.3709  -12.2819   -1.0487 H         1 <0>         0.0791
     44 H16         7.3837  -10.5170   -1.2797 H         1 <0>         0.0844
     45 H17         5.5700  -11.7035   -4.2774 H         1 <0>         0.0873
     46 H18         7.7814  -10.6775   -4.7311 H         1 <0>         0.0687
     47 H19         6.7691   -9.6010   -3.7388 H         1 <0>         0.0597
     48 H20         8.0771  -10.5409   -2.9812 H         1 <0>         0.0699
     49 H21         6.4022  -13.8455   -3.3456 H         1 <0>         0.0571
     50 H22         7.5671  -13.1562   -4.5015 H         1 <0>         0.0714
     51 H23         7.8628  -13.0196   -2.7516 H         1 <0>         0.0685
     52 H24         1.3602   -5.1280   -3.1125 H         1 <0>         0.4098
     53 H25         0.2389   -4.0272   -2.5178 H         1 <0>         0.4165
     54 H26         0.0136   -0.3007    1.7024 H         1 <0>         0.0877
     55 H27        -1.4066   -1.1922    2.3098 H         1 <0>         0.0860
@<TRIPOS>BOND
     1    1    2 1
     2    1   31 1
     3    1   32 1
     4    1   33 1
     5    2    3 1
     6    2   30 1
     7    2    4 1
     8    4    5 1
     9    4   34 1
    10    4   35 1
    11    5    6 1
    12    5   36 1
    13    5   37 1
    14    6   10 1
    15    6    7 2
    16    7    8 1
    17    7   30 1
    18    8    9 1
    19    9   14 ar
    20    9   10 ar
    21   10   11 ar
    22   11   12 ar
    23   11   29 1
    24   12   13 ar
    25   13   14 ar
    26   13   15 1
    27   15   16 1
    28   16   17 1
    29   16   18 1
    30   16   19 1
    31   18   38 1
    32   18   39 1
    33   18   40 1
    34   19   20 2
    35   19   21 am
    36   21   22 1
    37   21   41 1
    38   22   23 1
    39   22   24 1
    40   22   26 1
    41   23   42 1
    42   23   43 1
    43   23   44 1
    44   24   25 3
    45   26   27 1
    46   26   28 1
    47   26   45 1
    48   27   46 1
    49   27   47 1
    50   27   48 1
    51   28   49 1
    52   28   50 1
    53   28   51 1
    54   29   52 1
    55   29   53 1
    56   30   54 1
    57   30   55 1
@<TRIPOS>MOLECULE
ZINC45326786
   46    48     0     0     0
SMALL
USER_CHARGES

@<TRIPOS>ATOM
      1 C1          0.6796    1.5464   -1.5180 C.3       1 <0>        -0.1352
      2 C2          0.6111    0.2102   -0.8246 C.2       1 <0>         0.1835
      3 C3         -0.5259   -0.1531   -0.1943 C.2       1 <0>        -0.2591
      4 C4         -0.5521   -1.5048    0.4901 C.3       1 <0>         0.2218
      5 H1         -0.7808   -1.3436    1.5436 H         1 <0>         0.1086
      6 N1          0.6740   -2.3166    0.4107 N.pl3     1 <0>        -0.6464
      7 C5          1.7324   -1.8162   -0.2569 C.2       1 <0>         0.5567
      8 S1          3.1643   -2.7491   -0.3578 S.2       1 <0>        -0.5865
      9 N2          1.6985   -0.6156   -0.8488 N.pl3     1 <0>        -0.5995
     10 C6         -1.6790   -2.3067   -0.1083 C.ar      1 <0>        -0.0870
     11 C7         -1.5178   -2.9038   -1.3460 C.ar      1 <0>        -0.1090
     12 C8         -2.5452   -3.6393   -1.8996 C.ar      1 <0>        -0.0500
     13 C9         -3.7498   -3.7805   -1.2079 C.ar      1 <0>        -0.1127
     14 C10        -3.9056   -3.1753    0.0408 C.ar      1 <0>        -0.0550
     15 C11        -2.8681   -2.4473    0.5852 C.ar      1 <0>        -0.1102
     16 C12        -4.8546   -4.5662   -1.7946 C.2       1 <0>         0.5047
     17 O1         -4.7162   -5.0912   -2.8812 O.2       1 <0>        -0.4978
     18 O2         -6.0156   -4.7006   -1.1246 O.3       1 <0>        -0.3484
     19 C13        -7.0407   -5.4739   -1.7516 C.3       1 <0>         0.0338
     20 C14        -1.6560    0.7003   -0.1730 C.2       1 <0>         0.5979
     21 O3         -1.9200    1.3361    0.8314 O.2       1 <0>        -0.4995
     22 N3         -2.4392    0.8087   -1.2645 N.am      1 <0>        -0.6650
     23 C15        -3.4853    1.7371   -1.2853 C.ar      1 <0>         0.1562
     24 C16        -4.2323    1.9693   -0.1377 C.ar      1 <0>        -0.1097
     25 C17        -5.2642    2.8869   -0.1610 C.ar      1 <0>        -0.0718
     26 C18        -5.5541    3.5745   -1.3261 C.ar      1 <0>        -0.1021
     27 C19        -4.8119    3.3449   -2.4710 C.ar      1 <0>        -0.0716
     28 C20        -3.7751    2.4326   -2.4519 C.ar      1 <0>        -0.1356
     29 Br1        -6.9678    4.8301   -1.3540 Br        1 <0>        -0.0469
     30 H2          1.6623    1.6695   -1.9732 H         1 <0>         0.0892
     31 H3         -0.0874    1.5944   -2.2909 H         1 <0>         0.0970
     32 H4          0.5136    2.3418   -0.7914 H         1 <0>         0.1005
     33 H5          0.7188   -3.1905    0.8292 H         1 <0>         0.4493
     34 H6          2.4921   -0.3138   -1.3178 H         1 <0>         0.4427
     35 H7         -0.5856   -2.7935   -1.8802 H         1 <0>         0.1282
     36 H8         -2.4182   -4.1045   -2.8659 H         1 <0>         0.1428
     37 H9         -4.8350   -3.2803    0.5809 H         1 <0>         0.1449
     38 H10        -2.9857   -1.9824    1.5528 H         1 <0>         0.1375
     39 H11        -6.6796   -6.4888   -1.9182 H         1 <0>         0.0635
     40 H12        -7.9197   -5.5022   -1.1076 H         1 <0>         0.1064
     41 H13        -7.3047   -5.0208   -2.7071 H         1 <0>         0.0633
     42 H14        -2.2775    0.2429   -2.0356 H         1 <0>         0.4137
     43 H15        -4.0067    1.4326    0.7720 H         1 <0>         0.1459
     44 H16        -5.8457    3.0676    0.7310 H         1 <0>         0.1376
     45 H17        -5.0408    3.8825   -3.3792 H         1 <0>         0.1381
     46 H18        -3.1932    2.2570   -3.3447 H         1 <0>         0.1353
@<TRIPOS>BOND
     1    1    2 1
     2    1   30 1
     3    1   31 1
     4    1   32 1
     5    2    9 1
     6    2    3 2
     7    3    4 1
     8    3   20 1
     9    4    5 1
    10    4    6 1
    11    4   10 1
    12    6    7 1
    13    6   33 1
    14    7    8 2
    15    7    9 1
    16    9   34 1
    17   10   15 ar
    18   10   11 ar
    19   11   12 ar
    20   11   35 1
    21   12   13 ar
    22   12   36 1
    23   13   14 ar
    24   13   16 1
    25   14   15 ar
    26   14   37 1
    27   15   38 1
    28   16   17 2
    29   16   18 1
    30   18   19 1
    31   19   39 1
    32   19   40 1
    33   19   41 1
    34   20   21 2
    35   20   22 am
    36   22   23 1
    37   22   42 1
    38   23   28 ar
    39   23   24 ar
    40   24   25 ar
    41   24   43 1
    42   25   26 ar
    43   25   44 1
    44   26   27 ar
    45   26   29 1
    46   27   28 ar
    47   27   45 1
    48   28   46 1
@<TRIPOS>MOLECULE
ZINC59384960
   51    53     0     0     0
SMALL
USER_CHARGES

@<TRIPOS>ATOM
      1 C1         -0.7849   -1.6157   -2.4341 C.3       1 <0>        -0.1326
      2 C2         -0.1877   -1.5452   -1.0523 C.2       1 <0>         0.1789
      3 C3         -0.9159   -1.0288   -0.0397 C.2       1 <0>        -0.2479
      4 C4         -0.2774   -0.9767    1.3334 C.3       1 <0>         0.2213
      5 H1         -0.2717    0.0625    1.6622 H         1 <0>         0.1135
      6 N1          1.0950   -1.4976    1.4513 N.pl3     1 <0>        -0.6475
      7 C5          1.6939   -1.9832    0.3459 C.2       1 <0>         0.5573
      8 S1          3.2893   -2.5919    0.4680 S.2       1 <0>        -0.5878
      9 N2          1.0797   -2.0101   -0.8436 N.pl3     1 <0>        -0.5983
     10 C6         -1.1519   -1.7551    2.2822 C.ar      1 <0>        -0.1119
     11 C7         -0.9117   -3.0992    2.4986 C.ar      1 <0>        -0.0773
     12 C8         -1.7133   -3.8137    3.3686 C.ar      1 <0>        -0.1023
     13 C9         -2.7567   -3.1838    4.0240 C.ar      1 <0>        -0.0151
     14 C10        -2.9972   -1.8390    3.8083 C.ar      1 <0>        -0.0987
     15 C11        -2.1914   -1.1232    2.9409 C.ar      1 <0>        -0.0129
     16 Cl1        -2.4888    0.5662    2.6741 Cl        1 <0>        -0.0264
     17 Cl2        -3.7639   -4.0816    5.1164 Cl        1 <0>        -0.0468
     18 C12        -2.2320   -0.5514   -0.2537 C.2       1 <0>         0.6097
     19 O1         -2.4405    0.6462   -0.3299 O.2       1 <0>        -0.4765
     20 N3         -3.2537   -1.4222   -0.3730 N.am      1 <0>        -0.5771
     21 N4         -4.5371   -0.9574   -0.6885 N.2       1 <0>        -0.2386
     22 C13        -5.4999   -1.8023   -0.8990 C.2       1 <0>         0.1293
     23 C14        -6.8213   -1.3193   -1.3384 C.ar      1 <0>        -0.1244
     24 C15        -7.0380    0.0475   -1.5345 C.ar      1 <0>        -0.0226
     25 C16        -8.2741    0.4951   -1.9456 C.ar      1 <0>        -0.2064
     26 C17        -9.3061   -0.4111   -2.1652 C.ar      1 <0>         0.2353
     27 C18        -9.0943   -1.7720   -1.9711 C.ar      1 <0>        -0.2074
     28 C19        -7.8591   -2.2276   -1.5656 C.ar      1 <0>        -0.0356
     29 N5        -10.5568    0.0460   -2.5806 N.pl3     1 <0>        -0.6334
     30 C20       -10.7489    1.4619   -2.9040 C.3       1 <0>         0.0884
     31 C21       -11.6783   -0.8898   -2.6935 C.3       1 <0>         0.0856
     32 H2         -0.0639   -2.0614   -3.1192 H         1 <0>         0.0888
     33 H3         -1.6877   -2.2260   -2.4090 H         1 <0>         0.0948
     34 H4         -1.0352   -0.6105   -2.7734 H         1 <0>         0.1017
     35 H5          1.5571   -1.4910    2.3041 H         1 <0>         0.4493
     36 H6          1.5634   -2.3762   -1.6005 H         1 <0>         0.4428
     37 H7         -0.0975   -3.5912    1.9873 H         1 <0>         0.1389
     38 H8         -1.5256   -4.8639    3.5367 H         1 <0>         0.1456
     39 H9         -3.8114   -1.3470    4.3196 H         1 <0>         0.1491
     40 H10        -3.1004   -2.3708   -0.2404 H         1 <0>         0.3813
     41 H11        -5.3326   -2.8591   -0.7523 H         1 <0>         0.1142
     42 H12        -6.2373    0.7518   -1.3635 H         1 <0>         0.1344
     43 H13        -8.4423    1.5511   -2.0973 H         1 <0>         0.1267
     44 H14        -9.8980   -2.4727   -2.1422 H         1 <0>         0.1285
     45 H15        -7.6942   -3.2848   -1.4191 H         1 <0>         0.1267
     46 H16       -10.5408    1.6245   -3.9615 H         1 <0>         0.0517
     47 H17       -11.7784    1.7475   -2.6881 H         1 <0>         0.0685
     48 H18       -10.0703    2.0671   -2.3029 H         1 <0>         0.0719
     49 H19       -11.3725   -1.8694   -2.3261 H         1 <0>         0.0796
     50 H20       -12.5170   -0.5250   -2.1006 H         1 <0>         0.0589
     51 H21       -11.9798   -0.9713   -3.7378 H         1 <0>         0.0549
@<TRIPOS>BOND
     1    1    2 1
     2    1   32 1
     3    1   33 1
     4    1   34 1
     5    2    9 1
     6    2    3 2
     7    3    4 1
     8    3   18 1
     9    4    5 1
    10    4    6 1
    11    4   10 1
    12    6    7 1
    13    6   35 1
    14    7    8 2
    15    7    9 1
    16    9   36 1
    17   10   15 ar
    18   10   11 ar
    19   11   12 ar
    20   11   37 1
    21   12   13 ar
    22   12   38 1
    23   13   14 ar
    24   13   17 1
    25   14   15 ar
    26   14   39 1
    27   15   16 1
    28   18   19 2
    29   18   20 am
    30   20   21 1
    31   20   40 1
    32   21   22 2
    33   22   23 1
    34   22   41 1
    35   23   28 ar
    36   23   24 ar
    37   24   25 ar
    38   24   42 1
    39   25   26 ar
    40   25   43 1
    41   26   27 ar
    42   26   29 1
    43   27   28 ar
    44   27   44 1
    45   28   45 1
    46   29   30 1
    47   29   31 1
    48   30   46 1
    49   30   47 1
    50   30   48 1
    51   31   49 1
    52   31   50 1
    53   31   51 1
@<TRIPOS>MOLECULE
ZINC04769189
   46    49     0     0     0
SMALL
USER_CHARGES
2-(2-amino-6-benzylsulfanyl-purin-9-yl)-5-(hydroxymethyl)tetrahydrofuran-3,4-diol
@<TRIPOS>ATOM
      1 C1          0.2702    9.6263    0.0387 C.ar      1 <0>        -0.1130
      2 C2          0.5846    8.9981    1.2292 C.ar      1 <0>        -0.1192
      3 C3          1.1788    7.7501    1.2164 C.ar      1 <0>        -0.1014
      4 C4          1.4591    7.1304    0.0129 C.ar      1 <0>        -0.0827
      5 C5          1.1499    7.7610   -1.1777 C.ar      1 <0>        -0.1012
      6 C6          0.5505    9.0065   -1.1648 C.ar      1 <0>        -0.1190
      7 C7          2.1073    5.7700   -0.0011 C.3       1 <0>        -0.0737
      8 S1          0.8265    4.4912    0.0127 S.3       1 <0>         0.0166
      9 C8          1.8358    3.0470   -0.0068 C.ar      1 <0>         0.2608
     10 C9          1.2563    1.7654   -0.0035 C.ar      1 <0>        -0.0909
     11 C10         2.1086    0.6496   -0.0200 C.ar      1 <0>         0.3663
     12 N1          3.4247    0.8395   -0.0381 N.ar      1 <0>        -0.5721
     13 C11         3.9285    2.0629   -0.0405 C.ar      1 <0>         0.6029
     14 N2          3.1610    3.1452   -0.0253 N.ar      1 <0>        -0.5744
     15 N3          5.3048    2.2192   -0.0590 N.pl3     1 <0>        -0.8178
     16 N4          1.2908   -0.4519   -0.0127 N.pl3     1 <0>        -0.4794
     17 C12         0.0021   -0.0041    0.0075 C.2       1 <0>         0.2507
     18 N5         -0.0155    1.2968    0.0128 N.2       1 <0>        -0.4467
     19 C13         1.7221   -1.8520   -0.0239 C.3       1 <0>         0.3105
     20 H1          2.5499   -1.9877   -0.7198 H         1 <0>         0.1482
     21 C14         2.1345   -2.2990    1.3961 C.3       1 <0>         0.0804
     22 H2          2.9487   -3.0221    1.3475 H         1 <0>         0.1049
     23 C15         0.8589   -2.9576    1.9676 C.3       1 <0>         0.0466
     24 H3          0.5165   -2.4220    2.8531 H         1 <0>         0.0916
     25 C16        -0.1732   -2.8305    0.8253 C.3       1 <0>         0.0282
     26 H4         -0.7847   -1.9389    0.9639 H         1 <0>         0.0963
     27 O1          0.6191   -2.7150   -0.3767 O.3       1 <0>        -0.3256
     28 C17        -1.0557   -4.0788    0.7636 C.3       1 <0>         0.0801
     29 O2         -2.0756   -3.8930   -0.2200 O.3       1 <0>        -0.5638
     30 O3          1.1006   -4.3316    2.2773 O.3       1 <0>        -0.5484
     31 O4          2.5122   -1.1701    2.1866 O.3       1 <0>        -0.5341
     32 H5         -0.1947   10.6010    0.0487 H         1 <0>         0.1239
     33 H6          0.3657    9.4823    2.1695 H         1 <0>         0.1251
     34 H7          1.4245    7.2594    2.1466 H         1 <0>         0.1249
     35 H8          1.3729    7.2787   -2.1180 H         1 <0>         0.1252
     36 H9          0.3045    9.4971   -2.0950 H         1 <0>         0.1253
     37 H10         2.7401    5.6600    0.8796 H         1 <0>         0.1044
     38 H11         2.7147    5.6662   -0.9002 H         1 <0>         0.1045
     39 H12         5.8814    1.4393   -0.0700 H         1 <0>         0.4150
     40 H13         5.6919    3.1086   -0.0611 H         1 <0>         0.4159
     41 H14        -0.8736   -0.6360    0.0175 H         1 <0>         0.2201
     42 H15        -0.4461   -4.9419    0.4963 H         1 <0>         0.0698
     43 H16        -1.5162   -4.2468    1.7372 H         1 <0>         0.0642
     44 H17        -2.6738   -4.6469   -0.3136 H         1 <0>         0.3879
     45 H18         0.3325   -4.7940    2.6398 H         1 <0>         0.3851
     46 H19         2.7806   -1.3934    3.0883 H         1 <0>         0.3882
@<TRIPOS>BOND
     1    1    6 ar
     2    1    2 ar
     3    1   32 1
     4    2    3 ar
     5    2   33 1
     6    3    4 ar
     7    3   34 1
     8    4    5 ar
     9    4    7 1
    10    5    6 ar
    11    5   35 1
    12    6   36 1
    13    7    8 1
    14    7   37 1
    15    7   38 1
    16    8    9 1
    17    9   14 ar
    18    9   10 ar
    19   10   18 1
    20   10   11 ar
    21   11   12 ar
    22   11   16 1
    23   12   13 ar
    24   13   14 ar
    25   13   15 1
    26   15   39 1
    27   15   40 1
    28   16   17 1
    29   16   19 1
    30   17   18 2
    31   17   41 1
    32   19   20 1
    33   19   27 1
    34   19   21 1
    35   21   22 1
    36   21   23 1
    37   21   31 1
    38   23   24 1
    39   23   25 1
    40   23   30 1
    41   25   26 1
    42   25   27 1
    43   25   28 1
    44   28   29 1
    45   28   42 1
    46   28   43 1
    47   29   44 1
    48   30   45 1
    49   31   46 1
@<TRIPOS>MOLECULE
ZINC14710225
   52    54     0     0     0
SMALL
USER_CHARGES
(1S,2S)-1-[(2S,3R)-2-(4-hydroxy-3-methoxy-phenyl)-3-(hydroxymethyl)-7-methoxy-2,3-dihydrobenzofuran-5-yl]propane-1,2,3-triol
@<TRIPOS>ATOM
      1 C1         -1.3617    5.8328    0.0468 C.3       1 <0>         0.0233
      2 O1         -0.0782    5.2047    0.0312 O.3       1 <0>        -0.3058
      3 C2         -0.0563    3.8450    0.0232 C.ar      1 <0>         0.1046
      4 C3         -1.2440    3.1313    0.0308 C.ar      1 <0>        -0.1792
      5 C4         -1.2200    1.7492    0.0174 C.ar      1 <0>        -0.0793
      6 C5         -0.0126    1.0758    0.0080 C.ar      1 <0>        -0.1144
      7 C6          1.1760    1.7817    0.0004 C.ar      1 <0>        -0.1038
      8 C7          1.1590    3.1672    0.0080 C.ar      1 <0>         0.0830
      9 O2          2.3273    3.8632    0.0010 O.3       1 <0>        -0.4855
     10 C8         -2.5128    0.9747    0.0193 C.3       1 <0>         0.1308
     11 H1         -3.3263    1.5831   -0.3757 H         1 <0>         0.1282
     12 C9         -2.8445    0.4654    1.4419 C.3       1 <0>        -0.0684
     13 H2         -2.3754    1.0931    2.1996 H         1 <0>         0.1102
     14 C10        -2.2298   -0.9209    1.4301 C.ar      1 <0>        -0.1179
     15 C11        -1.9136   -1.8008    2.4434 C.ar      1 <0>        -0.0785
     16 C12        -1.3305   -3.0194    2.1465 C.ar      1 <0>        -0.1008
     17 C13        -1.0655   -3.3522    0.8308 C.ar      1 <0>        -0.1488
     18 C14        -1.3847   -2.4736   -0.1890 C.ar      1 <0>         0.1146
     19 C15        -1.9778   -1.2431    0.1048 C.ar      1 <0>         0.0762
     20 O3         -2.3775   -0.2443   -0.7310 O.3       1 <0>        -0.2785
     21 O4         -1.1209   -2.8084   -1.4804 O.3       1 <0>        -0.3097
     22 C16        -0.5136   -4.0815   -1.7094 C.3       1 <0>         0.0245
     23 C17        -0.9846   -3.9814    3.2537 C.3       1 <0>         0.1242
     24 H3         -0.9246   -3.4414    4.1987 H         1 <0>         0.1218
     25 C18        -2.0666   -5.0588    3.3499 C.3       1 <0>         0.0814
     26 H4         -3.0094   -4.6012    3.6496 H         1 <0>         0.1167
     27 C19        -1.6544   -6.1043    4.3881 C.3       1 <0>         0.0483
     28 O5         -2.7149   -7.0462    4.5625 O.3       1 <0>        -0.5657
     29 O6         -2.2262   -5.6885    2.0771 O.3       1 <0>        -0.5394
     30 O7          0.2754   -4.5952    2.9751 O.3       1 <0>        -0.5464
     31 C20        -4.3575    0.3907    1.6568 C.3       1 <0>         0.0901
     32 O8         -4.6288    0.0300    3.0127 O.3       1 <0>        -0.5669
     33 H5         -1.9222    5.5360   -0.8397 H         1 <0>         0.0567
     34 H6         -1.9055    5.5259    0.9402 H         1 <0>         0.0567
     35 H7         -1.2363    6.9156    0.0518 H         1 <0>         0.1033
     36 H8         -2.1885    3.6549    0.0426 H         1 <0>         0.1361
     37 H9          0.0021   -0.0041    0.0020 H         1 <0>         0.1274
     38 H10         2.1178    1.2533   -0.0111 H         1 <0>         0.1388
     39 H11         2.6571    4.0692   -0.8843 H         1 <0>         0.3889
     40 H12        -2.1212   -1.5381    3.4702 H         1 <0>         0.1315
     41 H13        -0.6075   -4.3022    0.5982 H         1 <0>         0.1325
     42 H14        -0.3580   -4.2227   -2.7789 H         1 <0>         0.1020
     43 H15         0.4458   -4.1244   -1.1938 H         1 <0>         0.0553
     44 H16        -1.1654   -4.8685   -1.3301 H         1 <0>         0.0577
     45 H17        -0.7598   -6.6239    4.0450 H         1 <0>         0.0558
     46 H18        -1.4466   -5.6112    5.3376 H         1 <0>         0.0573
     47 H19        -2.5226   -7.7399    5.2082 H         1 <0>         0.3816
     48 H20        -1.4248   -6.1176    1.7473 H         1 <0>         0.3647
     49 H21         0.2952   -5.0942    2.1470 H         1 <0>         0.3705
     50 H22        -4.8033    1.3622    1.4432 H         1 <0>         0.0558
     51 H23        -4.7828   -0.3588    0.9894 H         1 <0>         0.0540
     52 H24        -5.5707   -0.0362    3.2211 H         1 <0>         0.3845
@<TRIPOS>BOND
     1    1    2 1
     2    1   33 1
     3    1   34 1
     4    1   35 1
     5    2    3 1
     6    3    8 ar
     7    3    4 ar
     8    4    5 ar
     9    4   36 1
    10    5    6 ar
    11    5   10 1
    12    6    7 ar
    13    6   37 1
    14    7    8 ar
    15    7   38 1
    16    8    9 1
    17    9   39 1
    18   10   11 1
    19   10   20 1
    20   10   12 1
    21   12   13 1
    22   12   14 1
    23   12   31 1
    24   14   19 ar
    25   14   15 ar
    26   15   16 ar
    27   15   40 1
    28   16   17 ar
    29   16   23 1
    30   17   18 ar
    31   17   41 1
    32   18   19 ar
    33   18   21 1
    34   19   20 1
    35   21   22 1
    36   22   42 1
    37   22   43 1
    38   22   44 1
    39   23   24 1
    40   23   25 1
    41   23   30 1
    42   25   26 1
    43   25   27 1
    44   25   29 1
    45   27   28 1
    46   27   45 1
    47   27   46 1
    48   28   47 1
    49   29   48 1
    50   30   49 1
    51   31   32 1
    52   31   50 1
    53   31   51 1
    54   32   52 1
@<TRIPOS>MOLECULE
ZINC03520924
   44    45     0     0     0
SMALL
USER_CHARGES
ethyl 2-[[2-[(5-amino-1H-1,2,4-triazol-3-yl)sulfanyl]acetyl]amino]-4-methyl-5-(methylcarbamoyl)thiophene-3-carboxylate
@<TRIPOS>ATOM
      1 C1          1.4178    1.9774   -0.0009 C.3       1 <0>        -0.1557
      2 C2         -0.0176    1.4478    0.0100 C.3       1 <0>         0.0562
      3 O1          0.0021   -0.0041    0.0020 O.3       1 <0>        -0.3487
      4 C3         -1.1909   -0.6325    0.0100 C.2       1 <0>         0.5336
      5 O2         -2.2195    0.0158    0.0233 O.2       1 <0>        -0.4895
      6 C4         -1.2478   -2.0986    0.0027 C.2       1 <0>        -0.2225
      7 C5         -1.2589   -2.8218    1.1861 C.2       1 <0>         0.0259
      8 C6         -1.3176   -4.1859    1.0967 C.2       1 <0>        -0.2941
      9 S1         -1.3450   -4.4630   -0.6642 S.3       1 <0>         0.2858
     10 C7         -1.2868   -2.8150   -1.1982 C.2       1 <0>         0.1116
     11 N1         -1.2800   -2.3290   -2.4910 N.am      1 <0>        -0.6244
     12 C8         -1.3229   -3.1834   -3.5325 C.2       1 <0>         0.5370
     13 O3         -1.3673   -4.3790   -3.3344 O.2       1 <0>        -0.4775
     14 C9         -1.3155   -2.6531   -4.9430 C.3       1 <0>        -0.1622
     15 S2         -1.3801   -4.0398   -6.1107 S.3       1 <0>         0.1136
     16 C10        -1.3649   -3.2654   -7.6934 C.2       1 <0>         0.2152
     17 N2         -1.3952   -3.9010   -8.8704 N.2       1 <0>        -0.5672
     18 C11        -1.3751   -3.0213   -9.8489 C.2       1 <0>         0.5392
     19 N3         -1.3220   -1.7893   -9.3011 N.pl3     1 <0>        -0.5235
     20 H1         -1.2932   -0.9004   -9.9484 H         1 <0>         0.4649
     21 N4         -1.3164   -1.9727   -7.9090 N.2       1 <0>        -0.3234
     22 N5         -1.3987   -3.3091  -11.2014 N.pl3     1 <0>        -0.8502
     23 C12        -1.3452   -5.1728    2.1782 C.2       1 <0>         0.6120
     24 O4         -1.3196   -4.8052    3.3384 O.2       1 <0>        -0.5266
     25 N6         -1.3990   -6.4881    1.8891 N.am      1 <0>        -0.7400
     26 C13        -1.4266   -7.4754    2.9711 C.3       1 <0>         0.0890
     27 C14        -1.2135   -2.1293    2.5237 C.3       1 <0>        -0.1390
     28 H2          1.4029    3.0773    0.0052 H         1 <0>         0.0832
     29 H3          1.9326    1.6227   -0.9059 H         1 <0>         0.0675
     30 H4          1.9498    1.6130    0.8902 H         1 <0>         0.0694
     31 H5         -0.5324    1.8025    0.9150 H         1 <0>         0.0743
     32 H6         -0.5497    1.8122   -0.8811 H         1 <0>         0.0723
     33 H7         -1.2396   -1.2445   -2.6707 H         1 <0>         0.4533
     34 H8         -2.1907   -2.0043   -5.0954 H         1 <0>         0.1335
     35 H9         -0.3958   -2.0738   -5.1121 H         1 <0>         0.1336
     36 H10        -1.3783   -2.4924  -11.9379 H         1 <0>         0.4342
     37 H11        -1.4379   -4.3548  -11.5406 H         1 <0>         0.4510
     38 H12        -1.4222   -6.8203    0.8407 H         1 <0>         0.4211
     39 H13        -1.4700   -8.4876    2.5428 H         1 <0>         0.0795
     40 H14        -2.3127   -7.3051    3.6003 H         1 <0>         0.0624
     41 H15        -0.5178   -7.3747    3.5826 H         1 <0>         0.0624
     42 H16        -1.2311   -2.8811    3.3265 H         1 <0>         0.1150
     43 H17        -2.0856   -1.4662    2.6231 H         1 <0>         0.0739
     44 H18        -0.2908   -1.5351    2.5978 H         1 <0>         0.0742
@<TRIPOS>BOND
     1    1    2 1
     2    1   28 1
     3    1   29 1
     4    1   30 1
     5    2    3 1
     6    2   31 1
     7    2   32 1
     8    3    4 1
     9    4    5 2
    10    4    6 1
    11    6   10 2
    12    6    7 1
    13    7    8 2
    14    7   27 1
    15    8    9 1
    16    8   23 1
    17    9   10 1
    18   10   11 1
    19   11   12 am
    20   11   33 1
    21   12   13 2
    22   12   14 1
    23   14   15 1
    24   14   34 1
    25   14   35 1
    26   15   16 1
    27   16   21 2
    28   16   17 1
    29   17   18 2
    30   18   19 1
    31   18   22 1
    32   19   20 1
    33   19   21 1
    34   22   36 1
    35   22   37 1
    36   23   24 2
    37   23   25 am
    38   25   26 1
    39   25   38 1
    40   26   39 1
    41   26   40 1
    42   26   41 1
    43   27   42 1
    44   27   43 1
    45   27   44 1
@<TRIPOS>MOLECULE
ZINC44167952
   56    57     0     0     0
SMALL
USER_CHARGES

@<TRIPOS>ATOM
      1 C1         -0.0187    1.5258    0.0104 C.3       1 <0>        -0.1531
      2 C2          0.0021   -0.0041    0.0020 C.3       1 <0>        -0.1218
      3 C3          0.7182   -0.4975   -1.2568 C.3       1 <0>        -0.1324
      4 C4          0.7390   -2.0273   -1.2652 C.3       1 <0>         0.1229
      5 N1          1.4247   -2.4998   -2.4705 N.am      1 <0>        -0.7367
      6 C5          1.5637   -3.8219   -2.6922 C.2       1 <0>         0.5520
      7 O1          1.1201   -4.6225   -1.8919 O.2       1 <0>        -0.4945
      8 C6          2.2543   -4.2977   -3.9061 C.ar      1 <0>        -0.1697
      9 C7          2.7707   -3.3812   -4.8255 C.ar      1 <0>        -0.0568
     10 C8          3.4150   -3.8320   -5.9569 C.ar      1 <0>        -0.1643
     11 C9          3.5535   -5.1911   -6.1878 C.ar      1 <0>        -0.0550
     12 C10         3.0479   -6.1075   -5.2876 C.ar      1 <0>        -0.1977
     13 C11         2.4011   -5.6715   -4.1406 C.ar      1 <0>         0.1859
     14 O2          1.9084   -6.5708   -3.2526 O.3       1 <0>        -0.2628
     15 C12         2.0957   -7.9540   -3.5585 C.3       1 <0>         0.2323
     16 H1          3.1557   -8.1505   -3.7194 H         1 <0>         0.1149
     17 C13         1.5895   -8.8078   -2.3929 C.3       1 <0>         0.1399
     18 H2          2.1152   -8.5267   -1.4803 H         1 <0>         0.1247
     19 C14         0.0870   -8.5710   -2.2116 C.3       1 <0>         0.1103
     20 H3         -0.2911   -9.2176   -1.4197 H         1 <0>         0.0749
     21 C15        -0.6319   -8.8953   -3.5248 C.3       1 <0>         0.0474
     22 H4         -0.4973   -9.9504   -3.7628 H         1 <0>         0.0676
     23 C16        -0.0398   -8.0382   -4.6467 C.3       1 <0>         0.0634
     24 H5         -0.2106   -6.9842   -4.4276 H         1 <0>         0.0917
     25 O3          1.3650   -8.2837   -4.7415 O.3       1 <0>        -0.3655
     26 C17        -0.7117   -8.3990   -5.9731 C.3       1 <0>         0.0821
     27 O4         -0.2438   -7.5205   -6.9984 O.3       1 <0>        -0.5568
     28 O5         -2.0256   -8.6103   -3.3892 O.3       1 <0>        -0.5520
     29 O6         -0.1430   -7.2043   -1.8635 O.3       1 <0>        -0.5098
     30 N2          1.8320  -10.2234   -2.6814 N.am      1 <0>        -0.7161
     31 C18         3.0284  -10.7741   -2.3953 C.2       1 <0>         0.5147
     32 O7          3.9042  -10.0977   -1.8990 O.2       1 <0>        -0.5350
     33 C19         3.2779  -12.2304   -2.6921 C.3       1 <0>        -0.1694
     34 H6          1.0039    1.9031    0.0027 H         1 <0>         0.0544
     35 H7         -0.5459    1.8868   -0.8726 H         1 <0>         0.0542
     36 H8         -0.5289    1.8773    0.9072 H         1 <0>         0.0560
     37 H9          0.5293   -0.3651    0.8851 H         1 <0>         0.0653
     38 H10        -1.0205   -0.3814    0.0098 H         1 <0>         0.0650
     39 H11         0.1910   -0.1364   -2.1398 H         1 <0>         0.0682
     40 H12         1.7408   -0.1202   -1.2645 H         1 <0>         0.0684
     41 H13         1.2661   -2.3884   -0.3821 H         1 <0>         0.0664
     42 H14        -0.2836   -2.4046   -1.2575 H         1 <0>         0.0662
     43 H15         1.7786   -1.8611   -3.1090 H         1 <0>         0.3952
     44 H16         2.6647   -2.3209   -4.6497 H         1 <0>         0.1288
     45 H17         3.8135   -3.1227   -6.6672 H         1 <0>         0.1284
     46 H18         4.0596   -5.5356   -7.0775 H         1 <0>         0.1277
     47 H19         3.1598   -7.1653   -5.4745 H         1 <0>         0.1372
     48 H20        -0.4666   -9.4279   -6.2364 H         1 <0>         0.0547
     49 H21        -1.7922   -8.2972   -5.8726 H         1 <0>         0.0595
     50 H22        -0.6287   -7.6916   -7.8689 H         1 <0>         0.3816
     51 H23        -2.5436   -8.7927   -4.1852 H         1 <0>         0.3833
     52 H24        -1.0754   -6.9832   -1.7331 H         1 <0>         0.3834
     53 H25         1.1315  -10.7644   -3.0783 H         1 <0>         0.4043
     54 H26         2.3829  -12.6700   -3.1324 H         1 <0>         0.0773
     55 H27         4.1091  -12.3215   -3.3913 H         1 <0>         0.0995
     56 H28         3.5221  -12.7530   -1.7673 H         1 <0>         0.0997
@<TRIPOS>BOND
     1    1    2 1
     2    1   34 1
     3    1   35 1
     4    1   36 1
     5    2    3 1
     6    2   37 1
     7    2   38 1
     8    3    4 1
     9    3   39 1
    10    3   40 1
    11    4    5 1
    12    4   41 1
    13    4   42 1
    14    5    6 am
    15    5   43 1
    16    6    7 2
    17    6    8 1
    18    8   13 ar
    19    8    9 ar
    20    9   10 ar
    21    9   44 1
    22   10   11 ar
    23   10   45 1
    24   11   12 ar
    25   11   46 1
    26   12   13 ar
    27   12   47 1
    28   13   14 1
    29   14   15 1
    30   15   16 1
    31   15   25 1
    32   15   17 1
    33   17   18 1
    34   17   19 1
    35   17   30 1
    36   19   20 1
    37   19   21 1
    38   19   29 1
    39   21   22 1
    40   21   23 1
    41   21   28 1
    42   23   24 1
    43   23   25 1
    44   23   26 1
    45   26   27 1
    46   26   48 1
    47   26   49 1
    48   27   50 1
    49   28   51 1
    50   29   52 1
    51   30   31 am
    52   30   53 1
    53   31   32 2
    54   31   33 1
    55   33   54 1
    56   33   55 1
    57   33   56 1
@<TRIPOS>MOLECULE
ZINC65044073
   46    49     0     0     0
SMALL
USER_CHARGES

@<TRIPOS>ATOM
      1 C1         -0.0541    1.2935    0.0841 C.ar      1 <0>        -0.1570
      2 C2          1.1051    2.0135    0.0611 C.ar      1 <0>         0.0077
      3 C3          2.3378    1.3488    0.0391 C.ar      1 <0>        -0.1221
      4 C4          3.6819    1.7931    0.0131 C.2       1 <0>        -0.0806
      5 C5          4.4807    0.6942   -0.0001 C.2       1 <0>         0.0156
      6 N1          3.6918   -0.4397    0.0166 N.pl3     1 <0>        -0.5587
      7 H1          4.0165   -1.3537    0.0121 H         1 <0>         0.4308
      8 C6          2.3707   -0.0597    0.0408 C.ar      1 <0>         0.1606
      9 C7          1.1750   -0.7717    0.0645 C.ar      1 <0>        -0.0696
     10 C8         -0.0243   -0.0952    0.0859 C.ar      1 <0>        -0.0012
     11 N2          1.1924   -2.2518    0.0663 N.pl3     1 <0>         0.0454
     12 O1          0.1527   -2.8686    0.0869 O.2       1 <0>        -0.1504
     13 O2          2.2462   -2.8440    0.0471 O.3       1 <0>        -0.1925
     14 C9          5.9510    0.7093   -0.0282 C.2       1 <0>         0.5856
     15 O3          6.5482    1.7690   -0.0412 O.2       1 <0>        -0.5001
     16 N3          6.6368   -0.4508   -0.0396 N.am      1 <0>        -0.7238
     17 C10         8.1014   -0.4358   -0.0676 C.3       1 <0>         0.2078
     18 C11         8.6052   -1.7245   -0.7132 C.3       1 <0>        -0.1325
     19 C12        10.1263   -1.7900   -0.5281 C.3       1 <0>        -0.1117
     20 C13        10.4177   -2.0174    0.9532 C.3       1 <0>        -0.1012
     21 C14         9.6766   -1.0160    1.8032 C.2       1 <0>         0.2129
     22 C15         8.6232   -0.3046    1.3398 C.2       1 <0>        -0.2164
     23 C16         7.9680    0.6030    2.1840 C.2       1 <0>         0.0706
     24 C17         8.4093    0.7690    3.4915 C.2       1 <0>        -0.2816
     25 C18         9.5225    0.0067    3.9314 C.2       1 <0>         0.5396
     26 O4          9.9382    0.1285    5.0707 O.2       1 <0>        -0.5432
     27 N4         10.1141   -0.8496    3.0839 N.am      1 <0>        -0.6026
     28 H2         10.8755   -1.3658    3.3918 H         1 <0>         0.4198
     29 C19         7.7378    1.7124    4.3983 C.2       1 <0>         0.5811
     30 O5          6.8538    2.4350    3.9784 O.2       1 <0>        -0.5493
     31 N5          8.1017    1.7763    5.6944 N.am      1 <0>        -0.8444
     32 H3         -1.0032    1.8083    0.1056 H         1 <0>         0.1532
     33 H4          1.0720    3.0930    0.0595 H         1 <0>         0.1501
     34 H5          4.0128    2.8211    0.0048 H         1 <0>         0.1721
     35 H6         -0.9509   -0.6498    0.1042 H         1 <0>         0.1609
     36 H7          6.1605   -1.2958   -0.0293 H         1 <0>         0.4016
     37 H8          8.4403    0.4164   -0.6568 H         1 <0>         0.1114
     38 H9          8.1387   -2.5839   -0.2316 H         1 <0>         0.0794
     39 H10         8.3639   -1.7221   -1.7762 H         1 <0>         0.0885
     40 H11        10.5327   -2.6147   -1.1135 H         1 <0>         0.0912
     41 H12        10.5768   -0.8517   -0.8516 H         1 <0>         0.0805
     42 H13        10.1052   -3.0243    1.2300 H         1 <0>         0.1041
     43 H14        11.4886   -1.9140    1.1283 H         1 <0>         0.0977
     44 H15         7.1245    1.1708    1.8199 H         1 <0>         0.1576
     45 H16         8.8546    1.2543    6.0131 H         1 <0>         0.4142
     46 H17         7.6107    2.3443    6.3086 H         1 <0>         0.3990
@<TRIPOS>BOND
     1    1   10 ar
     2    1    2 ar
     3    1   32 1
     4    2    3 ar
     5    2   33 1
     6    3    8 ar
     7    3    4 1
     8    4    5 2
     9    4   34 1
    10    5    6 1
    11    5   14 1
    12    6    7 1
    13    6    8 1
    14    8    9 ar
    15    9   10 ar
    16    9   11 1
    17   10   35 1
    18   11   12 2
    19   11   13 1
    20   14   15 2
    21   14   16 am
    22   16   17 1
    23   16   36 1
    24   17   22 1
    25   17   18 1
    26   17   37 1
    27   18   19 1
    28   18   38 1
    29   18   39 1
    30   19   20 1
    31   19   40 1
    32   19   41 1
    33   20   21 1
    34   20   42 1
    35   20   43 1
    36   21   27 1
    37   21   22 2
    38   22   23 1
    39   23   24 2
    40   23   44 1
    41   24   25 1
    42   24   29 1
    43   25   26 2
    44   25   27 am
    45   27   28 1
    46   29   30 2
    47   29   31 am
    48   31   45 1
    49   31   46 1
@<TRIPOS>MOLECULE
ZINC20420525
   36    36     0     0     0
SMALL
USER_CHARGES
(2S)-2-(4-amino-3,5-dimethyl-pyrazol-1-yl)-N-isopropyl-propanamide
@<TRIPOS>ATOM
      1 C1         -4.3501   -1.8116    1.4230 C.3       1 <0>        -0.0668
      2 C2         -3.7399   -0.6701    0.6513 C.2       1 <0>         0.0271
      3 C3         -4.2208   -0.1471   -0.5577 C.2       1 <0>         0.0836
      4 C4         -3.3986    0.8668   -0.9289 C.2       1 <0>        -0.0193
      5 N1         -2.4300    0.9773    0.0189 N.pl3     1 <0>        -0.3578
      6 N2         -2.6678   -0.0017    0.9922 N.2       1 <0>        -0.2474
      7 C5         -1.3296    1.9443    0.0189 C.3       1 <0>         0.1546
      8 H1         -1.4232    2.5531   -0.8925 H         1 <0>         0.1223
      9 C6         -1.4166    2.8159    1.2733 C.3       1 <0>        -0.1568
     10 C7         -0.0144    1.2086    0.0087 C.2       1 <0>         0.5044
     11 O1          0.0021   -0.0041    0.0020 O.2       1 <0>        -0.5119
     12 N3          1.1435    1.8983    0.0013 N.am      1 <0>        -0.7383
     13 C8          2.4220    1.1832   -0.0147 C.3       1 <0>         0.1402
     14 C9          3.4995    2.0784   -0.6299 C.3       1 <0>        -0.1602
     15 C10         2.8194    0.8168    1.4166 C.3       1 <0>        -0.1647
     16 C11        -3.5345    1.7158   -2.1666 C.3       1 <0>        -0.0777
     17 N4         -5.3548   -0.5949   -1.2618 N.pl3     1 <0>        -0.8933
     18 H2         -5.2433   -2.1756    0.8942 H         1 <0>         0.0696
     19 H3         -4.6345   -1.4646    2.4274 H         1 <0>         0.0720
     20 H4         -3.6179   -2.6278    1.5107 H         1 <0>         0.0728
     21 H5         -0.5903    3.5420    1.2733 H         1 <0>         0.0791
     22 H6         -1.3454    2.1794    2.1677 H         1 <0>         0.0771
     23 H7         -2.3766    3.3529    1.2808 H         1 <0>         0.0746
     24 H8          1.1285    2.9982    0.0073 H         1 <0>         0.4171
     25 H9          2.2789    0.2767   -0.6211 H         1 <0>         0.0855
     26 H10         4.4594    1.5414   -0.6419 H         1 <0>         0.0735
     27 H11         3.5999    2.9957   -0.0311 H         1 <0>         0.0629
     28 H12         3.2138    2.3417   -1.6590 H         1 <0>         0.0617
     29 H13         3.7794    0.2799    1.4045 H         1 <0>         0.0658
     30 H14         2.0447    0.1731    1.8588 H         1 <0>         0.0604
     31 H15         2.9198    1.7340    2.0155 H         1 <0>         0.0579
     32 H16        -2.7203    2.4548   -2.1955 H         1 <0>         0.0621
     33 H17        -4.5028    2.2375   -2.1489 H         1 <0>         0.0750
     34 H18        -3.4797    1.0747   -3.0588 H         1 <0>         0.0736
     35 H19        -5.6431   -0.1096   -2.2059 H         1 <0>         0.4094
     36 H20        -5.9525   -1.4301   -0.8678 H         1 <0>         0.4120
@<TRIPOS>BOND
     1    1    2 1
     2    1   18 1
     3    1   19 1
     4    1   20 1
     5    2    6 2
     6    2    3 1
     7    3    4 2
     8    3   17 1
     9    4    5 1
    10    4   16 1
    11    5    6 1
    12    5    7 1
    13    7    8 1
    14    7    9 1
    15    7   10 1
    16    9   21 1
    17    9   22 1
    18    9   23 1
    19   10   11 2
    20   10   12 am
    21   12   13 1
    22   12   24 1
    23   13   14 1
    24   13   15 1
    25   13   25 1
    26   14   26 1
    27   14   27 1
    28   14   28 1
    29   15   29 1
    30   15   30 1
    31   15   31 1
    32   16   32 1
    33   16   33 1
    34   16   34 1
    35   17   35 1
    36   17   36 1
@<TRIPOS>MOLECULE
ZINC39096203
   21    21     0     0     0
SMALL
USER_CHARGES

@<TRIPOS>ATOM
      1 C1         -0.0282    1.3928   -0.2283 C.ar      1 <0>        -0.0867
      2 C2          1.1750    2.0894   -0.0329 C.ar      1 <0>        -0.1268
      3 C3          2.3771    1.3741    0.1217 C.ar      1 <0>         0.1617
      4 C4          2.3646   -0.0088    0.0799 C.ar      1 <0>        -0.1638
      5 C5          1.1718   -0.6886   -0.1140 C.ar      1 <0>         0.1312
      6 C6         -0.0248    0.0158   -0.2676 C.ar      1 <0>         0.0750
      7 O1         -1.1904   -0.6602   -0.4565 O.3       1 <0>        -0.4859
      8 O2          1.1667   -2.0457   -0.1548 O.3       1 <0>        -0.4872
      9 O3          3.5451    2.0388    0.3106 O.3       1 <0>        -0.4873
     10 C7          1.1792    3.5504    0.0094 C.2       1 <0>         0.0694
     11 C8          0.0955    4.2286    0.5279 C.2       1 <0>        -0.0005
     12 C9          0.0349    5.6565    0.4387 C.1       1 <0>         0.2541
     13 N1         -0.0131    6.7893    0.3679 N.1       1 <0>        -0.3841
     14 C10        -0.9689    3.5046    1.1553 C.1       1 <0>         0.2465
     15 N2         -1.8132    2.9302    1.6530 N.1       1 <0>        -0.3818
     16 H1         -0.9550    1.9352   -0.3432 H         1 <0>         0.1442
     17 H2          3.2858   -0.5599    0.1983 H         1 <0>         0.1502
     18 H3         -1.4003   -0.8304   -1.3850 H         1 <0>         0.3973
     19 H4          1.0379   -2.4647    0.7072 H         1 <0>         0.4022
     20 H5          3.7564    2.2065    1.2392 H         1 <0>         0.4024
     21 H6          2.0307    4.0990   -0.3653 H         1 <0>         0.1698
@<TRIPOS>BOND
     1    1    6 ar
     2    1    2 ar
     3    1   16 1
     4    2    3 ar
     5    2   10 1
     6    3    4 ar
     7    3    9 1
     8    4    5 ar
     9    4   17 1
    10    5    6 ar
    11    5    8 1
    12    6    7 1
    13    7   18 1
    14    8   19 1
    15    9   20 1
    16   10   11 2
    17   10   21 1
    18   11   12 1
    19   11   14 1
    20   12   13 3
    21   14   15 3
@<TRIPOS>MOLECULE
ZINC43399762
   35    36     0     0     0
SMALL
USER_CHARGES

@<TRIPOS>ATOM
      1 C1         -0.0591    1.5157   -0.2952 C.3       1 <0>        -0.1087
      2 C2         -0.0150    0.0178   -0.1353 C.ar      1 <0>         0.1587
      3 C3          0.0107   -0.7847   -1.2608 C.ar      1 <0>        -0.1805
      4 C4          0.0512   -2.1613   -1.1154 C.ar      1 <0>        -0.0440
      5 C5          0.0649   -2.6925    0.1770 C.ar      1 <0>        -0.1162
      6 C6          0.0371   -1.8130    1.2703 C.ar      1 <0>         0.4515
      7 N1          0.0040   -0.5041    1.0761 N.ar      1 <0>        -0.4936
      8 N2          0.0500   -2.3177    2.5608 N.pl3     1 <0>        -0.6498
      9 C7          1.2480   -2.4983    3.4009 C.3       1 <0>         0.1455
     10 C8          0.7191   -2.4724    4.8566 C.3       1 <0>        -0.1312
     11 C9         -0.6353   -3.2149    4.7093 C.3       1 <0>        -0.1197
     12 C10        -1.1295   -2.7559    3.3214 C.3       1 <0>         0.1733
     13 H1         -1.6133   -3.5873    2.8087 H         1 <0>         0.0597
     14 C11        -2.1116   -1.5927    3.4743 C.3       1 <0>        -0.1616
     15 C12         0.1075   -4.1549    0.3887 C.2       1 <0>         0.4076
     16 N3          0.2270   -4.6349    1.5928 N.2       1 <0>        -0.3728
     17 O1          0.3751   -6.0297    1.7875 O.3       1 <0>        -0.4328
     18 N4          0.0202   -5.0141   -0.6938 N.pl3     1 <0>        -0.8730
     19 H2          0.9574    1.9068   -0.3369 H         1 <0>         0.0822
     20 H3         -0.5834    1.7674   -1.2171 H         1 <0>         0.0783
     21 H4         -0.5834    1.9563    0.5528 H         1 <0>         0.0796
     22 H5         -0.0013   -0.3416   -2.2456 H         1 <0>         0.1429
     23 H6          0.0715   -2.8085   -1.9797 H         1 <0>         0.1373
     24 H7          1.7209   -3.4566    3.1861 H         1 <0>         0.0579
     25 H8          1.9518   -1.6821    3.2383 H         1 <0>         0.0514
     26 H9          1.3896   -3.0118    5.5256 H         1 <0>         0.0761
     27 H10         0.5682   -1.4487    5.1993 H         1 <0>         0.0709
     28 H11        -0.4877   -4.2946    4.7325 H         1 <0>         0.0724
     29 H12        -1.3326   -2.9031    5.4869 H         1 <0>         0.0744
     30 H13        -2.4261   -1.2507    2.4883 H         1 <0>         0.0469
     31 H14        -2.9829   -1.9247    4.0388 H         1 <0>         0.0569
     32 H15        -1.6253   -0.7740    4.0048 H         1 <0>         0.0595
     33 H16         0.4565   -6.2909    2.7149 H         1 <0>         0.3986
     34 H17        -0.0689   -4.6564   -1.5910 H         1 <0>         0.3933
     35 H18         0.0481   -5.9737   -0.5548 H         1 <0>         0.4092
@<TRIPOS>BOND
     1    1    2 1
     2    1   19 1
     3    1   20 1
     4    1   21 1
     5    2    7 ar
     6    2    3 ar
     7    3    4 ar
     8    3   22 1
     9    4    5 ar
    10    4   23 1
    11    5    6 ar
    12    5   15 1
    13    6    7 ar
    14    6    8 1
    15    8   12 1
    16    8    9 1
    17    9   10 1
    18    9   24 1
    19    9   25 1
    20   10   11 1
    21   10   26 1
    22   10   27 1
    23   11   12 1
    24   11   28 1
    25   11   29 1
    26   12   13 1
    27   12   14 1
    28   14   30 1
    29   14   31 1
    30   14   32 1
    31   15   16 2
    32   15   18 1
    33   16   17 1
    34   17   33 1
    35   18   34 1
    36   18   35 1
@<TRIPOS>MOLECULE
ZINC49776717
   32    33     0     0     0
SMALL
NO_CHARGES

@<TRIPOS>ATOM
      1 C1         -0.0127    1.0858    0.0080 C.3       1 <0>        -0.0848
      2 C2         -0.7416    1.5850   -1.2129 C.2       1 <0>         0.2644
      3 N1         -1.2562    0.8001   -2.1063 N.2       1 <0>        -0.5799
      4 H1         -2.9454    1.4964   -3.1827 H         1 <0>         0.0964
      5 C3         -1.8713    1.6721   -3.1232 C.3       1 <0>         0.2798
      6 C4         -1.5842    3.0659   -2.5976 C.cat     1 <0>         0.0839
      7 N2         -0.9269    2.8820   -1.4796 N.pl3     1 <0>        -0.5605
      8 N3         -1.9376    4.2505   -3.1625 N.pl3     1 <0>        -0.7824
      9 N4         -1.2401    1.4671   -4.4337 N.3       1 <0>        -0.5178
     10 C5          0.2062    1.7156   -4.3660 C.3       1 <0>         0.0243
     11 C6         -1.5192    0.1195   -4.9474 C.3       1 <0>         0.0959
     12 C7         -1.0719    0.0267   -6.3835 C.ar      1 <0>        -0.0308
     13 C8         -1.9367    0.3484   -7.4184 C.ar      1 <0>        -0.1556
     14 C9         -1.4913    0.2513   -8.7231 C.ar      1 <0>         0.0963
     15 N5         -0.2608   -0.1420   -8.9883 N.ar      1 <0>        -0.4889
     16 C10         0.5886   -0.4558   -8.0297 C.ar      1 <0>         0.0967
     17 C11         0.2160   -0.3768   -6.7011 C.ar      1 <0>        -0.1686
     18 H2          0.0021   -0.0041    0.0020 H         1 <0>         0.0921
     19 H3          1.0099    1.4631    0.0003 H         1 <0>         0.0745
     20 H4         -0.5229    1.4373    0.9048 H         1 <0>         0.0757
     21 H5         -2.4310    4.2615   -3.9975 H         1 <0>         0.4186
     22 H6         -1.6964    5.0849   -2.7305 H         1 <0>         0.3950
     23 H7          0.6593    1.0311   -3.6489 H         1 <0>         0.0322
     24 H8          0.6485    1.5567   -5.3495 H         1 <0>         0.0647
     25 H9          0.3838    2.7434   -4.0495 H         1 <0>         0.0594
     26 H10        -0.9795   -0.6159   -4.3506 H         1 <0>         0.0589
     27 H11        -2.5894   -0.0781   -4.8867 H         1 <0>         0.0831
     28 H12        -2.9458    0.6704   -7.2077 H         1 <0>         0.1340
     29 H13        -2.1588    0.5000   -9.5349 H         1 <0>         0.1544
     30 H14         1.5884   -0.7742   -8.2856 H         1 <0>         0.1536
     31 H15         0.9178   -0.6304   -5.9204 H         1 <0>         0.1301
     32 H16        -0.6092    3.6024   -0.9130 H         1 <0>         0.4051
@<TRIPOS>BOND
     1    1   18 1
     2    1   19 1
     3    1   20 1
     4    1    2 1
     5    2    3 2
     6    2    7 1
     7    3    5 1
     8    4    5 1
     9    5    9 1
    10    5    6 1
    11    6    7 2
    12    6    8 1
    13    7   32 1
    14    8   21 1
    15    8   22 1
    16    9   10 1
    17    9   11 1
    18   10   23 1
    19   10   24 1
    20   10   25 1
    21   11   12 1
    22   11   26 1
    23   11   27 1
    24   12   17 ar
    25   12   13 ar
    26   13   14 ar
    27   13   28 1
    28   14   15 ar
    29   14   29 1
    30   15   16 ar
    31   16   17 ar
    32   16   30 1
    33   17   31 1
@<TRIPOS>MOLECULE
ZINC54397560
   30    31     0     0     0
SMALL
USER_CHARGES

@<TRIPOS>ATOM
      1 C1          0.0084    1.3543   -0.0908 C.ar      1 <0>         0.0389
      2 C2          0.5840    1.0140    1.1246 C.ar      1 <0>         0.1019
      3 N1          1.7470    0.3889    1.1604 N.ar      1 <0>        -0.4478
      4 C3          2.3714    0.0831    0.0293 C.ar      1 <0>         0.4337
      5 C4          1.7882    0.4279   -1.2019 C.ar      1 <0>         0.0287
      6 N2          0.6161    1.0574   -1.2218 N.ar      1 <0>        -0.4165
      7 C5          2.4719    0.0941   -2.4653 C.2       1 <0>         0.3818
      8 S1          3.9101   -0.8343   -2.4409 S.2       1 <0>        -0.4926
      9 N3          1.9646    0.5200   -3.6390 N.pl3     1 <0>        -0.7524
     10 N4          3.5898   -0.5711    0.0626 N.pl3     1 <0>        -0.6344
     11 C6          3.7798   -2.0279    0.1853 C.3       1 <0>         0.1637
     12 C7          5.1737   -2.2996   -0.4334 C.3       1 <0>        -0.1107
     13 C8          5.9688   -1.0503    0.0296 C.3       1 <0>        -0.1116
     14 C9          4.9097    0.0707   -0.0249 C.3       1 <0>         0.1814
     15 H1          4.9943    0.6179   -0.9637 H         1 <0>         0.0832
     16 C10         5.1039    1.0241    1.1558 C.3       1 <0>         0.0628
     17 O1          5.1325    0.2756    2.3728 O.3       1 <0>        -0.5547
     18 H2         -0.9450    1.8613   -0.1103 H         1 <0>         0.1802
     19 H3          0.0787    1.2618    2.0463 H         1 <0>         0.1775
     20 H4          1.1497    1.0460   -3.6528 H         1 <0>         0.4073
     21 H5          2.4143    0.3005   -4.4700 H         1 <0>         0.4219
     22 H6          3.7656   -2.3254    1.2338 H         1 <0>         0.0471
     23 H7          3.0077   -2.5593   -0.3712 H         1 <0>         0.0520
     24 H8          5.6099   -3.2126   -0.0281 H         1 <0>         0.0695
     25 H9          5.1163   -2.3452   -1.5210 H         1 <0>         0.0875
     26 H10         6.3414   -1.1848    1.0450 H         1 <0>         0.0810
     27 H11         6.7876   -0.8377   -0.6578 H         1 <0>         0.0711
     28 H12         6.0447    1.5618    1.0377 H         1 <0>         0.0472
     29 H13         4.2796    1.7367    1.1868 H         1 <0>         0.0309
     30 H14         5.2531    0.8171    3.1648 H         1 <0>         0.3715
@<TRIPOS>BOND
     1    1    6 ar
     2    1    2 ar
     3    1   18 1
     4    2    3 ar
     5    2   19 1
     6    3    4 ar
     7    4    5 ar
     8    4   10 1
     9    5    6 ar
    10    5    7 1
    11    7    8 2
    12    7    9 1
    13    9   20 1
    14    9   21 1
    15   10   14 1
    16   10   11 1
    17   11   12 1
    18   11   22 1
    19   11   23 1
    20   12   13 1
    21   12   24 1
    22   12   25 1
    23   13   14 1
    24   13   26 1
    25   13   27 1
    26   14   15 1
    27   14   16 1
    28   16   17 1
    29   16   28 1
    30   16   29 1
    31   17   30 1
@<TRIPOS>MOLECULE
ZINC03319400
   55    58     0     0     0
SMALL
USER_CHARGES
2-(methoxy-dioxo-BLAHyl)-N-(p-tolyl)propanamide
@<TRIPOS>ATOM
      1 C1         -1.9783   -6.1789    5.8333 C.3       1 <0>        -0.1146
      2 C2         -2.0383   -5.2235    4.6694 C.ar      1 <0>        -0.0983
      3 C3         -1.5014   -3.9548    4.7898 C.ar      1 <0>        -0.1029
      4 C4         -1.5548   -3.0769    3.7249 C.ar      1 <0>        -0.1143
      5 C5         -2.1488   -3.4692    2.5326 C.ar      1 <0>         0.1375
      6 C6         -2.6922   -4.7420    2.4168 C.ar      1 <0>        -0.1375
      7 C7         -2.6305   -5.6172    3.4835 C.ar      1 <0>        -0.1022
      8 N1         -2.2050   -2.5819    1.4521 N.am      1 <0>        -0.6679
      9 C8         -1.1909   -1.7216    1.2331 C.2       1 <0>         0.5087
     10 O1         -0.2695   -1.6577    2.0192 O.2       1 <0>        -0.4945
     11 C9         -1.2018   -0.8391    0.0116 C.3       1 <0>         0.1319
     12 H1         -2.0870   -0.2034    0.0306 H         1 <0>         0.1352
     13 C10        -1.2261   -1.7097   -1.2463 C.3       1 <0>        -0.1659
     14 N2          0.0005   -0.0021    0.0031 N.am      1 <0>        -0.5645
     15 C11        -0.0148    1.3466    0.0171 C.2       1 <0>         0.5370
     16 O2         -0.9882    2.0690    0.0342 O.2       1 <0>        -0.4545
     17 C12         1.4377    1.7683    0.0001 C.3       1 <0>         0.1805
     18 C13         1.7371    2.5800   -1.2537 C.3       1 <0>        -0.1176
     19 C14         3.1584    3.1447   -1.1389 C.3       1 <0>        -0.1147
     20 C15         3.1697    4.2047   -0.0394 C.3       1 <0>        -0.0882
     21 C16         2.5691    3.6608    1.2303 C.ar      1 <0>        -0.0079
     22 C17         1.7675    2.5392    1.2474 C.ar      1 <0>        -0.1321
     23 C18         1.2380    2.0897    2.4503 C.ar      1 <0>        -0.0519
     24 C19         1.5083    2.7526    3.6285 C.ar      1 <0>        -0.2069
     25 C20         2.3173    3.8794    3.6139 C.ar      1 <0>         0.1481
     26 C21         2.8442    4.3287    2.4148 C.ar      1 <0>        -0.1582
     27 O3          2.5909    4.5390    4.7702 O.3       1 <0>        -0.3138
     28 C22         2.0120    4.0166    5.9677 C.3       1 <0>         0.0250
     29 N3          2.1752    0.4976   -0.0234 N.am      1 <0>        -0.7140
     30 C23         1.2502   -0.4808   -0.0199 C.2       1 <0>         0.7108
     31 O4          1.5198   -1.6658   -0.0354 O.2       1 <0>        -0.5231
     32 H2         -2.8694   -6.0577    6.4491 H         1 <0>         0.0704
     33 H3         -1.9301   -7.2022    5.4612 H         1 <0>         0.0665
     34 H4         -1.0919   -5.9676    6.4314 H         1 <0>         0.0661
     35 H5         -1.0395   -3.6503    5.7173 H         1 <0>         0.1247
     36 H6         -1.1347   -2.0864    3.8194 H         1 <0>         0.1358
     37 H7         -3.1584   -5.0486    1.4922 H         1 <0>         0.1264
     38 H8         -3.0489   -6.6087    3.3926 H         1 <0>         0.1269
     39 H9         -2.9737   -2.5861    0.8606 H         1 <0>         0.4117
     40 H10        -0.3409   -2.3454   -1.2653 H         1 <0>         0.0861
     41 H11        -2.1206   -2.3325   -1.2400 H         1 <0>         0.0830
     42 H12        -1.2340   -1.0714   -2.1298 H         1 <0>         0.0785
     43 H13         1.6681    1.9372   -2.1314 H         1 <0>         0.0836
     44 H14         1.0209    3.3971   -1.3409 H         1 <0>         0.0945
     45 H15         3.8514    2.3434   -0.8823 H         1 <0>         0.0698
     46 H16         3.4509    3.5967   -2.0866 H         1 <0>         0.0845
     47 H17         4.1977    4.5121    0.1525 H         1 <0>         0.0864
     48 H18         2.5926    5.0690   -0.3681 H         1 <0>         0.0889
     49 H19         0.6081    1.2124    2.4626 H         1 <0>         0.1191
     50 H20         1.0917    2.3963    4.5591 H         1 <0>         0.1321
     51 H21         3.4739    5.2061    2.4014 H         1 <0>         0.1367
     52 H22         2.3091    4.6350    6.8147 H         1 <0>         0.1036
     53 H23         0.9257    4.0209    5.8780 H         1 <0>         0.0575
     54 H24         2.3596    2.9954    6.1238 H         1 <0>         0.0575
     55 H25         3.1386    0.3858   -0.0390 H         1 <0>         0.4403
@<TRIPOS>BOND
     1    1    2 1
     2    1   32 1
     3    1   33 1
     4    1   34 1
     5    2    7 ar
     6    2    3 ar
     7    3    4 ar
     8    3   35 1
     9    4    5 ar
    10    4   36 1
    11    5    6 ar
    12    5    8 1
    13    6    7 ar
    14    6   37 1
    15    7   38 1
    16    8    9 am
    17    8   39 1
    18    9   10 2
    19    9   11 1
    20   11   12 1
    21   11   13 1
    22   11   14 1
    23   13   40 1
    24   13   41 1
    25   13   42 1
    26   14   30 am
    27   14   15 am
    28   15   16 2
    29   15   17 1
    30   17   22 1
    31   17   18 1
    32   17   29 1
    33   18   19 1
    34   18   43 1
    35   18   44 1
    36   19   20 1
    37   19   45 1
    38   19   46 1
    39   20   21 1
    40   20   47 1
    41   20   48 1
    42   21   26 ar
    43   21   22 ar
    44   22   23 ar
    45   23   24 ar
    46   23   49 1
    47   24   25 ar
    48   24   50 1
    49   25   26 ar
    50   25   27 1
    51   26   51 1
    52   27   28 1
    53   28   52 1
    54   28   53 1
    55   28   54 1
    56   29   30 am
    57   29   55 1
    58   30   31 2
@<TRIPOS>MOLECULE
ZINC15730566
   45    48     0     0     0
SMALL
USER_CHARGES
(2S)-N-(3-isoxazol-5-ylphenyl)-2-methyl-4-oxo-3,5-dihydro-2H-1,5-benzothiazepine-7-sulfonamide
@<TRIPOS>ATOM
      1 C1         -1.3350    2.8213   -6.8246 C.3       1 <0>        -0.1447
      2 C2         -2.6520    2.1969   -6.3592 C.3       1 <0>        -0.0564
      3 H1         -3.3527    2.1436   -7.1924 H         1 <0>         0.1298
      4 C3         -2.3940    0.7865   -5.8014 C.3       1 <0>        -0.1507
      5 C4         -3.5434    0.3425   -4.9461 C.2       1 <0>         0.5322
      6 O1         -4.4736   -0.2443   -5.4577 O.2       1 <0>        -0.5139
      7 N1         -3.5622    0.5810   -3.6290 N.am      1 <0>        -0.6686
      8 C5         -2.6180    1.4445   -3.0526 C.ar      1 <0>         0.1534
      9 C6         -1.8793    1.0484   -1.9499 C.ar      1 <0>        -0.0313
     10 C7         -0.9538    1.9155   -1.3968 C.ar      1 <0>        -0.6425
     11 C8         -0.7560    3.1694   -1.9457 C.ar      1 <0>        -0.0266
     12 C9         -1.4873    3.5706   -3.0494 C.ar      1 <0>        -0.0699
     13 C10        -2.4194    2.7084   -3.6037 C.ar      1 <0>        -0.0750
     14 S1         -3.3681    3.1935   -5.0093 S.3       1 <0>        -0.1295
     15 S2         -0.0172    1.4168    0.0098 S.o2      1 <0>         2.6912
     16 O2          0.0021   -0.0041    0.0020 O.2       1 <0>        -0.9390
     17 O3          1.1718    2.1948    0.0027 O.2       1 <0>        -0.9387
     18 N2         -0.8720    1.8711    1.3534 N.pl3     1 <0>        -1.0527
     19 C11        -2.1137    1.2897    1.6209 C.ar      1 <0>         0.1428
     20 C12        -2.2775   -0.0858    1.5016 C.ar      1 <0>        -0.1397
     21 C13        -3.5038   -0.6657    1.7656 C.ar      1 <0>        -0.0914
     22 C14        -4.5742    0.1167    2.1496 C.ar      1 <0>        -0.0949
     23 C15        -4.4201    1.4984    2.2728 C.ar      1 <0>        -0.0050
     24 C16        -3.1813    2.0834    2.0110 C.ar      1 <0>        -0.1033
     25 C17        -5.5649    2.3386    2.6844 C.2       1 <0>         0.0076
     26 C18        -6.8336    1.9152    2.9729 C.2       1 <0>        -0.2140
     27 C19        -7.5185    3.1016    3.3068 C.2       1 <0>        -0.0063
     28 N3         -6.6589    4.0732    3.1887 N.2       1 <0>        -0.3597
     29 O4         -5.5707    3.6740    2.8450 O.3       1 <0>         0.1065
     30 H2         -0.6338    2.8541   -5.9907 H         1 <0>         0.0623
     31 H3         -0.9132    2.2210   -7.6307 H         1 <0>         0.0746
     32 H4         -1.5198    3.8336   -7.1839 H         1 <0>         0.0781
     33 H5         -2.2703    0.0886   -6.6295 H         1 <0>         0.1204
     34 H6         -1.4846    0.7974   -5.2005 H         1 <0>         0.0917
     35 H7         -4.2315    0.1553   -3.0706 H         1 <0>         0.4174
     36 H8         -2.0280    0.0684   -1.5212 H         1 <0>         0.1537
     37 H9         -0.0280    3.8381   -1.5107 H         1 <0>         0.1536
     38 H10        -1.3322    4.5503   -3.4767 H         1 <0>         0.1533
     39 H11        -0.5105    2.5410    1.9546 H         1 <0>         0.4319
     40 H12        -1.4436   -0.7032    1.2019 H         1 <0>         0.1644
     41 H13        -3.6250   -1.7348    1.6716 H         1 <0>         0.1419
     42 H14        -5.5309   -0.3404    2.3550 H         1 <0>         0.1352
     43 H15        -3.0552    3.1516    2.1083 H         1 <0>         0.1399
     44 H16        -7.2198    0.9068    2.9519 H         1 <0>         0.1768
     45 H17        -8.5546    3.1884    3.5991 H         1 <0>         0.1953
@<TRIPOS>BOND
     1    1    2 1
     2    1   30 1
     3    1   31 1
     4    1   32 1
     5    2    3 1
     6    2   14 1
     7    2    4 1
     8    4    5 1
     9    4   33 1
    10    4   34 1
    11    5    6 2
    12    5    7 am
    13    7    8 1
    14    7   35 1
    15    8   13 ar
    16    8    9 ar
    17    9   10 ar
    18    9   36 1
    19   10   11 ar
    20   10   15 1
    21   11   12 ar
    22   11   37 1
    23   12   13 ar
    24   12   38 1
    25   13   14 1
    26   15   16 2
    27   15   17 2
    28   15   18 1
    29   18   19 1
    30   18   39 1
    31   19   24 ar
    32   19   20 ar
    33   20   21 ar
    34   20   40 1
    35   21   22 ar
    36   21   41 1
    37   22   23 ar
    38   22   42 1
    39   23   24 ar
    40   23   25 1
    41   24   43 1
    42   25   29 1
    43   25   26 2
    44   26   27 1
    45   26   44 1
    46   27   28 2
    47   27   45 1
    48   28   29 1
@<TRIPOS>MOLECULE
ZINC30991699
   55    58     0     0     0
SMALL
USER_CHARGES
1-[[(3S)-2,3-dihydro-1,4-benzodioxin-3-yl]methyl]-3-[(1S)-1-(2,3-dihydro-1,4-benzodioxin-6-yl)-2-methyl-propyl]urea
@<TRIPOS>ATOM
      1 C1         -4.4066    0.5903   -1.9292 C.3       1 <0>        -0.1528
      2 C2         -4.2664   -0.8384   -1.4000 C.3       1 <0>        -0.0993
      3 C3         -3.3265   -1.6300   -2.3116 C.3       1 <0>        -0.1493
      4 C4         -3.6920   -0.8031    0.0176 C.3       1 <0>         0.2177
      5 H1         -3.5204   -1.8202    0.3997 H         1 <0>         0.0967
      6 C5         -2.3965   -0.0332    0.0157 C.ar      1 <0>        -0.0806
      7 C6         -2.4153    1.3492    0.0259 C.ar      1 <0>        -0.1075
      8 C7         -1.2294    2.0588    0.0190 C.ar      1 <0>        -0.1106
      9 C8         -0.0168    1.3855    0.0097 C.ar      1 <0>         0.0519
     10 C9          0.0021   -0.0041    0.0020 C.ar      1 <0>         0.0548
     11 C10        -1.1918   -0.7102    0.0041 C.ar      1 <0>        -0.0995
     12 O1          1.1807   -0.6848   -0.0066 O.3       1 <0>        -0.3065
     13 C11         2.3470    0.0535   -0.3870 C.3       1 <0>         0.0172
     14 C12         2.3345    1.3916    0.3645 C.3       1 <0>         0.0185
     15 O2          1.1429    2.0980    0.0024 O.3       1 <0>        -0.3061
     16 N1         -4.6473   -0.1492    0.9155 N.am      1 <0>        -0.7497
     17 C13        -5.6433   -0.8638    1.4757 C.2       1 <0>         0.7109
     18 O3         -5.7489   -2.0511    1.2360 O.2       1 <0>        -0.5942
     19 N2         -6.5221   -0.2623    2.3017 N.am      1 <0>        -0.7537
     20 C14        -7.6047   -1.0390    2.9107 C.3       1 <0>         0.1544
     21 C15        -8.4523   -0.1245    3.7973 C.3       1 <0>         0.0411
     22 H2         -8.8479    0.7183    3.2115 H         1 <0>         0.0935
     23 C16        -9.5704   -0.9391    4.4618 C.3       1 <0>         0.0296
     24 O4        -10.3340   -0.0577    5.2924 O.3       1 <0>        -0.3026
     25 C17        -9.6315    0.7820    6.1011 C.ar      1 <0>         0.0467
     26 C18       -10.2722    1.3930    7.1688 C.ar      1 <0>        -0.1129
     27 C19        -9.5733    2.2510    7.9966 C.ar      1 <0>        -0.1153
     28 C20        -8.2340    2.5025    7.7631 C.ar      1 <0>        -0.1147
     29 C21        -7.5893    1.8958    6.7020 C.ar      1 <0>        -0.1137
     30 C22        -8.2847    1.0330    5.8678 C.ar      1 <0>         0.0524
     31 O5         -7.6354    0.4405    4.8286 O.3       1 <0>        -0.3057
     32 H3         -5.0823    1.1594   -1.2738 H         1 <0>         0.0529
     33 H4         -4.8196    0.5649   -2.9484 H         1 <0>         0.0543
     34 H5         -3.4187    1.0737   -1.9458 H         1 <0>         0.0641
     35 H6         -5.2543   -1.3218   -1.3833 H         1 <0>         0.0800
     36 H7         -3.2257   -2.6572   -1.9311 H         1 <0>         0.0574
     37 H8         -2.3386   -1.1465   -2.3282 H         1 <0>         0.0583
     38 H9         -3.7395   -1.6554   -3.3308 H         1 <0>         0.0580
     39 H10        -3.3583    1.8754    0.0361 H         1 <0>         0.1320
     40 H11        -1.2469    3.1386    0.0268 H         1 <0>         0.1365
     41 H12        -1.1798   -1.7901   -0.0029 H         1 <0>         0.1363
     42 H13         3.2470   -0.5205   -0.1216 H         1 <0>         0.1252
     43 H14         2.3315    0.2298   -1.4727 H         1 <0>         0.0795
     44 H15         2.3475    1.2036    1.4482 H         1 <0>         0.0798
     45 H16         3.2215    1.9783    0.0835 H         1 <0>         0.1254
     46 H17        -4.5516    0.9249    1.1324 H         1 <0>         0.4115
     47 H18        -6.4265    0.8119    2.5186 H         1 <0>         0.4199
     48 H19        -8.2358   -1.4708    2.1200 H         1 <0>         0.0908
     49 H20        -7.1771   -1.8480    3.5212 H         1 <0>         0.0786
     50 H21       -10.2141   -1.3792    3.6859 H         1 <0>         0.1289
     51 H22        -9.1276   -1.7419    5.0696 H         1 <0>         0.0848
     52 H23       -11.3184    1.1984    7.3532 H         1 <0>         0.1351
     53 H24       -10.0741    2.7257    8.8274 H         1 <0>         0.1331
     54 H25        -7.6908    3.1743    8.4112 H         1 <0>         0.1328
     55 H26        -6.5429    2.0935    6.5222 H         1 <0>         0.1342
@<TRIPOS>BOND
     1    1    2 1
     2    1   32 1
     3    1   33 1
     4    1   34 1
     5    2    3 1
     6    2    4 1
     7    2   35 1
     8    3   36 1
     9    3   37 1
    10    3   38 1
    11    4    5 1
    12    4    6 1
    13    4   16 1
    14    6   11 ar
    15    6    7 ar
    16    7    8 ar
    17    7   39 1
    18    8    9 ar
    19    8   40 1
    20    9   15 1
    21    9   10 ar
    22   10   11 ar
    23   10   12 1
    24   11   41 1
    25   12   13 1
    26   13   14 1
    27   13   42 1
    28   13   43 1
    29   14   15 1
    30   14   44 1
    31   14   45 1
    32   16   17 am
    33   16   46 1
    34   17   18 2
    35   17   19 am
    36   19   20 1
    37   19   47 1
    38   20   21 1
    39   20   48 1
    40   20   49 1
    41   21   22 1
    42   21   31 1
    43   21   23 1
    44   23   24 1
    45   23   50 1
    46   23   51 1
    47   24   25 1
    48   25   30 ar
    49   25   26 ar
    50   26   27 ar
    51   26   52 1
    52   27   28 ar
    53   27   53 1
    54   28   29 ar
    55   28   54 1
    56   29   30 ar
    57   29   55 1
    58   30   31 1
@<TRIPOS>MOLECULE
ZINC40800687
   44    46     0     0     0
SMALL
USER_CHARGES

@<TRIPOS>ATOM
      1 C1          3.4988   -2.3957   -1.6581 C.3       1 <0>         0.0323
      2 O1          2.1692   -2.9131   -1.5782 O.3       1 <0>        -0.3537
      3 C2          1.5114   -2.7272   -0.4230 C.2       1 <0>         0.4619
      4 O2          2.0468   -2.1447    0.4901 O.2       1 <0>        -0.5026
      5 C3          0.1051   -3.2453   -0.2649 C.3       1 <0>        -0.0731
      6 C4          0.0964   -4.7635   -0.4569 C.3       1 <0>        -0.1285
      7 C5         -1.3395   -5.2821   -0.3299 C.3       1 <0>         0.1497
      8 N1         -1.8924   -4.8332    0.9552 N.pl3     1 <0>        -0.6527
      9 C6         -1.8514   -3.4009    1.2803 C.3       1 <0>         0.1492
     10 C7         -0.4098   -2.9035    1.1352 C.3       1 <0>        -0.1216
     11 C8         -2.4440   -5.7457    1.8460 C.ar      1 <0>         0.3665
     12 C9         -3.8198   -5.9913    1.8497 C.ar      1 <0>         0.1200
     13 C10        -4.3208   -6.9166    2.7634 C.ar      1 <0>         0.2869
     14 N2         -3.4777   -7.5268    3.5913 N.ar      1 <0>        -0.5258
     15 C11        -2.1865   -7.2673    3.5561 C.ar      1 <0>         0.2820
     16 N3         -1.6703   -6.4036    2.7049 N.ar      1 <0>        -0.5026
     17 O3         -5.6488   -7.1906    2.8080 O.3       1 <0>        -0.2485
     18 C12        -6.0990   -8.0072    3.7967 C.ar      1 <0>         0.1146
     19 C13        -6.1304   -7.5573    5.1089 C.ar      1 <0>        -0.1102
     20 C14        -6.5888   -8.3888    6.1122 C.ar      1 <0>        -0.0749
     21 C15        -7.0164   -9.6692    5.8095 C.ar      1 <0>        -0.0897
     22 C16        -6.9855  -10.1200    4.5018 C.ar      1 <0>        -0.0758
     23 C17        -6.5332   -9.2898    3.4946 C.ar      1 <0>        -0.1093
     24 Br1        -7.6434  -10.8052    7.1851 Br        1 <0>        -0.0421
     25 N4         -4.6738   -5.3238    0.9578 N.pl3     1 <0>        -0.8513
     26 H1          3.9149   -2.6134   -2.6418 H         1 <0>         0.1028
     27 H2          3.4790   -1.3171   -1.5026 H         1 <0>         0.0605
     28 H3          4.1169   -2.8621   -0.8909 H         1 <0>         0.0607
     29 H4         -0.5390   -2.7813   -1.0119 H         1 <0>         0.1099
     30 H5          0.4851   -5.0074   -1.4456 H         1 <0>         0.0855
     31 H6          0.7205   -5.2302    0.3052 H         1 <0>         0.0766
     32 H7         -1.9443   -4.8867   -1.1460 H         1 <0>         0.0636
     33 H8         -1.3392   -6.3714   -0.3670 H         1 <0>         0.0761
     34 H9         -2.4980   -2.8522    0.5955 H         1 <0>         0.0622
     35 H10        -2.1889   -3.2491    2.3055 H         1 <0>         0.0757
     36 H11         0.2191   -3.3877    1.8823 H         1 <0>         0.0798
     37 H12        -0.3813   -1.8235    1.2797 H         1 <0>         0.0809
     38 H13        -1.5305   -7.7810    4.2433 H         1 <0>         0.1987
     39 H14        -5.7964   -6.5579    5.3457 H         1 <0>         0.1336
     40 H15        -6.6131   -8.0391    7.1337 H         1 <0>         0.1398
     41 H16        -7.3194  -11.1200    4.2677 H         1 <0>         0.1417
     42 H17        -6.5135   -9.6405    2.4733 H         1 <0>         0.1391
     43 H18        -4.3039   -4.7386    0.2783 H         1 <0>         0.4054
     44 H19        -5.6338   -5.4477    1.0209 H         1 <0>         0.4064
@<TRIPOS>BOND
     1    1    2 1
     2    1   26 1
     3    1   27 1
     4    1   28 1
     5    2    3 1
     6    3    4 2
     7    3    5 1
     8    5   10 1
     9    5    6 1
    10    5   29 1
    11    6    7 1
    12    6   30 1
    13    6   31 1
    14    7    8 1
    15    7   32 1
    16    7   33 1
    17    8    9 1
    18    8   11 1
    19    9   10 1
    20    9   34 1
    21    9   35 1
    22   10   36 1
    23   10   37 1
    24   11   16 ar
    25   11   12 ar
    26   12   13 ar
    27   12   25 1
    28   13   14 ar
    29   13   17 1
    30   14   15 ar
    31   15   16 ar
    32   15   38 1
    33   17   18 1
    34   18   23 ar
    35   18   19 ar
    36   19   20 ar
    37   19   39 1
    38   20   21 ar
    39   20   40 1
    40   21   22 ar
    41   21   24 1
    42   22   23 ar
    43   22   41 1
    44   23   42 1
    45   25   43 1
    46   25   44 1
@<TRIPOS>MOLECULE
ZINC15952526
   52    56     0     0     0
SMALL
USER_CHARGES

@<TRIPOS>ATOM
      1 C1         -0.0184    1.5028    0.0103 C.3       1 <0>        -0.1168
      2 C2          0.0021   -0.0041    0.0020 C.ar      1 <0>        -0.0834
      3 C3          0.0057   -0.6868   -1.2019 C.ar      1 <0>        -0.0907
      4 C4          0.0244   -2.0687   -1.2206 C.ar      1 <0>        -0.1012
      5 C5          0.0396   -2.7790   -0.0312 C.ar      1 <0>         0.1283
      6 C6          0.0360   -2.0921    1.1880 C.ar      1 <0>        -0.0579
      7 C7          0.0228   -0.6977    1.1946 C.ar      1 <0>        -0.0872
      8 C8          0.0517   -2.8414    2.4635 C.2       1 <0>         0.1229
      9 C9          1.0541   -3.6319    2.9276 C.2       1 <0>        -0.1996
     10 C10         0.6126   -4.1275    4.1754 C.2       1 <0>        -0.0319
     11 N1         -0.5880   -3.6254    4.3846 N.2       1 <0>        -0.1991
     12 N2         -0.9363   -2.8682    3.4058 N.pl3     1 <0>        -0.3714
     13 H1         -1.7773   -2.3887    3.3446 H         1 <0>         0.4544
     14 C11         1.6738   -4.9942    4.7191 C.2       1 <0>         0.6113
     15 O1          1.6131   -5.5811    5.7820 O.2       1 <0>        -0.4975
     16 N3          2.7175   -5.0450    3.8738 N.am      1 <0>        -0.5988
     17 C12         2.4236   -4.2121    2.7019 C.3       1 <0>         0.2656
     18 H2          2.4273   -4.8219    1.7984 H         1 <0>         0.1030
     19 C13         3.4411   -3.1066    2.5851 C.ar      1 <0>        -0.0798
     20 C14         3.9373   -2.5011    3.7250 C.ar      1 <0>        -0.1070
     21 C15         4.8708   -1.4868    3.6213 C.ar      1 <0>        -0.0982
     22 C16         5.3100   -1.0751    2.3776 C.ar      1 <0>        -0.1387
     23 C17         4.8138   -1.6808    1.2327 C.ar      1 <0>         0.1109
     24 C18         3.8815   -2.7029    1.3397 C.ar      1 <0>        -0.1272
     25 O2          5.2442   -1.2777    0.0083 O.3       1 <0>        -0.4972
     26 C19         3.9496   -5.8080    4.0881 C.3       1 <0>         0.2209
     27 C20         3.7909   -7.1909    3.5104 C.2       1 <0>        -0.0432
     28 C21         4.0994   -7.5587    2.2539 C.2       1 <0>        -0.1878
     29 C22         3.7940   -8.9347    2.1432 C.2       1 <0>        -0.2194
     30 C23         3.3171   -9.3254    3.3387 C.2       1 <0>        -0.0270
     31 O3          3.3229   -8.2664    4.1647 O.3       1 <0>        -0.1645
     32 O4          0.0576   -4.1372   -0.0485 O.3       1 <0>        -0.4855
     33 C24         0.0276   -2.8035   -2.5363 C.3       1 <0>        -0.1150
     34 H3          1.0042    1.8801    0.0026 H         1 <0>         0.0747
     35 H4         -0.5455    1.8639   -0.8728 H         1 <0>         0.0703
     36 H5         -0.5286    1.8543    0.9071 H         1 <0>         0.0681
     37 H6         -0.0065   -0.1371   -2.1314 H         1 <0>         0.1310
     38 H7          0.0244   -0.1614    2.1320 H         1 <0>         0.1275
     39 H8          3.5947   -2.8210    4.6980 H         1 <0>         0.1232
     40 H9          5.2568   -1.0155    4.5130 H         1 <0>         0.1298
     41 H10         6.0387   -0.2821    2.2970 H         1 <0>         0.1301
     42 H11         3.4972   -3.1793    0.4499 H         1 <0>         0.1268
     43 H12         6.0203   -1.7568   -0.3132 H         1 <0>         0.3917
     44 H13         4.7805   -5.3020    3.5964 H         1 <0>         0.1199
     45 H14         4.1502   -5.8816    5.1569 H         1 <0>         0.1090
     46 H15         4.5025   -6.9244    1.4782 H         1 <0>         0.1483
     47 H16         3.9192   -9.5532    1.2668 H         1 <0>         0.1498
     48 H17         2.9889  -10.3226    3.5925 H         1 <0>         0.2035
     49 H18         0.9460   -4.5188   -0.0578 H         1 <0>         0.3870
     50 H19         1.0560   -2.9668   -2.8587 H         1 <0>         0.0724
     51 H20        -0.4726   -3.7646   -2.4169 H         1 <0>         0.0753
     52 H21        -0.4981   -2.2108   -3.2848 H         1 <0>         0.0702
@<TRIPOS>BOND
     1    1    2 1
     2    1   34 1
     3    1   35 1
     4    1   36 1
     5    2    7 ar
     6    2    3 ar
     7    3    4 ar
     8    3   37 1
     9    4    5 ar
    10    4   33 1
    11    5    6 ar
    12    5   32 1
    13    6    7 ar
    14    6    8 1
    15    7   38 1
    16    8   12 1
    17    8    9 2
    18    9   17 1
    19    9   10 1
    20   10   11 2
    21   10   14 1
    22   11   12 1
    23   12   13 1
    24   14   15 2
    25   14   16 am
    26   16   17 1
    27   16   26 1
    28   17   18 1
    29   17   19 1
    30   19   24 ar
    31   19   20 ar
    32   20   21 ar
    33   20   39 1
    34   21   22 ar
    35   21   40 1
    36   22   23 ar
    37   22   41 1
    38   23   24 ar
    39   23   25 1
    40   24   42 1
    41   25   43 1
    42   26   27 1
    43   26   44 1
    44   26   45 1
    45   27   31 1
    46   27   28 2
    47   28   29 1
    48   28   46 1
    49   29   30 2
    50   29   47 1
    51   30   31 1
    52   30   48 1
    53   32   49 1
    54   33   50 1
    55   33   51 1
    56   33   52 1
@<TRIPOS>MOLECULE
ZINC08327848
   49    53     0     0     0
SMALL
USER_CHARGES
5-benzofuran-2-yl-5-methyl-3-[2-(2-methyl-1H-indol-3-yl)-2-oxo-ethyl]-imidazolidine-2,4-dione
@<TRIPOS>ATOM
      1 C1          0.5027    5.0333   -2.5025 C.3       1 <0>        -0.1077
      2 C2          0.7985    4.6603   -1.0726 C.2       1 <0>         0.1498
      3 C3          0.2703    5.2850    0.0370 C.2       1 <0>        -0.2756
      4 C4          0.8363    4.5890    1.2093 C.ar      1 <0>        -0.0628
      5 C5          0.6961    4.7425    2.5856 C.ar      1 <0>        -0.0813
      6 C6          1.3786    3.9026    3.4387 C.ar      1 <0>        -0.1295
      7 C7          2.2094    2.9145    2.9308 C.ar      1 <0>        -0.1005
      8 C8          2.3566    2.7517    1.5706 C.ar      1 <0>        -0.1201
      9 C9          1.6720    3.5867    0.6931 C.ar      1 <0>         0.0874
     10 N1          1.6192    3.6659   -0.6839 N.pl3     1 <0>        -0.5716
     11 H1          2.1070    3.0852   -1.2887 H         1 <0>         0.4204
     12 C10        -0.6340    6.3763    0.0497 C.2       1 <0>         0.4315
     13 O1         -1.8284    6.1758   -0.0337 O.2       1 <0>        -0.4286
     14 C11        -0.1128    7.7854    0.1667 C.3       1 <0>         0.0881
     15 N2         -1.2393    8.7146    0.2842 N.am      1 <0>        -0.5691
     16 C12        -1.7910    9.0913    1.4546 C.2       1 <0>         0.5362
     17 O2         -1.4620    8.7378    2.5666 O.2       1 <0>        -0.4372
     18 C13        -2.9089   10.0484    1.0915 C.3       1 <0>         0.2067
     19 N3         -2.8520   10.1051   -0.3795 N.am      1 <0>        -0.7096
     20 C14        -1.8438    9.2984   -0.7569 C.2       1 <0>         0.7138
     21 O3         -1.5203    9.1175   -1.9144 O.2       1 <0>        -0.5281
     22 C15        -2.6528   11.4299    1.6970 C.3       1 <0>        -0.1458
     23 C16        -4.2390    9.5085    1.5502 C.2       1 <0>         0.0194
     24 C17        -5.4132    9.7521    0.9523 C.2       1 <0>        -0.1673
     25 C18        -6.4264    9.0296    1.7307 C.ar      1 <0>        -0.1342
     26 C19        -7.8087    8.8791    1.6301 C.ar      1 <0>        -0.0663
     27 C20        -8.4763    8.1181    2.5493 C.ar      1 <0>        -0.1348
     28 C21        -7.7867    7.4958    3.5799 C.ar      1 <0>        -0.0868
     29 C22        -6.4200    7.6331    3.6954 C.ar      1 <0>        -0.1061
     30 C23        -5.7224    8.4020    2.7720 C.ar      1 <0>         0.0626
     31 O4         -4.4203    8.7173    2.6220 O.3       1 <0>        -0.1756
     32 H2          1.2694    5.7177   -2.8655 H         1 <0>         0.0905
     33 H3          0.4969    4.1343   -3.1187 H         1 <0>         0.0809
     34 H4         -0.4722    5.5177   -2.5573 H         1 <0>         0.0896
     35 H5          0.0533    5.5140    2.9829 H         1 <0>         0.1237
     36 H6          1.2692    4.0166    4.5070 H         1 <0>         0.1278
     37 H7          2.7425    2.2638    3.6081 H         1 <0>         0.1296
     38 H8          3.0025    1.9764    1.1859 H         1 <0>         0.1238
     39 H9          0.4669    7.8601    0.9781 H         1 <0>         0.1158
     40 H10         0.4705    8.0319   -0.7205 H         1 <0>         0.1354
     41 H11        -3.4268   10.6258   -0.9621 H         1 <0>         0.4445
     42 H12        -1.7055   11.8199    1.3247 H         1 <0>         0.0838
     43 H13        -3.4600   12.1058    1.4146 H         1 <0>         0.0892
     44 H14        -2.6105   11.3484    2.7831 H         1 <0>         0.0923
     45 H15        -5.5802   10.3566    0.0730 H         1 <0>         0.1610
     46 H16        -8.3499    9.3618    0.8299 H         1 <0>         0.1297
     47 H17        -9.5472    8.0010    2.4727 H         1 <0>         0.1321
     48 H18        -8.3263    6.8972    4.2989 H         1 <0>         0.1380
     49 H19        -5.8929    7.1447    4.5017 H         1 <0>         0.1349
@<TRIPOS>BOND
     1    1    2 1
     2    1   32 1
     3    1   33 1
     4    1   34 1
     5    2   10 1
     6    2    3 2
     7    3    4 1
     8    3   12 1
     9    4    9 ar
    10    4    5 ar
    11    5    6 ar
    12    5   35 1
    13    6    7 ar
    14    6   36 1
    15    7    8 ar
    16    7   37 1
    17    8    9 ar
    18    8   38 1
    19    9   10 1
    20   10   11 1
    21   12   13 2
    22   12   14 1
    23   14   15 1
    24   14   39 1
    25   14   40 1
    26   15   20 am
    27   15   16 am
    28   16   17 2
    29   16   18 1
    30   18   19 1
    31   18   22 1
    32   18   23 1
    33   19   20 am
    34   19   41 1
    35   20   21 2
    36   22   42 1
    37   22   43 1
    38   22   44 1
    39   23   31 1
    40   23   24 2
    41   24   25 1
    42   24   45 1
    43   25   30 ar
    44   25   26 ar
    45   26   27 ar
    46   26   46 1
    47   27   28 ar
    48   27   47 1
    49   28   29 ar
    50   28   48 1
    51   29   30 ar
    52   29   49 1
    53   30   31 1
@<TRIPOS>MOLECULE
ZINC14496718
   56    59     0     0     0
SMALL
USER_CHARGES
N-[4-(3,4-dimethylphenyl)thiazol-2-yl]-2-(8-methyl-1,3-dioxo-2,4-diazaspiro[4.5]decan-2-yl)acetamide
@<TRIPOS>ATOM
      1 C1         -5.0263    4.1589    0.0483 C.3       1 <0>        -0.1201
      2 C2         -3.7152    3.4161    0.0379 C.ar      1 <0>        -0.0802
      3 C3         -2.5270    4.1168   -0.0686 C.ar      1 <0>        -0.1174
      4 C4         -1.3235    3.4420   -0.0786 C.ar      1 <0>        -0.1045
      5 C5         -1.3063    2.0515    0.0194 C.ar      1 <0>        -0.0285
      6 C6         -2.5065    1.3505    0.1212 C.ar      1 <0>        -0.0818
      7 C7         -3.7042    2.0365    0.1354 C.ar      1 <0>        -0.0909
      8 C8         -5.0026    1.2804    0.2511 C.3       1 <0>        -0.1176
      9 C9         -0.0159    1.3204    0.0093 C.2       1 <0>         0.1202
     10 C10         1.1662    2.0072    0.0017 C.2       1 <0>        -0.2377
     11 S1          2.3352    0.6543   -0.0167 S.3       1 <0>         0.1191
     12 C11         1.1392   -0.6740   -0.0124 C.2       1 <0>         0.3144
     13 N1          0.0021   -0.0041    0.0020 N.2       1 <0>        -0.5270
     14 N2          1.3505   -2.0473   -0.0225 N.am      1 <0>        -0.6043
     15 C12         2.6065   -2.5358   -0.0370 C.2       1 <0>         0.5031
     16 O1          3.5524   -1.7767   -0.0412 O.2       1 <0>        -0.4836
     17 C13         2.8356   -4.0253   -0.0479 C.3       1 <0>         0.1103
     18 N3          4.2750   -4.2978   -0.0628 N.am      1 <0>        -0.5659
     19 C14         5.0303   -4.4455    1.0453 C.2       1 <0>         0.5371
     20 O2          4.6619   -4.3807    2.1985 O.2       1 <0>        -0.4539
     21 C15         6.4324   -4.7096    0.5460 C.3       1 <0>         0.1303
     22 C16         6.9128   -6.0796    1.0117 C.3       1 <0>        -0.1148
     23 C17         8.3218   -6.3397    0.4728 C.3       1 <0>        -0.1122
     24 C18         9.2690   -5.2496    0.9783 C.3       1 <0>        -0.0973
     25 C19         8.7878   -3.8844    0.4827 C.3       1 <0>        -0.1119
     26 C20         7.3806   -3.6143    1.0214 C.3       1 <0>        -0.1153
     27 C21        10.6802   -5.5152    0.4502 C.3       1 <0>        -0.1490
     28 N4          6.3017   -4.6790   -0.9162 N.am      1 <0>        -0.7106
     29 C22         5.0029   -4.4370   -1.1776 C.2       1 <0>         0.7086
     30 O3          4.5438   -4.3514   -2.2997 O.2       1 <0>        -0.5362
     31 H1         -5.3915    4.2656   -0.9732 H         1 <0>         0.0719
     32 H2         -5.7546    3.6024    0.6382 H         1 <0>         0.0713
     33 H3         -4.8812    5.1460    0.4872 H         1 <0>         0.0664
     34 H4         -2.5415    5.1941   -0.1444 H         1 <0>         0.1258
     35 H5         -0.3966    3.9899   -0.1625 H         1 <0>         0.1245
     36 H6         -2.4994    0.2729    0.1928 H         1 <0>         0.1311
     37 H7         -5.3646    1.0253   -0.7449 H         1 <0>         0.0709
     38 H8         -4.8415    0.3672    0.8240 H         1 <0>         0.0658
     39 H9         -5.7410    1.9017    0.7579 H         1 <0>         0.0710
     40 H10         1.3446    3.0724    0.0054 H         1 <0>         0.1997
     41 H11         0.5940   -2.6545   -0.0191 H         1 <0>         0.4298
     42 H12         2.3913   -4.4678    0.8437 H         1 <0>         0.1388
     43 H13         2.3748   -4.4573   -0.9362 H         1 <0>         0.1413
     44 H14         6.9300   -6.1072    2.1012 H         1 <0>         0.0917
     45 H15         6.2345   -6.8477    0.6401 H         1 <0>         0.0762
     46 H16         8.3022   -6.3275   -0.6170 H         1 <0>         0.0657
     47 H17         8.6697   -7.3129    0.8192 H         1 <0>         0.0763
     48 H18         9.2820   -5.2564    2.0682 H         1 <0>         0.0769
     49 H19         8.7667   -3.8801   -0.6071 H         1 <0>         0.0655
     50 H20         9.4674   -3.1090    0.8363 H         1 <0>         0.0763
     51 H21         7.0314   -2.6483    0.6566 H         1 <0>         0.0791
     52 H22         7.4051   -3.6032    2.1111 H         1 <0>         0.0905
     53 H23        11.3552   -4.7391    0.8108 H         1 <0>         0.0571
     54 H24        11.0232   -6.4878    0.8033 H         1 <0>         0.0570
     55 H25        10.6676   -5.5082   -0.6397 H         1 <0>         0.0553
     56 H26         7.0100   -4.8114   -1.5655 H         1 <0>         0.4416
@<TRIPOS>BOND
     1    1    2 1
     2    1   31 1
     3    1   32 1
     4    1   33 1
     5    2    7 ar
     6    2    3 ar
     7    3    4 ar
     8    3   34 1
     9    4    5 ar
    10    4   35 1
    11    5    6 ar
    12    5    9 1
    13    6    7 ar
    14    6   36 1
    15    7    8 1
    16    8   37 1
    17    8   38 1
    18    8   39 1
    19    9   13 1
    20    9   10 2
    21   10   11 1
    22   10   40 1
    23   11   12 1
    24   12   13 2
    25   12   14 1
    26   14   15 am
    27   14   41 1
    28   15   16 2
    29   15   17 1
    30   17   18 1
    31   17   42 1
    32   17   43 1
    33   18   29 am
    34   18   19 am
    35   19   20 2
    36   19   21 1
    37   21   26 1
    38   21   22 1
    39   21   28 1
    40   22   23 1
    41   22   44 1
    42   22   45 1
    43   23   24 1
    44   23   46 1
    45   23   47 1
    46   24   25 1
    47   24   27 1
    48   24   48 1
    49   25   26 1
    50   25   49 1
    51   25   50 1
    52   26   51 1
    53   26   52 1
    54   27   53 1
    55   27   54 1
    56   27   55 1
    57   28   29 am
    58   28   56 1
    59   29   30 2
@<TRIPOS>MOLECULE
ZINC17356556
   55    58     0     0     0
SMALL
USER_CHARGES

@<TRIPOS>ATOM
      1 C1         -0.7736    1.5201   -2.1888 C.ar      1 <0>        -0.1171
      2 C2          0.2975    2.3109   -2.5609 C.ar      1 <0>        -0.1198
      3 C3          1.5876    1.8307   -2.4355 C.ar      1 <0>        -0.1126
      4 C4          1.8068    0.5599   -1.9377 C.ar      1 <0>        -0.0797
      5 C5          0.7359   -0.2305   -1.5647 C.ar      1 <0>        -0.0911
      6 C6         -0.5544    0.2491   -1.6914 C.ar      1 <0>        -0.1232
      7 C7          3.2133    0.0360   -1.8019 C.3       1 <0>         0.1689
      8 C8          3.6629    0.1691   -0.3697 C.ar      1 <0>        -0.0779
      9 C9          3.2668   -0.7655    0.5687 C.ar      1 <0>        -0.0900
     10 C10         3.6792   -0.6435    1.8824 C.ar      1 <0>        -0.1238
     11 C11         4.4880    0.4128    2.2577 C.ar      1 <0>        -0.1179
     12 C12         4.8849    1.3469    1.3191 C.ar      1 <0>        -0.1201
     13 C13         4.4760    1.2225    0.0045 C.ar      1 <0>        -0.1129
     14 N1          3.2493   -1.3784   -2.1971 N.3       1 <0>        -0.5257
     15 C14         2.7204   -1.5590   -3.5556 C.3       1 <0>         0.0384
     16 C15         2.6059   -3.0564   -3.8607 C.3       1 <0>         0.1202
     17 N2          3.9124   -3.6848   -3.6133 N.am      1 <0>        -0.6068
     18 C16         4.5708   -3.4363   -2.3218 C.3       1 <0>         0.1011
     19 C17         4.6079   -1.9240   -2.0773 C.3       1 <0>         0.0386
     20 C18         4.4909   -4.4680   -4.5453 C.2       1 <0>         0.5702
     21 O1          3.8966   -4.7300   -5.5732 O.2       1 <0>        -0.5275
     22 C19         5.8451   -5.0073   -4.3182 C.ar      1 <0>        -0.1856
     23 C20         6.1750   -5.5754   -3.0840 C.ar      1 <0>         0.0000
     24 C21         7.4388   -6.0779   -2.8755 C.ar      1 <0>        -0.1990
     25 C22         8.3888   -6.0208   -3.8919 C.ar      1 <0>         0.3023
     26 C23         8.0635   -5.4554   -5.1216 C.ar      1 <0>        -0.1308
     27 C24         6.7992   -4.9566   -5.3384 C.ar      1 <0>         0.0402
     28 N3          9.0767   -5.3958   -6.1990 N.pl3     1 <0>         0.0418
     29 O2          9.1302   -4.4310   -6.9257 O.2       1 <0>        -0.1440
     30 O3          9.8507   -6.3118   -6.3524 O.3       1 <0>        -0.1721
     31 N4          9.6652   -6.5292   -3.6779 N.pl3     1 <0>        -0.8430
     32 H1         -1.7813    1.8970   -2.2825 H         1 <0>         0.1209
     33 H2          0.1262    3.3038   -2.9498 H         1 <0>         0.1218
     34 H3          2.4244    2.4483   -2.7269 H         1 <0>         0.1182
     35 H4          0.9071   -1.2237   -1.1764 H         1 <0>         0.1298
     36 H5         -1.3911   -0.3686   -1.4003 H         1 <0>         0.1220
     37 H6          3.8787    0.6104   -2.4465 H         1 <0>         0.0579
     38 H7          2.6348   -1.5908    0.2755 H         1 <0>         0.1298
     39 H8          3.3691   -1.3733    2.6157 H         1 <0>         0.1215
     40 H9          4.8097    0.5085    3.2842 H         1 <0>         0.1204
     41 H10         5.5165    2.1724    1.6124 H         1 <0>         0.1214
     42 H11         4.7891    1.9502   -0.7296 H         1 <0>         0.1181
     43 H12         1.7357   -1.0969   -3.6270 H         1 <0>         0.0965
     44 H13         3.3946   -1.0921   -4.2735 H         1 <0>         0.0413
     45 H14         1.8545   -3.5059   -3.2114 H         1 <0>         0.0796
     46 H15         2.3236   -3.1969   -4.9041 H         1 <0>         0.0985
     47 H16         4.0083   -3.9224   -1.5246 H         1 <0>         0.0840
     48 H17         5.5876   -3.8281   -2.3477 H         1 <0>         0.0964
     49 H18         5.2559   -1.4520   -2.8158 H         1 <0>         0.0419
     50 H19         4.9922   -1.7267   -1.0766 H         1 <0>         0.0944
     51 H20         5.4388   -5.6194   -2.2951 H         1 <0>         0.1505
     52 H21         7.6942   -6.5169   -1.9224 H         1 <0>         0.1533
     53 H22         6.5460   -4.5224   -6.2943 H         1 <0>         0.1537
     54 H23         9.8592   -7.0282   -2.8690 H         1 <0>         0.4138
     55 H24        10.3616   -6.3848   -4.3375 H         1 <0>         0.4132
@<TRIPOS>BOND
     1    1    6 ar
     2    1    2 ar
     3    1   32 1
     4    2    3 ar
     5    2   33 1
     6    3    4 ar
     7    3   34 1
     8    4    5 ar
     9    4    7 1
    10    5    6 ar
    11    5   35 1
    12    6   36 1
    13    7    8 1
    14    7   14 1
    15    7   37 1
    16    8   13 ar
    17    8    9 ar
    18    9   10 ar
    19    9   38 1
    20   10   11 ar
    21   10   39 1
    22   11   12 ar
    23   11   40 1
    24   12   13 ar
    25   12   41 1
    26   13   42 1
    27   14   19 1
    28   14   15 1
    29   15   16 1
    30   15   43 1
    31   15   44 1
    32   16   17 1
    33   16   45 1
    34   16   46 1
    35   17   18 1
    36   17   20 am
    37   18   19 1
    38   18   47 1
    39   18   48 1
    40   19   49 1
    41   19   50 1
    42   20   21 2
    43   20   22 1
    44   22   27 ar
    45   22   23 ar
    46   23   24 ar
    47   23   51 1
    48   24   25 ar
    49   24   52 1
    50   25   26 ar
    51   25   31 1
    52   26   27 ar
    53   26   28 1
    54   27   53 1
    55   28   29 2
    56   28   30 1
    57   31   54 1
    58   31   55 1
@<TRIPOS>MOLECULE
ZINC40801554
   51    54     0     0     0
SMALL
USER_CHARGES

@<TRIPOS>ATOM
      1 C1         -0.0184    1.5028    0.0103 C.3       1 <0>        -0.1157
      2 C2          0.0021   -0.0041    0.0020 C.ar      1 <0>        -0.0734
      3 C3          0.0058   -0.6869   -1.2004 C.ar      1 <0>        -0.1093
      4 C4          0.0186   -2.0697   -1.2161 C.ar      1 <0>        -0.0987
      5 C5          0.0310   -2.7733   -0.0238 C.ar      1 <0>         0.0649
      6 C6          0.0383   -2.0854    1.1876 C.ar      1 <0>         0.0943
      7 C7          0.0229   -0.6998    1.1967 C.ar      1 <0>        -0.1248
      8 N1          0.0857   -2.8048    2.3895 N.am      1 <0>        -0.6562
      9 C8          0.3418   -4.1293    2.3547 C.2       1 <0>         0.4973
     10 O1          0.2787   -4.7885    3.3709 O.2       1 <0>        -0.4979
     11 C9          0.7062   -4.7866    1.0476 C.3       1 <0>         0.1002
     12 H1          0.4151   -5.8367    1.0761 H         1 <0>         0.1614
     13 O2          0.0253   -4.1334   -0.0260 O.3       1 <0>        -0.2783
     14 C10         2.2169   -4.6828    0.8292 C.3       1 <0>        -0.1642
     15 C11         2.5984   -5.4448   -0.4137 C.2       1 <0>         0.5178
     16 O3          1.7458   -6.0148   -1.0611 O.2       1 <0>        -0.4754
     17 N2          3.8869   -5.4929   -0.8058 N.am      1 <0>        -0.6209
     18 C12         4.2378   -6.1938   -1.9491 C.2       1 <0>         0.0452
     19 C13         5.5021   -6.3554   -2.4959 C.2       1 <0>        -0.2165
     20 C14         5.6033   -7.1443   -3.7119 C.2       1 <0>        -0.0583
     21 C15         4.4233   -7.6260   -4.1576 C.2       1 <0>        -0.2227
     22 S1          3.2307   -7.0484   -2.9860 S.3       1 <0>         0.3067
     23 C16         4.1975   -8.4665   -5.3764 C.3       1 <0>        -0.0349
     24 C17         5.4540   -8.3877   -6.2560 C.3       1 <0>        -0.1151
     25 C18         6.6877   -8.6243   -5.3802 C.3       1 <0>        -0.1189
     26 C19         6.9032   -7.4285   -4.4499 C.3       1 <0>        -0.0627
     27 C20         6.6848   -5.7559   -1.8745 C.2       1 <0>         0.5306
     28 O4          7.3145   -6.3777   -1.0399 O.2       1 <0>        -0.4925
     29 O5          7.0760   -4.5143   -2.2274 O.3       1 <0>        -0.3466
     30 C21         8.2384   -3.9919   -1.5809 C.3       1 <0>         0.0288
     31 H2          1.0042    1.8801    0.0026 H         1 <0>         0.0741
     32 H3         -0.5455    1.8639   -0.8728 H         1 <0>         0.0716
     33 H4         -0.5286    1.8543    0.9071 H         1 <0>         0.0687
     34 H5         -0.0018   -0.1383   -2.1307 H         1 <0>         0.1356
     35 H6          0.0185   -2.5999   -2.1570 H         1 <0>         0.1411
     36 H7          0.0229   -0.1646    2.1348 H         1 <0>         0.1340
     37 H8         -0.0634   -2.3558    3.2364 H         1 <0>         0.4185
     38 H9          2.4962   -3.6356    0.7134 H         1 <0>         0.1133
     39 H10         2.7381   -5.1049    1.6885 H         1 <0>         0.1275
     40 H11         4.5688   -5.0370   -0.2880 H         1 <0>         0.4186
     41 H12         4.0196   -9.5007   -5.0817 H         1 <0>         0.0838
     42 H13         3.3376   -8.0883   -5.9293 H         1 <0>         0.0831
     43 H14         5.4050   -9.1518   -7.0318 H         1 <0>         0.0751
     44 H15         5.5164   -7.4015   -6.7160 H         1 <0>         0.0691
     45 H16         6.5412   -9.5249   -4.7840 H         1 <0>         0.0679
     46 H17         7.5641   -8.7510   -6.0159 H         1 <0>         0.0715
     47 H18         7.1887   -6.5557   -5.0371 H         1 <0>         0.0808
     48 H19         7.6886   -7.6612   -3.7309 H         1 <0>         0.0734
     49 H20         8.4425   -2.9888   -1.9553 H         1 <0>         0.1047
     50 H21         8.0681   -3.9506   -0.5051 H         1 <0>         0.0604
     51 H22         9.0913   -4.6380   -1.7892 H         1 <0>         0.0629
@<TRIPOS>BOND
     1    1    2 1
     2    1   31 1
     3    1   32 1
     4    1   33 1
     5    2    7 ar
     6    2    3 ar
     7    3    4 ar
     8    3   34 1
     9    4    5 ar
    10    4   35 1
    11    5   13 1
    12    5    6 ar
    13    6    7 ar
    14    6    8 1
    15    7   36 1
    16    8    9 am
    17    8   37 1
    18    9   10 2
    19    9   11 1
    20   11   12 1
    21   11   13 1
    22   11   14 1
    23   14   15 1
    24   14   38 1
    25   14   39 1
    26   15   16 2
    27   15   17 am
    28   17   18 1
    29   17   40 1
    30   18   22 1
    31   18   19 2
    32   19   20 1
    33   19   27 1
    34   20   26 1
    35   20   21 2
    36   21   22 1
    37   21   23 1
    38   23   24 1
    39   23   41 1
    40   23   42 1
    41   24   25 1
    42   24   43 1
    43   24   44 1
    44   25   26 1
    45   25   45 1
    46   25   46 1
    47   26   47 1
    48   26   48 1
    49   27   28 2
    50   27   29 1
    51   29   30 1
    52   30   49 1
    53   30   50 1
    54   30   51 1
@<TRIPOS>MOLECULE
ZINC53158026
   39    42     0     0     0
SMALL
USER_CHARGES

@<TRIPOS>ATOM
      1 C1         -0.0774    1.4761   -0.1321 C.3       1 <0>        -0.1518
      2 C2          0.0164   -0.0419    0.0344 C.3       1 <0>        -0.0074
      3 H1          0.5557   -0.2740    0.9528 H         1 <0>         0.1517
      4 C3         -1.3709   -0.6262    0.1051 C.2       1 <0>         0.3076
      5 N1         -1.9649   -1.0565    1.1834 N.2       1 <0>        -0.5181
      6 C4         -3.1877   -1.5094    0.8844 C.2       1 <0>         0.2875
      7 N2         -3.3872   -1.3718   -0.3949 N.2       1 <0>        -0.3300
      8 O1         -2.2079   -0.7875   -0.9275 O.3       1 <0>        -0.0939
      9 C5         -4.1734   -2.0854    1.8681 C.3       1 <0>        -0.0940
     10 C6         -5.4391   -2.7330    1.3028 C.3       1 <0>        -0.1555
     11 C7         -5.5232   -1.3795    2.0111 C.3       1 <0>        -0.1501
     12 S1          0.9002   -0.7521   -1.3817 S.3       1 <0>         0.0818
     13 C8          2.5283   -0.0928   -1.2423 C.2       1 <0>         0.1914
     14 N3          2.9626    0.7200   -0.3054 N.2       1 <0>        -0.2812
     15 N4          4.1997    1.0039   -0.5061 N.2       1 <0>        -0.2258
     16 C9          4.6314    0.3901   -1.5832 C.2       1 <0>         0.1859
     17 N5          3.5758   -0.3359   -2.0846 N.pl3     1 <0>        -0.2962
     18 N6          3.5746   -1.1314   -3.1950 N.3       1 <0>        -0.5822
     19 C10         5.9959    0.4607   -2.1474 C.ar      1 <0>        -0.0148
     20 C11         6.1790    0.6872   -3.5125 C.ar      1 <0>        -0.0811
     21 C12         7.4544    0.7526   -4.0332 C.ar      1 <0>        -0.1001
     22 C13         8.5531    0.5940   -3.2048 C.ar      1 <0>        -0.0073
     23 C14         8.3791    0.3690   -1.8500 C.ar      1 <0>        -0.0991
     24 C15         7.1074    0.3068   -1.3157 C.ar      1 <0>         0.0137
     25 Cl1         6.8905    0.0319    0.3846 Cl        1 <0>        -0.0215
     26 Cl2        10.1551    0.6771   -3.8685 Cl        1 <0>        -0.0408
     27 H2          0.9261    1.8987   -0.1833 H         1 <0>         0.0975
     28 H3         -0.6166    1.7083   -1.0505 H         1 <0>         0.0777
     29 H4         -0.6084    1.9028    0.7187 H         1 <0>         0.0822
     30 H5         -3.7390   -2.5273    2.7648 H         1 <0>         0.1435
     31 H6         -5.5588   -2.7424    0.2194 H         1 <0>         0.1058
     32 H7         -5.8376   -3.6013    1.8275 H         1 <0>         0.1132
     33 H8         -5.9771   -1.3573    3.0019 H         1 <0>         0.1142
     34 H9         -5.6983   -0.4984    1.3938 H         1 <0>         0.1003
     35 H10         3.4041   -0.5888   -4.0284 H         1 <0>         0.3699
     36 H11         4.4377   -1.6484   -3.2704 H         1 <0>         0.3805
     37 H12         5.3234    0.8108   -4.1599 H         1 <0>         0.1392
     38 H13         7.5969    0.9274   -5.0893 H         1 <0>         0.1512
     39 H14         9.2397    0.2458   -1.2092 H         1 <0>         0.1560
@<TRIPOS>BOND
     1    1    2 1
     2    1   27 1
     3    1   28 1
     4    1   29 1
     5    2    3 1
     6    2    4 1
     7    2   12 1
     8    4    8 1
     9    4    5 2
    10    5    6 1
    11    6    7 2
    12    6    9 1
    13    7    8 1
    14    9   11 1
    15    9   10 1
    16    9   30 1
    17   10   11 1
    18   10   31 1
    19   10   32 1
    20   11   33 1
    21   11   34 1
    22   12   13 1
    23   13   17 1
    24   13   14 2
    25   14   15 1
    26   15   16 2
    27   16   17 1
    28   16   19 1
    29   17   18 1
    30   18   35 1
    31   18   36 1
    32   19   24 ar
    33   19   20 ar
    34   20   21 ar
    35   20   37 1
    36   21   22 ar
    37   21   38 1
    38   22   23 ar
    39   22   26 1
    40   23   24 ar
    41   23   39 1
    42   24   25 1
@<TRIPOS>MOLECULE
ZINC04557789
   57    58     0     0     0
SMALL
USER_CHARGES
N'-[(3,4-dimethoxyphenyl)methyleneamino]-N-[2-(4-hydroxyphenyl)-1,1-dimethyl-ethyl]-propanediamide
@<TRIPOS>ATOM
      1 C1         -0.0446   -2.1908   -2.1724 C.3       1 <0>        -0.1674
      2 C2          1.2174   -2.6898   -1.4659 C.3       1 <0>         0.1832
      3 C3          2.4536   -2.1616   -2.1966 C.3       1 <0>        -0.1674
      4 C4          1.2256   -2.1871   -0.0209 C.3       1 <0>        -0.0820
      5 C5          1.2080   -0.6802   -0.0131 C.ar      1 <0>        -0.0858
      6 C6          0.0021   -0.0041    0.0020 C.ar      1 <0>        -0.0948
      7 C7         -0.0167    1.3772    0.0096 C.ar      1 <0>        -0.1444
      8 C8          1.1759    2.0860    0.0020 C.ar      1 <0>         0.1042
      9 C9          2.3846    1.4052   -0.0127 C.ar      1 <0>        -0.1444
     10 C10         2.3980    0.0239   -0.0207 C.ar      1 <0>        -0.0949
     11 O1          1.1601    3.4449    0.0090 O.3       1 <0>        -0.5000
     12 N1          1.2345   -4.1547   -1.4735 N.am      1 <0>        -0.7278
     13 C11         1.2309   -4.8226   -2.6441 C.2       1 <0>         0.5155
     14 O2          1.2137   -4.2110   -3.6912 O.2       1 <0>        -0.4831
     15 C12         1.2484   -6.3295   -2.6518 C.3       1 <0>        -0.1606
     16 C13         1.2404   -6.8246   -4.0751 C.2       1 <0>         0.5269
     17 O3          1.2223   -6.0317   -4.9931 O.2       1 <0>        -0.4518
     18 N2          1.2534   -8.1483   -4.3282 N.am      1 <0>        -0.5881
     19 N3          1.2460   -8.6087   -5.6514 N.2       1 <0>        -0.2254
     20 C14         1.2585   -9.8834   -5.8951 C.2       1 <0>         0.1130
     21 C15         1.2507  -10.3677   -7.2875 C.ar      1 <0>        -0.0576
     22 C16         1.2240   -9.4561   -8.3460 C.ar      1 <0>        -0.0691
     23 C17         1.2226   -9.9112   -9.6477 C.ar      1 <0>        -0.1789
     24 C18         1.2364  -11.2735   -9.9098 C.ar      1 <0>         0.1192
     25 C19         1.2568  -12.1884   -8.8593 C.ar      1 <0>         0.0948
     26 C20         1.2641  -11.7397   -7.5519 C.ar      1 <0>        -0.1443
     27 O4          1.2698  -13.5230   -9.1202 O.3       1 <0>        -0.3048
     28 C21         1.2909  -14.4038   -7.9951 C.3       1 <0>         0.0246
     29 O5          1.2297  -11.7168  -11.1948 O.3       1 <0>        -0.3042
     30 C22         1.2087  -10.7248  -12.2232 C.3       1 <0>         0.0236
     31 H1         -0.0573   -1.1008   -2.1668 H         1 <0>         0.0682
     32 H2         -0.0504   -2.5489   -3.2019 H         1 <0>         0.0793
     33 H3         -0.9253   -2.5670   -1.6519 H         1 <0>         0.0533
     34 H4          3.3527   -2.5171   -1.6933 H         1 <0>         0.0533
     35 H5          2.4478   -2.5197   -3.2261 H         1 <0>         0.0793
     36 H6          2.4409   -1.0717   -2.1910 H         1 <0>         0.0682
     37 H7          2.1247   -2.5426    0.4824 H         1 <0>         0.0801
     38 H8          0.3449   -2.5634    0.4997 H         1 <0>         0.0801
     39 H9         -0.9260   -0.5563    0.0083 H         1 <0>         0.1270
     40 H10        -0.9589    1.9049    0.0169 H         1 <0>         0.1290
     41 H11         3.3144    1.9547   -0.0186 H         1 <0>         0.1290
     42 H12         3.3387   -0.5065   -0.0325 H         1 <0>         0.1271
     43 H13         1.1638    3.8337    0.8944 H         1 <0>         0.3912
     44 H14         1.2483   -4.6438   -0.6360 H         1 <0>         0.3979
     45 H15         2.1475   -6.6850   -2.1485 H         1 <0>         0.1254
     46 H16         0.3678   -6.7058   -2.1313 H         1 <0>         0.1254
     47 H17         1.2679   -8.7823   -3.5942 H         1 <0>         0.3842
     48 H18         1.2747  -10.5893   -5.0779 H         1 <0>         0.1199
     49 H19         1.2088   -8.3951   -8.1448 H         1 <0>         0.1412
     50 H20         1.2062   -9.2055  -10.4651 H         1 <0>         0.1409
     51 H21         1.2806  -12.4479   -6.7367 H         1 <0>         0.1409
     52 H22         2.1845  -14.2128   -7.4008 H         1 <0>         0.0556
     53 H23         0.4048  -14.2335   -7.3837 H         1 <0>         0.0556
     54 H24         1.2996  -15.4369   -8.3425 H         1 <0>         0.1019
     55 H25         0.3124  -10.1131  -12.1196 H         1 <0>         0.0576
     56 H26         2.0922  -10.0925  -12.1361 H         1 <0>         0.0577
     57 H27         1.2053  -11.2122  -13.1981 H         1 <0>         0.1027
@<TRIPOS>BOND
     1    1    2 1
     2    1   31 1
     3    1   32 1
     4    1   33 1
     5    2    3 1
     6    2    4 1
     7    2   12 1
     8    3   34 1
     9    3   35 1
    10    3   36 1
    11    4    5 1
    12    4   37 1
    13    4   38 1
    14    5   10 ar
    15    5    6 ar
    16    6    7 ar
    17    6   39 1
    18    7    8 ar
    19    7   40 1
    20    8    9 ar
    21    8   11 1
    22    9   10 ar
    23    9   41 1
    24   10   42 1
    25   11   43 1
    26   12   13 am
    27   12   44 1
    28   13   14 2
    29   13   15 1
    30   15   16 1
    31   15   45 1
    32   15   46 1
    33   16   17 2
    34   16   18 am
    35   18   19 1
    36   18   47 1
    37   19   20 2
    38   20   21 1
    39   20   48 1
    40   21   26 ar
    41   21   22 ar
    42   22   23 ar
    43   22   49 1
    44   23   24 ar
    45   23   50 1
    46   24   25 ar
    47   24   29 1
    48   25   26 ar
    49   25   27 1
    50   26   51 1
    51   27   28 1
    52   28   52 1
    53   28   53 1
    54   28   54 1
    55   29   30 1
    56   30   55 1
    57   30   56 1
    58   30   57 1
@<TRIPOS>MOLECULE
ZINC16816400
   43    44     0     0     0
SMALL
USER_CHARGES
[2-[5-(2-methanesulfonamidoethyl)-2-thienyl]-2-oxo-ethyl] 2,4-dihydroxybenzoate
@<TRIPOS>ATOM
      1 C1        -10.6006    6.5875    4.0773 C.3       1 <0>        -0.6739
      2 S1        -11.8152    5.8972    2.9202 S.o2      1 <0>         2.6162
      3 O1        -12.7698    6.8877    2.5641 O.2       1 <0>        -0.9553
      4 O2        -12.2338    4.6122    3.3591 O.2       1 <0>        -0.9544
      5 N1        -10.9633    5.6118    1.5291 N.pl3     1 <0>        -1.1209
      6 C2         -9.8921    4.6125    1.5181 C.3       1 <0>         0.1164
      7 C3         -9.5263    4.2730    0.0718 C.3       1 <0>        -0.0489
      8 C4         -8.4243    3.2450    0.0604 C.2       1 <0>        -0.1395
      9 C5         -8.5343    1.8886    0.0532 C.2       1 <0>        -0.1796
     10 C6         -7.3972    1.1246    0.0432 C.2       1 <0>        -0.0417
     11 C7         -6.1813    1.8008    0.0411 C.2       1 <0>        -0.2829
     12 S2         -6.7103    3.5046    0.0608 S.3       1 <0>         0.1709
     13 C8         -4.8703    1.2755    0.0320 C.2       1 <0>         0.4369
     14 O3         -4.6979    0.0734    0.0247 O.2       1 <0>        -0.4199
     15 C9         -3.6855    2.2067    0.0315 C.3       1 <0>         0.0380
     16 O4         -2.4590    1.4295    0.0215 O.3       1 <0>        -0.3352
     17 C10        -1.2993    2.1164    0.0197 C.2       1 <0>         0.5112
     18 O5         -1.3128    3.3317    0.0264 O.2       1 <0>        -0.4879
     19 C11        -0.0169    1.3948    0.0097 C.ar      1 <0>        -0.1721
     20 C12         0.0021   -0.0041    0.0020 C.ar      1 <0>        -0.0259
     21 C13         1.1926   -0.6723   -0.0129 C.ar      1 <0>        -0.1689
     22 C14         2.3941    0.0304   -0.0206 C.ar      1 <0>         0.1677
     23 C15         2.3933    1.4175   -0.0132 C.ar      1 <0>        -0.1909
     24 C16         1.1927    2.1072    0.0020 C.ar      1 <0>         0.1975
     25 O6          1.1854    3.4636    0.0089 O.3       1 <0>        -0.4767
     26 O7          3.5713   -0.6445   -0.0360 O.3       1 <0>        -0.4948
     27 H1        -10.1855    7.5063    3.6630 H         1 <0>         0.1301
     28 H2        -11.0873    6.8051    5.0280 H         1 <0>         0.1315
     29 H3         -9.7991    5.8660    4.2361 H         1 <0>         0.1270
     30 H4        -11.1737    6.1063    0.7215 H         1 <0>         0.4209
     31 H5        -10.2310    3.7110    2.0284 H         1 <0>         0.0897
     32 H6         -9.0168    5.0125    2.0299 H         1 <0>         0.0704
     33 H7         -9.1874    5.1745   -0.4385 H         1 <0>         0.0947
     34 H8        -10.4016    3.8730   -0.4401 H         1 <0>         0.1041
     35 H9         -9.5072    1.4197    0.0549 H         1 <0>         0.1466
     36 H10        -7.4427    0.0455    0.0368 H         1 <0>         0.1521
     37 H11        -3.7109    2.7788    0.8513 H         1 <0>         0.0945
     38 H12        -3.7215    2.8401   -0.8549 H         1 <0>         0.1080
     39 H13        -0.9262   -0.5561    0.0076 H         1 <0>         0.1506
     40 H14         1.2021   -1.7522   -0.0192 H         1 <0>         0.1431
     41 H15         3.3279    1.9587   -0.0196 H         1 <0>         0.1475
     42 H16         1.1916    3.8525    0.8942 H         1 <0>         0.4016
     43 H17         3.9039   -0.8351   -0.9237 H         1 <0>         0.4021
@<TRIPOS>BOND
     1    1    2 1
     2    1   27 1
     3    1   28 1
     4    1   29 1
     5    2    3 2
     6    2    4 2
     7    2    5 1
     8    5    6 1
     9    5   30 1
    10    6    7 1
    11    6   31 1
    12    6   32 1
    13    7    8 1
    14    7   33 1
    15    7   34 1
    16    8   12 1
    17    8    9 2
    18    9   10 1
    19    9   35 1
    20   10   11 2
    21   10   36 1
    22   11   12 1
    23   11   13 1
    24   13   14 2
    25   13   15 1
    26   15   16 1
    27   15   37 1
    28   15   38 1
    29   16   17 1
    30   17   18 2
    31   17   19 1
    32   19   24 ar
    33   19   20 ar
    34   20   21 ar
    35   20   39 1
    36   21   22 ar
    37   21   40 1
    38   22   23 ar
    39   22   26 1
    40   23   24 ar
    41   23   41 1
    42   24   25 1
    43   25   42 1
    44   26   43 1
@<TRIPOS>MOLECULE
ZINC28776964
   57    58     0     0     0
SMALL
USER_CHARGES
N-[(1S)-1-[[(3,4-dimethoxybenzoyl)amino]carbamoyl]-2-methyl-propyl]-2-methyl-benzamide
@<TRIPOS>ATOM
      1 C1          2.6677   -0.3625    0.2546 C.3       1 <0>        -0.1114
      2 C2          2.7425    1.0606   -0.2354 C.ar      1 <0>        -0.0214
      3 C3          3.9614    1.7027   -0.3110 C.ar      1 <0>        -0.1316
      4 C4          4.0318    3.0090   -0.7610 C.ar      1 <0>        -0.0871
      5 C5          2.8820    3.6803   -1.1381 C.ar      1 <0>        -0.1351
      6 C6          1.6577    3.0482   -1.0723 C.ar      1 <0>        -0.0807
      7 C7          1.5791    1.7319   -0.6141 C.ar      1 <0>        -0.1419
      8 C8          0.2696    1.0499   -0.5361 C.2       1 <0>         0.5655
      9 O1          0.2147   -0.1288   -0.2443 O.2       1 <0>        -0.5256
     10 N1         -0.8628    1.7338   -0.7941 N.am      1 <0>        -0.7264
     11 C9         -2.1599    1.0565   -0.7227 C.3       1 <0>         0.1496
     12 H1         -2.0178    0.0284   -1.0872 H         1 <0>         0.1142
     13 C10        -2.6595    1.0626    0.7234 C.3       1 <0>        -0.0970
     14 C11        -4.0541    0.4363    0.7838 C.3       1 <0>        -0.1625
     15 C12        -1.6991    0.2543    1.5982 C.3       1 <0>        -0.1396
     16 C13        -3.1514    1.7765   -1.5998 C.2       1 <0>         0.5201
     17 O2         -3.0117    2.9593   -1.8287 O.2       1 <0>        -0.5422
     18 N2         -4.1935    1.1061   -2.1299 N.am      1 <0>        -0.5250
     19 N3         -5.0560    1.7485   -3.0279 N.am      1 <0>        -0.5300
     20 C14        -6.0981    1.0780   -3.5580 C.2       1 <0>         0.5685
     21 O3         -6.2897   -0.0843   -3.2569 O.2       1 <0>        -0.5410
     22 C15        -7.0067    1.7548   -4.5041 C.ar      1 <0>        -0.1296
     23 C16        -6.7913    3.0919   -4.8467 C.ar      1 <0>        -0.0768
     24 C17        -7.6375    3.7209   -5.7338 C.ar      1 <0>        -0.1810
     25 C18        -8.7115    3.0319   -6.2808 C.ar      1 <0>         0.1337
     26 C19        -8.9354    1.6991   -5.9392 C.ar      1 <0>         0.0944
     27 C20        -8.0876    1.0611   -5.0546 C.ar      1 <0>        -0.1103
     28 O4         -9.9881    1.0267   -6.4772 O.3       1 <0>        -0.3024
     29 C21       -10.1570   -0.3364   -6.0831 C.3       1 <0>         0.0190
     30 O5         -9.5455    3.6576   -7.1510 O.3       1 <0>        -0.2994
     31 C22        -9.2579    5.0235   -7.4570 C.3       1 <0>         0.0187
     32 H2          3.6784   -0.7181    0.5038 H         1 <0>         0.0573
     33 H3          2.2387   -0.9994   -0.5330 H         1 <0>         0.0843
     34 H4          2.0314   -0.4088    1.1507 H         1 <0>         0.0789
     35 H5          4.8626    1.1843   -0.0186 H         1 <0>         0.1300
     36 H6          4.9884    3.5069   -0.8187 H         1 <0>         0.1280
     37 H7          2.9438    4.7000   -1.4885 H         1 <0>         0.1290
     38 H8          0.7616    3.5718   -1.3707 H         1 <0>         0.1261
     39 H9         -0.8131    2.8005   -1.0583 H         1 <0>         0.4304
     40 H10        -2.7065    2.0984    1.0907 H         1 <0>         0.0811
     41 H11        -4.4133    0.4407    1.8235 H         1 <0>         0.0698
     42 H12        -4.0071   -0.5995    0.4165 H         1 <0>         0.0639
     43 H13        -4.7446    1.0174    0.1549 H         1 <0>         0.0589
     44 H14        -2.0583    0.2587    2.6379 H         1 <0>         0.0537
     45 H15        -0.6964    0.7046    1.5548 H         1 <0>         0.0591
     46 H16        -1.6521   -0.7815    1.2308 H         1 <0>         0.0665
     47 H17        -4.3669    0.0546   -1.8575 H         1 <0>         0.4613
     48 H18        -4.8826    2.8001   -3.3003 H         1 <0>         0.4558
     49 H19        -5.9589    3.6314   -4.4194 H         1 <0>         0.1312
     50 H20        -7.4674    4.7534   -6.0009 H         1 <0>         0.1457
     51 H21        -8.2600    0.0286   -4.7888 H         1 <0>         0.1519
     52 H22       -11.0388   -0.7575   -6.5882 H         1 <0>         0.1064
     53 H23       -10.2989   -0.3882   -4.9935 H         1 <0>         0.0592
     54 H24        -9.2633   -0.9128   -6.3643 H         1 <0>         0.0592
     55 H25       -10.0053    5.4051   -8.1682 H         1 <0>         0.1067
     56 H26        -8.2556    5.0958   -7.9044 H         1 <0>         0.0600
     57 H27        -9.2915    5.6209   -6.5340 H         1 <0>         0.0601
@<TRIPOS>BOND
     1    1    2 1
     2    1   32 1
     3    1   33 1
     4    1   34 1
     5    2    7 ar
     6    2    3 ar
     7    3    4 ar
     8    3   35 1
     9    4    5 ar
    10    4   36 1
    11    5    6 ar
    12    5   37 1
    13    6    7 ar
    14    6   38 1
    15    7    8 1
    16    8    9 2
    17    8   10 am
    18   10   11 1
    19   10   39 1
    20   11   12 1
    21   11   13 1
    22   11   16 1
    23   13   14 1
    24   13   15 1
    25   13   40 1
    26   14   41 1
    27   14   42 1
    28   14   43 1
    29   15   44 1
    30   15   45 1
    31   15   46 1
    32   16   17 2
    33   16   18 am
    34   18   19 1
    35   18   47 1
    36   19   20 am
    37   19   48 1
    38   20   21 2
    39   20   22 1
    40   22   27 ar
    41   22   23 ar
    42   23   24 ar
    43   23   49 1
    44   24   25 ar
    45   24   50 1
    46   25   26 ar
    47   25   30 1
    48   26   27 ar
    49   26   28 1
    50   27   51 1
    51   28   29 1
    52   29   52 1
    53   29   53 1
    54   29   54 1
    55   30   31 1
    56   31   55 1
    57   31   56 1
    58   31   57 1
@<TRIPOS>MOLECULE
ZINC46344159
   55    57     0     0     0
SMALL
USER_CHARGES

@<TRIPOS>ATOM
      1 C1         -0.0224    1.5104   -0.0132 C.3       1 <0>        -0.1631
      2 C2         -0.0101   -0.0194    0.0032 C.3       1 <0>         0.1328
      3 H1          0.4868   -0.3884   -0.8940 H         1 <0>         0.1000
      4 C3         -1.4482   -0.5406    0.0407 C.3       1 <0>         0.1234
      5 N1         -1.4356   -1.9992    0.1766 N.am      1 <0>        -0.7368
      6 C4         -2.5969   -2.6810    0.2312 C.2       1 <0>         0.7136
      7 O1         -3.6550   -2.0854    0.1676 O.2       1 <0>        -0.5675
      8 N2         -2.5853   -4.0229    0.3563 N.am      1 <0>        -0.5304
      9 N3         -1.3661   -4.7091    0.4296 N.am      1 <0>        -0.5285
     10 C5         -1.3545   -6.0510    0.5547 C.2       1 <0>         0.5194
     11 O2         -2.3995   -6.6645    0.6038 O.2       1 <0>        -0.5115
     12 C6         -0.0430   -6.7891    0.6336 C.3       1 <0>        -0.0532
     13 C7         -0.3056   -8.2668    0.7692 C.2       1 <0>         0.2938
     14 N4         -0.4492   -8.8978    1.8980 N.2       1 <0>        -0.4741
     15 C8         -0.6728  -10.2156    1.6590 C.ar      1 <0>         0.0473
     16 C9         -0.8902  -11.3215    2.4852 C.ar      1 <0>        -0.0608
     17 C10        -1.0895  -12.5549    1.9329 C.ar      1 <0>        -0.1286
     18 C11        -1.0781  -12.7241    0.5555 C.ar      1 <0>        -0.0982
     19 C12        -0.8656  -11.6475   -0.2788 C.ar      1 <0>        -0.1121
     20 C13        -0.6617  -10.3862    0.2644 C.ar      1 <0>         0.0533
     21 N5         -0.4329   -9.1344   -0.2708 N.pl3     1 <0>        -0.4836
     22 C14        -0.3408   -8.8024   -1.6947 C.3       1 <0>         0.0763
     23 N6          0.7106   -0.4894    1.1889 N.pl3     1 <0>        -0.6269
     24 C15         0.2961   -0.0452    2.5220 C.3       1 <0>         0.0890
     25 C16         1.7930   -1.3609    1.0484 C.ar      1 <0>         0.2095
     26 C17         2.2683   -1.6823   -0.2167 C.ar      1 <0>        -0.2076
     27 C18         3.3390   -2.5440   -0.3521 C.ar      1 <0>        -0.0713
     28 C19         3.9375   -3.0871    0.7700 C.ar      1 <0>        -0.1773
     29 C20         3.4669   -2.7693    2.0309 C.ar      1 <0>        -0.0696
     30 C21         2.4003   -1.9038    2.1736 C.ar      1 <0>        -0.1950
     31 H2          1.0021    1.8817   -0.0398 H         1 <0>         0.0684
     32 H3         -0.5587    1.8601   -0.8953 H         1 <0>         0.0735
     33 H4         -0.5193    1.8794    0.8841 H         1 <0>         0.0653
     34 H5         -1.9719   -0.1010    0.8895 H         1 <0>         0.0739
     35 H6         -1.9583   -0.2661   -0.8827 H         1 <0>         0.0815
     36 H7         -0.5914   -2.4743    0.2274 H         1 <0>         0.3925
     37 H8         -3.4211   -4.5135    0.3956 H         1 <0>         0.4444
     38 H9         -0.5302   -4.2184    0.3904 H         1 <0>         0.4205
     39 H10         0.5331   -6.6042   -0.2731 H         1 <0>         0.1217
     40 H11         0.5195   -6.4391    1.4992 H         1 <0>         0.1393
     41 H12        -0.9004  -11.2013    3.5584 H         1 <0>         0.1299
     42 H13        -1.2572  -13.4072    2.5747 H         1 <0>         0.1306
     43 H14        -1.2365  -13.7059    0.1344 H         1 <0>         0.1311
     44 H15        -0.8581  -11.7845   -1.3501 H         1 <0>         0.1218
     45 H16         0.6939   -8.8978   -2.0239 H         1 <0>         0.0787
     46 H17        -0.9688   -9.4843   -2.2681 H         1 <0>         0.0875
     47 H18        -0.6790   -7.7782   -1.8516 H         1 <0>         0.0838
     48 H19        -0.4442   -0.7380    2.9219 H         1 <0>         0.0486
     49 H20         1.1631   -0.0190    3.1821 H         1 <0>         0.0695
     50 H21        -0.1389    0.9520    2.4537 H         1 <0>         0.0709
     51 H22         1.8008   -1.2591   -1.0935 H         1 <0>         0.1217
     52 H23         3.7090   -2.7943   -1.3354 H         1 <0>         0.1206
     53 H24         4.7743   -3.7613    0.6613 H         1 <0>         0.1184
     54 H25         3.9367   -3.1952    2.9051 H         1 <0>         0.1213
     55 H26         2.0361   -1.6525    3.1588 H         1 <0>         0.1220
@<TRIPOS>BOND
     1    1    2 1
     2    1   31 1
     3    1   32 1
     4    1   33 1
     5    2    3 1
     6    2    4 1
     7    2   23 1
     8    4    5 1
     9    4   34 1
    10    4   35 1
    11    5    6 am
    12    5   36 1
    13    6    7 2
    14    6    8 am
    15    8    9 1
    16    8   37 1
    17    9   10 am
    18    9   38 1
    19   10   11 2
    20   10   12 1
    21   12   13 1
    22   12   39 1
    23   12   40 1
    24   13   21 1
    25   13   14 2
    26   14   15 1
    27   15   20 ar
    28   15   16 ar
    29   16   17 ar
    30   16   41 1
    31   17   18 ar
    32   17   42 1
    33   18   19 ar
    34   18   43 1
    35   19   20 ar
    36   19   44 1
    37   20   21 1
    38   21   22 1
    39   22   45 1
    40   22   46 1
    41   22   47 1
    42   23   24 1
    43   23   25 1
    44   24   48 1
    45   24   49 1
    46   24   50 1
    47   25   30 ar
    48   25   26 ar
    49   26   27 ar
    50   26   51 1
    51   27   28 ar
    52   27   52 1
    53   28   29 ar
    54   28   53 1
    55   29   30 ar
    56   29   54 1
    57   30   55 1
@<TRIPOS>MOLECULE
ZINC63203689
   49    51     0     0     0
SMALL
USER_CHARGES

@<TRIPOS>ATOM
      1 C1         -0.3269    1.5087    1.2777 C.3       1 <0>        -0.1542
      2 C2         -0.3152   -0.0212    1.2831 C.3       1 <0>        -0.1109
      3 C3         -1.5643   -0.5433    0.5701 C.3       1 <0>        -0.1401
      4 C4         -1.5528   -2.0502    0.5754 C.2       1 <0>         0.5109
      5 O1         -0.6358   -2.6479    1.0980 O.2       1 <0>        -0.5131
      6 N1         -2.5614   -2.7338   -0.0006 N.am      1 <0>        -0.6713
      7 C5         -2.4951   -4.1280   -0.0991 C.ar      1 <0>         0.1644
      8 C6         -1.2612   -4.7670   -0.1029 C.ar      1 <0>        -0.1353
      9 C7         -1.1946   -6.1435   -0.2006 C.ar      1 <0>        -0.0850
     10 C8         -2.3537   -6.8893   -0.2948 C.ar      1 <0>        -0.1314
     11 C9         -3.5909   -6.2566   -0.2915 C.ar      1 <0>         0.1551
     12 C10        -3.6612   -4.8740   -0.1873 C.ar      1 <0>        -0.1369
     13 C11        -5.0013   -4.1847   -0.1767 C.3       1 <0>        -0.1180
     14 N2         -4.7628   -7.0113   -0.3877 N.am      1 <0>        -0.6402
     15 C12        -4.8309   -8.2269    0.1904 C.2       1 <0>         0.5090
     16 O2         -3.8480   -8.7029    0.7200 O.2       1 <0>        -0.4939
     17 C13        -6.1158   -8.9881    0.1795 C.2       1 <0>         0.5135
     18 O3         -7.0986   -8.5121   -0.3500 O.2       1 <0>        -0.5142
     19 N3         -6.1839  -10.2037    0.7576 N.am      1 <0>        -0.6918
     20 C14        -7.4442  -10.9504    0.7469 C.3       1 <0>         0.2074
     21 C15        -7.2535  -12.2680    1.4530 C.2       1 <0>         0.0120
     22 C16        -7.5323  -12.5154    2.7435 C.2       1 <0>        -0.0107
     23 N4         -7.2153  -13.8472    2.9977 N.pl3     1 <0>        -0.4351
     24 C17        -7.2476  -14.7279    4.0568 C.2       1 <0>         0.0245
     25 C18        -6.8416  -15.9881    3.9088 C.2       1 <0>        -0.1698
     26 S1         -6.3645  -16.0220    2.1879 S.3       1 <0>         0.1354
     27 C19        -6.7507  -14.3303    1.8029 C.2       1 <0>         0.1766
     28 N5         -6.7818  -13.3950    0.8979 N.2       1 <0>        -0.4283
     29 H1          0.5629    1.8806    1.7857 H         1 <0>         0.0598
     30 H2         -0.3350    1.8684    0.2488 H         1 <0>         0.0555
     31 H3         -1.2170    1.8671    1.7949 H         1 <0>         0.0552
     32 H4          0.5748   -0.3796    0.7659 H         1 <0>         0.0710
     33 H5         -0.3072   -0.3809    2.3120 H         1 <0>         0.0707
     34 H6         -2.4543   -0.1849    1.0873 H         1 <0>         0.0970
     35 H7         -1.5723   -0.1836   -0.4588 H         1 <0>         0.0987
     36 H8         -3.3333   -2.2593   -0.3468 H         1 <0>         0.4116
     37 H9         -0.3532   -4.1869   -0.0297 H         1 <0>         0.1476
     38 H10        -0.2342   -6.6375   -0.2037 H         1 <0>         0.1318
     39 H11        -2.2983   -7.9652   -0.3714 H         1 <0>         0.1411
     40 H12        -5.2943   -3.9443   -1.1987 H         1 <0>         0.0751
     41 H13        -5.7457   -4.8444    0.2691 H         1 <0>         0.0715
     42 H14        -4.9331   -3.2668    0.4072 H         1 <0>         0.0689
     43 H15        -5.5274   -6.6604   -0.8706 H         1 <0>         0.4229
     44 H16        -5.3983  -10.5841    1.1808 H         1 <0>         0.4163
     45 H17        -8.2136  -10.3720    1.2585 H         1 <0>         0.0962
     46 H18        -7.7506  -11.1313   -0.2834 H         1 <0>         0.0966
     47 H19        -7.9304  -11.8082    3.4561 H         1 <0>         0.1873
     48 H20        -7.6061  -14.3925    5.0187 H         1 <0>         0.1768
     49 H21        -6.8093  -16.7827    4.6395 H         1 <0>         0.2196
@<TRIPOS>BOND
     1    1    2 1
     2    1   29 1
     3    1   30 1
     4    1   31 1
     5    2    3 1
     6    2   32 1
     7    2   33 1
     8    3    4 1
     9    3   34 1
    10    3   35 1
    11    4    5 2
    12    4    6 am
    13    6    7 1
    14    6   36 1
    15    7   12 ar
    16    7    8 ar
    17    8    9 ar
    18    8   37 1
    19    9   10 ar
    20    9   38 1
    21   10   11 ar
    22   10   39 1
    23   11   12 ar
    24   11   14 1
    25   12   13 1
    26   13   40 1
    27   13   41 1
    28   13   42 1
    29   14   15 am
    30   14   43 1
    31   15   16 2
    32   15   17 1
    33   17   18 2
    34   17   19 am
    35   19   20 1
    36   19   44 1
    37   20   21 1
    38   20   45 1
    39   20   46 1
    40   21   28 1
    41   21   22 2
    42   22   23 1
    43   22   47 1
    44   23   27 1
    45   23   24 1
    46   24   25 2
    47   24   48 1
    48   25   26 1
    49   25   49 1
    50   26   27 1
    51   27   28 2
@<TRIPOS>MOLECULE
ZINC00336828
   29    30     0     0     0
SMALL
USER_CHARGES
1-[1-(2-chloroethyl)-2-oxo-pyrrolidin-3-yl]pyrimidine-2,4-dione
@<TRIPOS>ATOM
      1 C1          2.2536    4.7319    3.2025 C.2       1 <0>        -0.2806
      2 C2          1.4969    4.0573    2.3106 C.2       1 <0>         0.1682
      3 N1          1.5064    4.4307    0.9942 N.am      1 <0>        -0.5192
      4 C3          2.2544    5.4704    0.5823 C.2       1 <0>         0.7039
      5 O1          2.2445    5.7881   -0.5913 O.2       1 <0>        -0.5350
      6 N2          3.0132    6.1640    1.4510 N.am      1 <0>        -0.6602
      7 H1          3.5626    6.9344    1.1275 H         1 <0>         0.4401
      8 C4          3.0356    5.8242    2.7557 C.2       1 <0>         0.5499
      9 O2          3.7225    6.4507    3.5423 O.2       1 <0>        -0.5091
     10 C5          0.6899    3.6953    0.0254 C.3       1 <0>         0.1054
     11 H2          0.7919    4.1324   -0.9679 H         1 <0>         0.1574
     12 C6         -0.7925    3.6840    0.4651 C.3       1 <0>        -0.1428
     13 C7         -1.2406    2.2723    0.0198 C.3       1 <0>         0.0997
     14 N3         -0.0178    1.4608    0.0101 N.am      1 <0>        -0.6151
     15 C8          1.0815    2.2342    0.0037 C.2       1 <0>         0.5059
     16 O3          2.2216    1.8209   -0.0161 O.2       1 <0>        -0.4961
     17 C9          0.0021   -0.0041    0.0020 C.3       1 <0>         0.1172
     18 C10         0.0221   -0.5218    1.4416 C.3       1 <0>        -0.0553
     19 Cl1         0.0466   -2.3246    1.4317 Cl        1 <0>        -0.1621
     20 H3          2.2586    4.4449    4.2437 H         1 <0>         0.1755
     21 H4          0.8905    3.2241    2.6338 H         1 <0>         0.1726
     22 H5         -0.8800    3.8028    1.5451 H         1 <0>         0.0961
     23 H6         -1.3604    4.4536   -0.0577 H         1 <0>         0.1113
     24 H7         -1.6766    2.3094   -0.9785 H         1 <0>         0.0885
     25 H8         -1.9587    1.8639    0.7308 H         1 <0>         0.0930
     26 H9         -0.8875   -0.3767   -0.5057 H         1 <0>         0.0985
     27 H10         0.8922   -0.3525   -0.5218 H         1 <0>         0.0987
     28 H11         0.9118   -0.1491    1.9494 H         1 <0>         0.0962
     29 H12        -0.8680   -0.1733    1.9655 H         1 <0>         0.0972
@<TRIPOS>BOND
     1    1    8 1
     2    1    2 2
     3    1   20 1
     4    2    3 1
     5    2   21 1
     6    3    4 am
     7    3   10 1
     8    4    5 2
     9    4    6 am
    10    6    7 1
    11    6    8 am
    12    8    9 2
    13   10   11 1
    14   10   15 1
    15   10   12 1
    16   12   13 1
    17   12   22 1
    18   12   23 1
    19   13   14 1
    20   13   24 1
    21   13   25 1
    22   14   15 am
    23   14   17 1
    24   15   16 2
    25   17   18 1
    26   17   26 1
    27   17   27 1
    28   18   19 1
    29   18   28 1
    30   18   29 1
@<TRIPOS>MOLECULE
ZINC19437709
   34    36     0     0     0
SMALL
USER_CHARGES
2-(2-oxo-2-piperazin-1-yl-ethyl)-[1,2,4]triazolo[4,5-a]pyridin-3-one
@<TRIPOS>ATOM
      1 C1          2.8002    6.0317   -6.7642 C.2       1 <0>        -0.0404
      2 C2          3.0160    4.7900   -7.3963 C.2       1 <0>        -0.1808
      3 C3          2.3851    3.6837   -6.9653 C.2       1 <0>         0.1280
      4 N1          1.5169    3.7410   -5.9009 N.am      1 <0>        -0.4794
      5 C4          1.2861    4.9451   -5.2620 C.2       1 <0>         0.3010
      6 C5          1.9494    6.1146   -5.7125 C.2       1 <0>        -0.1233
      7 N2          0.4252    4.7419   -4.2922 N.2       1 <0>        -0.2803
      8 N3          0.0927    3.3802   -4.2900 N.am      1 <0>        -0.4220
      9 C6          0.7774    2.7922   -5.2924 C.2       1 <0>         0.6532
     10 O1          0.7350    1.6120   -5.5944 O.2       1 <0>        -0.5370
     11 C7         -0.8349    2.7173   -3.3701 C.3       1 <0>         0.1427
     12 C8         -0.0787    2.2227   -2.1640 C.2       1 <0>         0.5022
     13 O2          1.1173    2.4059   -2.0811 O.2       1 <0>        -0.5204
     14 N4         -0.7315    1.5767   -1.1776 N.am      1 <0>        -0.6133
     15 C9         -0.0127    1.0858    0.0080 C.3       1 <0>         0.0715
     16 C10        -0.7378    1.5839    1.2628 C.3       1 <0>         0.0348
     17 N5         -2.1567    1.1949    1.1863 N.3       1 <0>        -0.6661
     18 C11        -2.8256    1.8323    0.0442 C.3       1 <0>         0.0318
     19 C12        -2.1816    1.3444   -1.2579 C.3       1 <0>         0.0623
     20 H1          3.3120    6.9148   -7.1171 H         1 <0>         0.1512
     21 H2          3.6948    4.7268   -8.2340 H         1 <0>         0.1581
     22 H3          2.5619    2.7403   -7.4605 H         1 <0>         0.1708
     23 H4          1.7786    7.0617   -5.2224 H         1 <0>         0.1595
     24 H5         -1.6078    3.4319   -3.0507 H         1 <0>         0.1324
     25 H6         -1.3105    1.8660   -3.8792 H         1 <0>         0.1299
     26 H7          0.0037   -0.0140   -0.0025 H         1 <0>         0.0723
     27 H8          1.0187    1.4680   -0.0042 H         1 <0>         0.0986
     28 H9         -0.2783    1.1334    2.1549 H         1 <0>         0.0946
     29 H10        -0.6572    2.6793    1.3224 H         1 <0>         0.0795
     30 H11        -2.2320    0.1036    1.0707 H         1 <0>         0.3429
     31 H12        -3.8929    1.5660    0.0491 H         1 <0>         0.0960
     32 H13        -2.7199    2.9246    0.1202 H         1 <0>         0.0801
     33 H14        -2.5952    1.9002   -2.1123 H         1 <0>         0.0904
     34 H15        -2.3739    0.2697   -1.3919 H         1 <0>         0.0791
@<TRIPOS>BOND
     1    1    6 2
     2    1    2 1
     3    1   20 1
     4    2    3 2
     5    2   21 1
     6    3    4 1
     7    3   22 1
     8    4    9 am
     9    4    5 1
    10    5    6 1
    11    5    7 2
    12    6   23 1
    13    7    8 1
    14    8    9 am
    15    8   11 1
    16    9   10 2
    17   11   12 1
    18   11   24 1
    19   11   25 1
    20   12   13 2
    21   12   14 am
    22   14   19 1
    23   14   15 1
    24   15   16 1
    25   15   26 1
    26   15   27 1
    27   16   17 1
    28   16   28 1
    29   16   29 1
    30   17   18 1
    31   17   30 1
    32   18   19 1
    33   18   31 1
    34   18   32 1
    35   19   33 1
    36   19   34 1
@<TRIPOS>MOLECULE
ZINC41077707
   32    34     0     0     0
SMALL
USER_CHARGES

@<TRIPOS>ATOM
      1 C1          0.1175    1.3171    1.4368 C.3       1 <0>        -0.0871
      2 C2          0.0944   -0.1171    0.9746 C.2       1 <0>         0.0537
      3 C3         -1.0203   -0.8509    0.7478 C.2       1 <0>        -0.2354
      4 C4         -0.6038   -2.1223    0.3343 C.2       1 <0>        -0.1062
      5 C5          0.7808   -2.1001    0.3292 C.2       1 <0>        -0.0631
      6 O1          1.1733   -0.8677    0.7170 O.3       1 <0>        -0.1293
      7 C6          1.6268   -3.1685   -0.0227 C.2       1 <0>         0.1241
      8 C7          2.9920   -2.9634   -0.1325 C.2       1 <0>        -0.2474
      9 C8          3.9465   -4.0973   -0.2634 C.2       1 <0>         0.4649
     10 N1          3.6569   -5.2118   -0.8837 N.2       1 <0>        -0.6366
     11 N2          5.1950   -3.8524    0.3474 N.pl3     1 <0>        -0.4303
     12 C9          5.5686   -2.5375    0.5258 C.2       1 <0>         0.3758
     13 N3          4.8574   -1.4663    0.2805 N.2       1 <0>        -0.5213
     14 C10         3.5789   -1.6032   -0.1320 C.2       1 <0>         0.5428
     15 O2          2.9247   -0.6367   -0.4902 O.2       1 <0>        -0.4128
     16 S1          7.2094   -2.7027    1.1772 S.3       1 <0>         0.2033
     17 C11         7.2489   -4.4879    1.2624 C.2       1 <0>        -0.4505
     18 N4          6.0863   -4.8134    0.7742 N.2       1 <0>        -0.1174
     19 S2          8.5329   -5.5388    1.8553 S.o2      1 <0>         2.5209
     20 O3          9.1753   -4.7862    2.8753 O.2       1 <0>        -0.8927
     21 O4          7.8852   -6.7664    2.1598 O.2       1 <0>        -0.8911
     22 C12         9.6487   -5.7548    0.4415 C.3       1 <0>        -0.6340
     23 H1          1.1506    1.6520    1.5304 H         1 <0>         0.0829
     24 H2         -0.4025    1.9414    0.7102 H         1 <0>         0.0953
     25 H3         -0.3788    1.3951    2.4041 H         1 <0>         0.0933
     26 H4         -2.0411   -0.5180    0.8648 H         1 <0>         0.1594
     27 H5         -1.2377   -2.9563    0.0715 H         1 <0>         0.1637
     28 H6          1.2114   -4.1482   -0.2071 H         1 <0>         0.1758
     29 H7          4.3164   -5.9208   -0.9404 H         1 <0>         0.3633
     30 H8         10.0337   -4.7836    0.1308 H         1 <0>         0.1425
     31 H9         10.4790   -6.3998    0.7292 H         1 <0>         0.1522
     32 H10         9.1037   -6.2110   -0.3850 H         1 <0>         0.1413
@<TRIPOS>BOND
     1    1    2 1
     2    1   23 1
     3    1   24 1
     4    1   25 1
     5    2    6 1
     6    2    3 2
     7    3    4 1
     8    3   26 1
     9    4    5 2
    10    4   27 1
    11    5    6 1
    12    5    7 1
    13    7    8 2
    14    7   28 1
    15    8   14 1
    16    8    9 1
    17    9   10 2
    18    9   11 1
    19   10   29 1
    20   11   18 1
    21   11   12 1
    22   12   13 2
    23   12   16 1
    24   13   14 1
    25   14   15 2
    26   16   17 1
    27   17   18 2
    28   17   19 1
    29   19   20 2
    30   19   21 2
    31   19   22 1
    32   22   30 1
    33   22   31 1
    34   22   32 1
@<TRIPOS>MOLECULE
ZINC48575499
   34    36     0     0     0
SMALL
USER_CHARGES

@<TRIPOS>ATOM
      1 C1         -0.0014    1.7194   -0.6064 C.ar      1 <0>        -0.1378
      2 C2          1.2185    2.3464   -0.4687 C.ar      1 <0>        -0.1003
      3 C3          2.3885    1.6042   -0.3600 C.ar      1 <0>        -0.0770
      4 C4          2.3263    0.2282   -0.3843 C.ar      1 <0>        -0.0864
      5 C5          1.1015   -0.4062   -0.5301 C.ar      1 <0>        -0.1381
      6 C6         -0.0639    0.3340   -0.6406 C.ar      1 <0>         0.1080
      7 O1         -1.2613   -0.2931   -0.7811 O.3       1 <0>        -0.4976
      8 C7          3.5532   -0.6374   -0.2419 C.3       1 <0>         0.1364
      9 N1          4.7583    0.1897   -0.3650 N.am      1 <0>        -0.6042
     10 C8          4.7766    1.4700    0.3617 C.3       1 <0>         0.1122
     11 C9          3.6842    2.3607   -0.2277 C.3       1 <0>        -0.0978
     12 C10         5.8067   -0.2063   -1.1137 C.2       1 <0>         0.5686
     13 O2          6.7448    0.5456   -1.2916 O.2       1 <0>        -0.5129
     14 C11         5.8155   -1.5566   -1.7191 C.ar      1 <0>        -0.0943
     15 C12         6.4588   -1.7933   -2.9388 C.ar      1 <0>        -0.0650
     16 C13         6.4426   -3.0679   -3.4678 C.ar      1 <0>         0.0738
     17 N2          5.8313   -4.0546   -2.8394 N.ar      1 <0>        -0.1067
     18 O3          5.8394   -5.3465   -3.4190 O.3       1 <0>        -0.5307
     19 C14         5.2132   -3.8742   -1.6873 C.ar      1 <0>         0.0717
     20 C15         5.1856   -2.6329   -1.0847 C.ar      1 <0>        -0.1020
     21 H1         -0.9059    2.3046   -0.6831 H         1 <0>         0.1319
     22 H2          1.2655    3.4251   -0.4453 H         1 <0>         0.1299
     23 H3          1.0562   -1.4849   -0.5576 H         1 <0>         0.1323
     24 H4         -1.5139   -0.4572   -1.7000 H         1 <0>         0.3935
     25 H5          3.5440   -1.1219    0.7344 H         1 <0>         0.0933
     26 H6          3.5535   -1.3974   -1.0233 H         1 <0>         0.1029
     27 H7          4.5799    1.2963    1.4196 H         1 <0>         0.0830
     28 H8          5.7482    1.9489    0.2404 H         1 <0>         0.1045
     29 H9          3.9979    2.7093   -1.2116 H         1 <0>         0.0847
     30 H10         3.5321    3.2207    0.4247 H         1 <0>         0.0928
     31 H11         6.9604   -0.9904   -3.4587 H         1 <0>         0.1750
     32 H12         6.9365   -3.2604   -4.4088 H         1 <0>         0.1921
     33 H13         4.7260   -4.7102   -1.2075 H         1 <0>         0.1910
     34 H14         4.6816   -2.4934   -0.1398 H         1 <0>         0.1732
@<TRIPOS>BOND
     1    1    6 ar
     2    1    2 ar
     3    1   21 1
     4    2    3 ar
     5    2   22 1
     6    3   11 1
     7    3    4 ar
     8    4    5 ar
     9    4    8 1
    10    5    6 ar
    11    5   23 1
    12    6    7 1
    13    7   24 1
    14    8    9 1
    15    8   25 1
    16    8   26 1
    17    9   10 1
    18    9   12 am
    19   10   11 1
    20   10   27 1
    21   10   28 1
    22   11   29 1
    23   11   30 1
    24   12   13 2
    25   12   14 1
    26   14   20 ar
    27   14   15 ar
    28   15   16 ar
    29   15   31 1
    30   16   17 ar
    31   16   32 1
    32   17   18 1
    33   17   19 ar
    34   19   20 ar
    35   19   33 1
    36   20   34 1
@<TRIPOS>MOLECULE
ZINC42111198
   38    39     0     0     0
SMALL
USER_CHARGES

@<TRIPOS>ATOM
      1 C1         -1.4923    1.0776    0.4853 C.3       1 <0>        -0.0865
      2 C2         -0.7450   -0.2047    0.2235 C.2       1 <0>         0.0048
      3 C3         -1.0380   -1.0920   -0.7408 C.2       1 <0>        -0.0876
      4 C4         -0.0517   -2.1757   -0.6200 C.2       1 <0>        -0.2105
      5 C5          0.7680   -1.8236    0.4422 C.2       1 <0>         0.1062
      6 N1          0.3406   -0.6445    0.9260 N.pl3     1 <0>        -0.4358
      7 C6          0.9515    0.0672    2.0513 C.3       1 <0>         0.2009
      8 C7          0.3165   -0.3639    3.3074 C.1       1 <0>         0.1752
      9 N2         -0.1735   -0.6966    4.2768 N.1       1 <0>        -0.3865
     10 C8          1.9373   -2.6210    0.9597 C.3       1 <0>        -0.1026
     11 C9          0.0418   -3.3386   -1.4220 C.2       1 <0>         0.1769
     12 C10        -0.0700   -3.2410   -2.7990 C.2       1 <0>        -0.3065
     13 C11        -0.0880   -1.9326   -3.4790 C.2       1 <0>         0.5624
     14 O1         -0.0045   -0.8977   -2.8450 O.2       1 <0>        -0.4656
     15 N3         -0.1989   -1.9146   -4.8233 N.am      1 <0>        -0.5652
     16 C12        -0.2912   -3.0472   -5.5341 C.2       1 <0>         0.7092
     17 O2         -0.3885   -2.9616   -6.7426 O.2       1 <0>        -0.5310
     18 N4         -0.2815   -4.2692   -4.9835 N.am      1 <0>        -0.5648
     19 C13        -0.1702   -4.4411   -3.6501 C.2       1 <0>         0.5693
     20 O3         -0.1576   -5.5556   -3.1626 O.2       1 <0>        -0.4900
     21 C14        -0.3880   -5.4455   -5.8501 C.3       1 <0>         0.0771
     22 C15        -0.2196   -0.6274   -5.5224 C.3       1 <0>         0.0812
     23 H1         -1.0505    1.8821   -0.1026 H         1 <0>         0.0771
     24 H2         -2.5377    0.9530    0.2029 H         1 <0>         0.0829
     25 H3         -1.4292    1.3250    1.5450 H         1 <0>         0.0611
     26 H4         -1.8393   -1.0235   -1.4616 H         1 <0>         0.1432
     27 H5          2.0175   -0.1570    2.0874 H         1 <0>         0.1385
     28 H6          0.8101    1.1403    1.9224 H         1 <0>         0.1400
     29 H7          2.8444   -2.3161    0.4378 H         1 <0>         0.0880
     30 H8          2.0552   -2.4413    2.0283 H         1 <0>         0.0731
     31 H9          1.7582   -3.6823    0.7873 H         1 <0>         0.0909
     32 H10         0.2004   -4.3018   -0.9599 H         1 <0>         0.1506
     33 H11        -0.4648   -5.1254   -6.8893 H         1 <0>         0.1042
     34 H12         0.4974   -6.0692   -5.7266 H         1 <0>         0.0804
     35 H13        -1.2758   -6.0171   -5.5795 H         1 <0>         0.0803
     36 H14         0.7990   -0.3378   -5.7807 H         1 <0>         0.0730
     37 H15        -0.8135   -0.7174   -6.4320 H         1 <0>         0.0931
     38 H16        -0.6597    0.1309   -4.8747 H         1 <0>         0.0932
@<TRIPOS>BOND
     1    1    2 1
     2    1   23 1
     3    1   24 1
     4    1   25 1
     5    2    6 1
     6    2    3 2
     7    3    4 1
     8    3   26 1
     9    4    5 2
    10    4   11 1
    11    5    6 1
    12    5   10 1
    13    6    7 1
    14    7    8 1
    15    7   27 1
    16    7   28 1
    17    8    9 3
    18   10   29 1
    19   10   30 1
    20   10   31 1
    21   11   12 2
    22   11   32 1
    23   12   19 1
    24   12   13 1
    25   13   14 2
    26   13   15 am
    27   15   16 am
    28   15   22 1
    29   16   17 2
    30   16   18 am
    31   18   19 am
    32   18   21 1
    33   19   20 2
    34   21   33 1
    35   21   34 1
    36   21   35 1
    37   22   36 1
    38   22   37 1
    39   22   38 1
@<TRIPOS>MOLECULE
ZINC06149412
   72    75     0     0     0
SMALL
USER_CHARGES
ethyl 1-[(6,8-dimethyl-2-oxo-1H-quinolin-3-yl)-[1-(1,1-dimethylpropyl)tetrazol-5-yl]-methyl]piperidine-4-carboxylate
@<TRIPOS>ATOM
      1 C1          5.3773   -0.9286   -0.8881 C.3       1 <0>        -0.1579
      2 C2          3.8793   -0.8822   -0.5803 C.3       1 <0>        -0.1220
      3 C3          3.4176    0.5748   -0.5115 C.3       1 <0>         0.1538
      4 C4          3.6837    1.2581   -1.8544 C.3       1 <0>        -0.1735
      5 C5          4.1878    1.3023    0.5923 C.3       1 <0>        -0.1753
      6 N1          1.9833    0.6192   -0.2168 N.pl3     1 <0>        -0.2723
      7 C6          1.2377    1.7255   -0.0379 C.2       1 <0>         0.1120
      8 N2          0.0146    1.3201    0.2021 N.2       1 <0>        -0.2416
      9 N3          0.0092    0.0320    0.1722 N.2       1 <0>        -0.0592
     10 N4          1.1972   -0.3947   -0.0807 N.2       1 <0>        -0.0534
     11 C7          1.7162    3.1531   -0.1019 C.3       1 <0>         0.2071
     12 H1          2.7417    3.1763   -0.4706 H         1 <0>         0.1635
     13 C8          1.6635    3.7628    1.2752 C.2       1 <0>        -0.2802
     14 C9          2.8111    4.1381    1.8922 C.2       1 <0>         0.0696
     15 C10         2.7256    4.7277    3.2296 C.ar      1 <0>        -0.1470
     16 C11         3.8747    5.1337    3.9162 C.ar      1 <0>        -0.0523
     17 C12         3.7609    5.6808    5.1627 C.ar      1 <0>        -0.0988
     18 C13         2.5148    5.8368    5.7547 C.ar      1 <0>        -0.0403
     19 C14         1.3694    5.4437    5.0970 C.ar      1 <0>        -0.1214
     20 C15         1.4605    4.8843    3.8265 C.ar      1 <0>         0.1967
     21 N5          0.3312    4.4818    3.1459 N.am      1 <0>        -0.6174
     22 H2         -0.5664    4.5894    3.5734 H         1 <0>         0.4334
     23 C16         0.4193    3.9466    1.9156 C.2       1 <0>         0.5430
     24 O1         -0.6006    3.6069    1.3410 O.2       1 <0>        -0.5208
     25 C17         0.0234    5.6194    5.7514 C.3       1 <0>        -0.1233
     26 C18         4.9990    6.1189    5.9018 C.3       1 <0>        -0.1214
     27 C19         0.8000    3.2948   -2.3382 C.3       1 <0>        -0.0040
     28 C20        -0.2183    4.0326   -3.2105 C.3       1 <0>        -0.1364
     29 C21         0.1918    5.5028   -3.3325 C.3       1 <0>        -0.0920
     30 C22         0.2856    6.1163   -1.9327 C.3       1 <0>        -0.1324
     31 C23         1.2892    5.3180   -1.0975 C.3       1 <0>        -0.0006
     32 C24        -0.8381    6.2488   -4.1412 C.2       1 <0>         0.4653
     33 O2         -1.4364    7.1762   -3.6496 O.2       1 <0>        -0.4914
     34 O3         -1.0906    5.8828   -5.4077 O.3       1 <0>        -0.3543
     35 C25        -2.0950    6.6462   -6.1266 C.3       1 <0>         0.0629
     36 C26        -2.2440    6.0866   -7.5428 C.3       1 <0>        -0.1560
     37 H3          5.7062   -1.9666   -0.9371 H         1 <0>         0.0754
     38 H4          5.5669   -0.4418   -1.8448 H         1 <0>         0.0653
     39 H5          5.9260   -0.4103   -0.1017 H         1 <0>         0.0649
     40 H6          3.6897   -1.3689    0.3764 H         1 <0>         0.0856
     41 H7          3.3306   -1.4005   -1.3667 H         1 <0>         0.0873
     42 H8          3.4269    2.3149   -1.7816 H         1 <0>         0.0550
     43 H9          4.7384    1.1572   -2.1107 H         1 <0>         0.1127
     44 H10         3.0755    0.7888   -2.6277 H         1 <0>         0.0826
     45 H11         3.9983    0.8156    1.5490 H         1 <0>         0.0823
     46 H12         5.2550    1.2693    0.3730 H         1 <0>         0.1108
     47 H13         3.8589    2.3404    0.6413 H         1 <0>         0.0566
     48 H14         3.7672    4.0052    1.4077 H         1 <0>         0.1582
     49 H15         4.8477    5.0153    3.4627 H         1 <0>         0.1427
     50 H16         2.4424    6.2706    6.7411 H         1 <0>         0.1432
     51 H17        -0.2203    4.7263    6.3268 H         1 <0>         0.0830
     52 H18         0.0523    6.4830    6.4158 H         1 <0>         0.0863
     53 H19        -0.7356    5.7760    4.9848 H         1 <0>         0.0656
     54 H20         5.3790    5.2893    6.4980 H         1 <0>         0.0788
     55 H21         5.7593    6.4294    5.1851 H         1 <0>         0.0735
     56 H22         4.7543    6.9550    6.5569 H         1 <0>         0.0749
     57 H23         1.7840    3.3492   -2.8038 H         1 <0>         0.1367
     58 H24         0.5032    2.2508   -2.2376 H         1 <0>         0.1251
     59 H25        -1.2052    3.9669   -2.7524 H         1 <0>         0.0998
     60 H26        -0.2453    3.5789   -4.2012 H         1 <0>         0.1306
     61 H27         1.1614    5.5708   -3.8257 H         1 <0>         0.1295
     62 H28        -0.6934    6.0833   -1.4545 H         1 <0>         0.1024
     63 H29         0.6182    7.1514   -2.0099 H         1 <0>         0.1273
     64 H30         1.3478    5.7436   -0.0957 H         1 <0>         0.1336
     65 H31         2.2709    5.3629   -1.5690 H         1 <0>         0.1381
     66 H32        -3.0492    6.5732   -5.6049 H         1 <0>         0.0751
     67 H33        -1.7886    7.6909   -6.1792 H         1 <0>         0.0756
     68 H34        -2.5504    5.0418   -7.4903 H         1 <0>         0.0686
     69 H35        -2.9980    6.6596   -8.0825 H         1 <0>         0.0868
     70 H36        -1.2898    6.1596   -8.0646 H         1 <0>         0.0692
     71 N6          0.8245    3.9180   -0.9979 N.4       1 <0>        -0.3932
     72 H37        -0.1258    3.9094   -0.6093 H         1 <0>         0.4478
@<TRIPOS>BOND
     1    1    2 1
     2    1   37 1
     3    1   38 1
     4    1   39 1
     5    2    3 1
     6    2   40 1
     7    2   41 1
     8    3    4 1
     9    3    5 1
    10    3    6 1
    11    4   42 1
    12    4   43 1
    13    4   44 1
    14    5   45 1
    15    5   46 1
    16    5   47 1
    17    6   10 1
    18    6    7 1
    19    7    8 2
    20    7   11 1
    21    8    9 1
    22    9   10 2
    23   11   12 1
    24   11   13 1
    25   11   71 1
    26   13   23 1
    27   13   14 2
    28   14   15 1
    29   14   48 1
    30   15   20 ar
    31   15   16 ar
    32   16   17 ar
    33   16   49 1
    34   17   18 ar
    35   17   26 1
    36   18   19 ar
    37   18   50 1
    38   19   20 ar
    39   19   25 1
    40   20   21 1
    41   21   22 1
    42   21   23 am
    43   23   24 2
    44   25   51 1
    45   25   52 1
    46   25   53 1
    47   26   54 1
    48   26   55 1
    49   26   56 1
    50   27   28 1
    51   27   57 1
    52   27   58 1
    53   27   71 1
    54   28   29 1
    55   28   59 1
    56   28   60 1
    57   29   30 1
    58   29   32 1
    59   29   61 1
    60   30   31 1
    61   30   62 1
    62   30   63 1
    63   31   64 1
    64   31   65 1
    65   31   71 1
    66   32   33 2
    67   32   34 1
    68   34   35 1
    69   35   36 1
    70   35   66 1
    71   35   67 1
    72   36   68 1
    73   36   69 1
    74   36   70 1
    75   71   72 1
@<TRIPOS>MOLECULE
ZINC13064397
   73    78     0     0     0
SMALL
USER_CHARGES
8-[[cyclohexyl-[(1R)-1-(1-cyclopentyltetrazol-5-yl)propyl]amino]methyl]-3,6-dihydro-2H-[1,4]dioxino[2,3-g]quinolin-7-one
@<TRIPOS>ATOM
      1 C1         -0.0057   -1.4873    2.1183 C.3       1 <0>        -0.1723
      2 C2          0.2839   -2.2151    0.8041 C.3       1 <0>        -0.1467
      3 C3          1.5496   -1.6362    0.1686 C.3       1 <0>         0.1204
      4 H1          1.4430   -0.5563    0.0655 H         1 <0>         0.1540
      5 C4          1.7563   -2.2527   -1.1909 C.2       1 <0>         0.1346
      6 N1          2.1632   -3.4728   -1.4432 N.2       1 <0>        -0.2858
      7 N2          2.2136   -3.6190   -2.7223 N.2       1 <0>        -0.0523
      8 N3          1.8493   -2.5237   -3.2925 N.2       1 <0>        -0.0490
      9 N4          1.5593   -1.6571   -2.3817 N.pl3     1 <0>        -0.2746
     10 C5          1.1016   -0.2830   -2.6023 C.3       1 <0>         0.1255
     11 C6         -0.1905   -0.2852   -3.4451 C.3       1 <0>        -0.1336
     12 C7         -0.0455    0.9537   -4.3645 C.3       1 <0>        -0.1223
     13 C8          1.4632    0.9455   -4.7151 C.3       1 <0>        -0.1247
     14 C9          2.1526    0.4995   -3.4091 C.3       1 <0>        -0.1342
     15 C10         3.1063   -3.3425    0.8949 C.3       1 <0>         0.0625
     16 C11         3.9927   -3.7204    2.0536 C.2       1 <0>        -0.2760
     17 C12         3.4543   -4.3038    3.1547 C.2       1 <0>         0.0659
     18 C13         4.3414   -4.6633    4.2601 C.ar      1 <0>        -0.1512
     19 C14         3.8429   -5.2714    5.4186 C.ar      1 <0>        -0.0428
     20 C15         4.7030   -5.5959    6.4463 C.ar      1 <0>         0.0321
     21 C16         6.0688   -5.3197    6.3348 C.ar      1 <0>         0.1401
     22 C17         6.5704   -4.7176    5.1936 C.ar      1 <0>        -0.1714
     23 C18         5.7175   -4.3839    4.1498 C.ar      1 <0>         0.2097
     24 N5          6.2005   -3.7828    3.0050 N.am      1 <0>        -0.6163
     25 H2          7.1482   -3.5899    2.9299 H         1 <0>         0.4260
     26 C19         5.3768   -3.4613    1.9924 C.2       1 <0>         0.5449
     27 O1          5.8387   -2.9318    0.9960 O.2       1 <0>        -0.5311
     28 O2          6.9248   -5.6403    7.3425 O.3       1 <0>        -0.2949
     29 C20         6.3427   -5.9003    8.6241 C.3       1 <0>         0.0168
     30 C21         5.1433   -6.8371    8.4268 C.3       1 <0>         0.0180
     31 O3          4.2020   -6.1849    7.5678 O.3       1 <0>        -0.3000
     32 C22         3.8307   -1.0389    0.7185 C.3       1 <0>         0.0170
     33 C23         3.4571    0.3953    1.0985 C.3       1 <0>        -0.1415
     34 C24         4.6276    1.3282    0.7816 C.3       1 <0>        -0.1144
     35 C25         4.9417    1.2624   -0.7144 C.3       1 <0>        -0.1286
     36 C26         5.3153   -0.1718   -1.0944 C.3       1 <0>        -0.1122
     37 C27         4.1448   -1.1047   -0.7775 C.3       1 <0>        -0.1291
     38 H3          0.7935   -1.6918    2.8307 H         1 <0>         0.0568
     39 H4         -0.0628   -0.4144    1.9345 H         1 <0>         0.0758
     40 H5         -0.9542   -1.8370    2.5260 H         1 <0>         0.0952
     41 H6         -0.5571   -2.0841    0.1232 H         1 <0>         0.1151
     42 H7          0.4296   -3.2772    1.0014 H         1 <0>         0.1020
     43 H8          0.9229    0.2088   -1.6461 H         1 <0>         0.1181
     44 H9         -0.2562   -1.1961   -4.0402 H         1 <0>         0.0909
     45 H10        -1.0652   -0.1842   -2.8026 H         1 <0>         0.0864
     46 H11        -0.3127    1.8647   -3.8290 H         1 <0>         0.0786
     47 H12        -0.6516    0.8409   -5.2634 H         1 <0>         0.0857
     48 H13         1.7942    1.9444   -4.9993 H         1 <0>         0.0823
     49 H14         1.6650    0.2336   -5.5154 H         1 <0>         0.0790
     50 H15         2.4833    1.3715   -2.8448 H         1 <0>         0.0905
     51 H16         3.0032   -0.1431   -3.6365 H         1 <0>         0.0835
     52 H17         2.2178   -3.9738    0.8963 H         1 <0>         0.1442
     53 H18         3.6501   -3.4825   -0.0393 H         1 <0>         0.1605
     54 H19         2.3941   -4.5019    3.2113 H         1 <0>         0.1579
     55 H20         2.7880   -5.4854    5.5070 H         1 <0>         0.1560
     56 H21         7.6266   -4.5061    5.1154 H         1 <0>         0.1542
     57 H22         6.0084   -4.9647    9.0724 H         1 <0>         0.0884
     58 H23         7.0784   -6.3766    9.2721 H         1 <0>         0.1350
     59 H24         4.6781   -7.0466    9.3901 H         1 <0>         0.1338
     60 H25         5.4752   -7.7687    7.9686 H         1 <0>         0.0857
     61 H26         4.7070   -1.3491    1.2877 H         1 <0>         0.1568
     62 H27         2.5809    0.7055    0.5293 H         1 <0>         0.0771
     63 H28         3.2334    0.4422    2.1643 H         1 <0>         0.0876
     64 H29         5.5039    1.0181    1.3508 H         1 <0>         0.0759
     65 H30         4.3615    2.3500    1.0524 H         1 <0>         0.0851
     66 H31         5.7756    1.9271   -0.9401 H         1 <0>         0.0802
     67 H32         4.0654    1.5726   -1.2836 H         1 <0>         0.0647
     68 H33         6.1916   -0.4819   -0.5252 H         1 <0>         0.0819
     69 H34         5.5390   -0.2186   -2.1602 H         1 <0>         0.0781
     70 H35         4.4109   -2.1264   -1.0483 H         1 <0>         0.0888
     71 H36         3.2685   -0.7945   -1.3467 H         1 <0>         0.0645
     72 N6          2.6991   -1.9301    1.0500 N.4       1 <0>        -0.3857
     73 H37         2.4216   -1.7682    2.0252 H         1 <0>         0.4268
@<TRIPOS>BOND
     1    1    2 1
     2    1   38 1
     3    1   39 1
     4    1   40 1
     5    2    3 1
     6    2   41 1
     7    2   42 1
     8    3    4 1
     9    3    5 1
    10    3   72 1
    11    5    9 1
    12    5    6 2
    13    6    7 1
    14    7    8 2
    15    8    9 1
    16    9   10 1
    17   10   14 1
    18   10   11 1
    19   10   43 1
    20   11   12 1
    21   11   44 1
    22   11   45 1
    23   12   13 1
    24   12   46 1
    25   12   47 1
    26   13   14 1
    27   13   48 1
    28   13   49 1
    29   14   50 1
    30   14   51 1
    31   15   16 1
    32   15   52 1
    33   15   53 1
    34   15   72 1
    35   16   26 1
    36   16   17 2
    37   17   18 1
    38   17   54 1
    39   18   23 ar
    40   18   19 ar
    41   19   20 ar
    42   19   55 1
    43   20   31 1
    44   20   21 ar
    45   21   22 ar
    46   21   28 1
    47   22   23 ar
    48   22   56 1
    49   23   24 1
    50   24   25 1
    51   24   26 am
    52   26   27 2
    53   28   29 1
    54   29   30 1
    55   29   57 1
    56   29   58 1
    57   30   31 1
    58   30   59 1
    59   30   60 1
    60   32   37 1
    61   32   33 1
    62   32   61 1
    63   32   72 1
    64   33   34 1
    65   33   62 1
    66   33   63 1
    67   34   35 1
    68   34   64 1
    69   34   65 1
    70   35   36 1
    71   35   66 1
    72   35   67 1
    73   36   37 1
    74   36   68 1
    75   36   69 1
    76   37   70 1
    77   37   71 1
    78   72   73 1
@<TRIPOS>MOLECULE
ZINC21981373
   67    70     0     0     0
SMALL
USER_CHARGES
5-[2-ethoxy-5-(4-ethylpiperazin-1-yl)sulfonyl-phenyl]-1-methyl-3-propyl-6H-pyrazolo[5,4-e]pyrimidin-7-one
@<TRIPOS>ATOM
      1 C1          6.8303   -1.9001    9.2885 C.3       1 <0>        -0.1559
      2 C2          6.3870   -2.6509    8.0312 C.3       1 <0>        -0.1212
      3 C3          6.9674   -1.9620    6.7945 C.3       1 <0>        -0.0451
      4 C4          6.5308   -2.7015    5.5562 C.2       1 <0>         0.0805
      5 C5          5.3622   -2.4413    4.8143 C.2       1 <0>         0.0115
      6 C6          5.3430   -3.3518    3.7498 C.2       1 <0>        -0.0175
      7 C7          4.2641   -3.3101    2.8365 C.2       1 <0>         0.5420
      8 O1          4.2109   -4.0853    1.8975 O.2       1 <0>        -0.5098
      9 N1          3.2915   -2.3924    3.0325 N.2       1 <0>        -0.5881
     10 C8          3.3642   -1.5235    4.0874 C.2       1 <0>         0.4571
     11 N2          4.3577   -1.5510    4.9423 N.pl3     1 <0>        -0.5391
     12 C9          2.2882   -0.5295    4.2718 C.ar      1 <0>        -0.1159
     13 C10         1.2159   -0.4818    3.3786 C.ar      1 <0>         0.0882
     14 C11         0.2170    0.4521    3.5532 C.ar      1 <0>        -0.7253
     15 C12         0.2666    1.3373    4.6172 C.ar      1 <0>         0.0454
     16 C13         1.3194    1.2973    5.5104 C.ar      1 <0>        -0.2182
     17 C14         2.3349    0.3679    5.3465 C.ar      1 <0>         0.2178
     18 O2          3.3702    0.3278    6.2233 O.3       1 <0>        -0.3306
     19 C15         3.3505    1.2740    7.2940 C.3       1 <0>         0.0507
     20 C16         4.5885    1.0772    8.1713 C.3       1 <0>        -0.1709
     21 S1         -1.1323    0.5151    2.4218 S.o2      1 <0>         2.6937
     22 O3         -2.2175    1.1139    3.1169 O.2       1 <0>        -0.9369
     23 O4         -1.2254   -0.7728    1.8286 O.2       1 <0>        -0.9288
     24 N3         -0.7086    1.5639    1.2123 N.pl3     1 <0>        -1.0132
     25 C17        -0.0127    1.0858    0.0080 C.3       1 <0>         0.0863
     26 C18        -0.7616    1.5973   -1.2272 C.3       1 <0>        -0.0149
     27 N4         -0.9128    3.0556   -1.1352 N.4       1 <0>        -0.3982
     28 C19        -1.7318    3.4342    0.0240 C.3       1 <0>        -0.0252
     29 C20        -1.0227    2.9981    1.3105 C.3       1 <0>         0.0894
     30 C21        -1.4718    3.6062   -2.3771 C.3       1 <0>        -0.0080
     31 C22        -1.8465    5.0738   -2.1610 C.3       1 <0>        -0.1938
     32 N5          6.4665   -4.1226    3.8643 N.pl3     1 <0>        -0.3252
     33 N6          7.1735   -3.6887    4.9933 N.2       1 <0>        -0.2296
     34 C23         6.8612   -5.2099    2.9653 C.3       1 <0>         0.1006
     35 H1          6.4130   -2.3954   10.1776 H         1 <0>         0.0613
     36 H2          6.4680   -0.8625    9.2428 H         1 <0>         0.0561
     37 H3          7.9286   -1.9026    9.3489 H         1 <0>         0.0613
     38 H4          6.7493   -3.6885    8.0769 H         1 <0>         0.0723
     39 H5          5.2887   -2.6484    7.9707 H         1 <0>         0.0610
     40 H6          6.6050   -0.9244    6.7488 H         1 <0>         0.0811
     41 H7          8.0657   -1.9645    6.8549 H         1 <0>         0.0956
     42 H8          1.1713   -1.1729    2.5499 H         1 <0>         0.1729
     43 H9         -0.5221    2.0631    4.7490 H         1 <0>         0.1535
     44 H10         1.3513    1.9907    6.3377 H         1 <0>         0.1554
     45 H11         3.3514    2.2939    6.8820 H         1 <0>         0.0831
     46 H12         2.4444    1.1239    7.8994 H         1 <0>         0.0848
     47 H13         4.5734    1.8055    8.9955 H         1 <0>         0.0970
     48 H14         5.4945    1.2273    7.5659 H         1 <0>         0.0740
     49 H15         4.5876    0.0572    8.5832 H         1 <0>         0.0772
     50 H16         1.0188    1.4679    0.0046 H         1 <0>         0.1029
     51 H17         0.0037   -0.0141    0.0063 H         1 <0>         0.1436
     52 H18        -0.1916    1.3430   -2.1330 H         1 <0>         0.1480
     53 H19        -1.7547    1.1268   -1.2748 H         1 <0>         0.1345
     54 H20        -1.8723    4.5252    0.0331 H         1 <0>         0.1510
     55 H21        -2.7118    2.9389   -0.0419 H         1 <0>         0.1345
     56 H22        -1.6789    3.1713    2.1762 H         1 <0>         0.1393
     57 H23        -0.0913    3.5697    1.4362 H         1 <0>         0.1010
     58 H24        -0.7235    3.5332   -3.1800 H         1 <0>         0.1337
     59 H25        -2.3693    3.0364   -2.6595 H         1 <0>         0.1274
     60 H26        -2.2651    5.4861   -3.0909 H         1 <0>         0.1067
     61 H27        -0.9490    5.6436   -1.8786 H         1 <0>         0.0817
     62 H28        -2.5948    5.1468   -1.3581 H         1 <0>         0.0834
     63 H29         7.8106   -5.6450    3.3108 H         1 <0>         0.1030
     64 H30         6.9880   -4.8154    1.9463 H         1 <0>         0.0913
     65 H31         6.0814   -5.9857    2.9637 H         1 <0>         0.0919
     66 H32         4.3630   -0.8317    5.7746 H         1 <0>         0.4461
     67 H33         0.0887    3.4875   -0.9926 H         1 <0>         0.4413
@<TRIPOS>BOND
     1    1    2 1
     2    1   35 1
     3    1   36 1
     4    1   37 1
     5    2    3 1
     6    2   38 1
     7    2   39 1
     8    3    4 1
     9    3   40 1
    10    3   41 1
    11    4   33 2
    12    4    5 1
    13    5   11 1
    14    5    6 2
    15    6    7 1
    16    6   32 1
    17    7    8 2
    18    7    9 1
    19    9   10 2
    20   10   11 1
    21   10   12 1
    22   11   66 1
    23   12   17 ar
    24   12   13 ar
    25   13   14 ar
    26   13   42 1
    27   14   15 ar
    28   14   21 1
    29   15   16 ar
    30   15   43 1
    31   16   17 ar
    32   16   44 1
    33   17   18 1
    34   18   19 1
    35   19   20 1
    36   19   45 1
    37   19   46 1
    38   20   47 1
    39   20   48 1
    40   20   49 1
    41   21   22 2
    42   21   23 2
    43   21   24 1
    44   24   29 1
    45   24   25 1
    46   25   26 1
    47   25   50 1
    48   25   51 1
    49   26   27 1
    50   26   52 1
    51   26   53 1
    52   27   28 1
    53   27   30 1
    54   27   67 1
    55   28   29 1
    56   28   54 1
    57   28   55 1
    58   29   56 1
    59   29   57 1
    60   30   31 1
    61   30   58 1
    62   30   59 1
    63   31   60 1
    64   31   61 1
    65   31   62 1
    66   32   33 1
    67   32   34 1
    68   34   63 1
    69   34   64 1
    70   34   65 1
@<TRIPOS>MOLECULE
ZINC35564262
   73    77     0     0     0
SMALL
USER_CHARGES

@<TRIPOS>ATOM
      1 C1          0.0517    0.8080   -0.8766 C.3       1 <0>        -0.1223
      2 C2          0.0044   -0.6938   -0.7598 C.ar      1 <0>        -0.0751
      3 C3         -0.0851   -1.4728   -1.8991 C.ar      1 <0>        -0.1073
      4 C4         -0.1292   -2.8509   -1.7964 C.ar      1 <0>        -0.1100
      5 C5         -0.0835   -3.4543   -0.5547 C.ar      1 <0>        -0.1200
      6 C6          0.0068   -2.6750    0.5914 C.ar      1 <0>         0.1467
      7 C7          0.0561   -1.2906    0.4843 C.ar      1 <0>        -0.0911
      8 C8          0.1598   -0.4412    1.7248 C.3       1 <0>        -0.1109
      9 N1          0.0532   -3.2818    1.8486 N.pl3     1 <0>        -0.6726
     10 C9         -1.1811   -3.5706    2.5951 C.3       1 <0>         0.1217
     11 C10        -1.0296   -3.0185    4.0163 C.3       1 <0>        -0.0256
     12 N2          0.1892   -3.5656    4.6256 N.4       1 <0>        -0.3756
     13 C11         1.3702   -3.0948    3.8910 C.3       1 <0>        -0.0288
     14 C12         1.3373   -3.6559    2.4611 C.3       1 <0>         0.1238
     15 C13         0.2763   -3.1237    6.0239 C.3       1 <0>         0.0562
     16 C14         1.4592   -3.7821    6.6860 C.2       1 <0>         0.1663
     17 C15         2.5069   -3.0229    7.1195 C.2       1 <0>        -0.2961
     18 C16         3.5991   -3.6601    7.7347 C.2       1 <0>         0.5427
     19 O1          4.5525   -3.0121    8.1345 O.2       1 <0>        -0.5065
     20 N3          3.5723   -5.0027    7.8749 N.am      1 <0>        -0.6517
     21 H1          4.3148   -5.4629    8.2966 H         1 <0>         0.4189
     22 C17         2.5002   -5.7078    7.4232 C.2       1 <0>         0.6617
     23 N4          1.4778   -5.1027    6.8520 N.2       1 <0>        -0.6108
     24 N5          2.4803   -7.0689    7.5690 N.pl3     1 <0>        -0.5777
     25 C18         3.6515   -7.7816    8.0984 C.3       1 <0>         0.0911
     26 C19         3.2126   -8.6135    9.3098 C.3       1 <0>         0.0789
     27 N6          2.0196   -9.3881    8.9401 N.am      1 <0>        -0.6114
     28 C20         0.8484   -8.6754    8.4107 C.3       1 <0>         0.0947
     29 C21         1.2853   -7.8429    7.2045 C.3       1 <0>         0.1126
     30 C22         2.0001  -10.7280    9.0837 C.2       1 <0>         0.5653
     31 O2          1.0473  -11.3683    8.6838 O.2       1 <0>        -0.5040
     32 C23         3.1374  -11.4192    9.7276 C.ar      1 <0>        -0.0885
     33 C24         3.7403  -10.8708   10.8607 C.ar      1 <0>        -0.0958
     34 C25         4.8009  -11.5210   11.4569 C.ar      1 <0>        -0.0577
     35 C26         5.2675  -12.7139   10.9338 C.ar      1 <0>        -0.0239
     36 C27         4.6746  -13.2626    9.8106 C.ar      1 <0>        -0.0536
     37 C28         3.6093  -12.6258    9.2083 C.ar      1 <0>        -0.0622
     38 N7          6.4061  -13.4058   11.5784 N.pl3     1 <0>         0.0242
     39 O3          6.9264  -12.9285   12.5598 O.2       1 <0>        -0.1445
     40 O4          6.8160  -14.4483   11.1236 O.3       1 <0>        -0.1426
     41 H2          1.0883    1.1330   -0.9652 H         1 <0>         0.0747
     42 H3         -0.5041    1.1213   -1.7604 H         1 <0>         0.0719
     43 H4         -0.3949    1.2557    0.0111 H         1 <0>         0.0692
     44 H5         -0.1209   -1.0035   -2.8712 H         1 <0>         0.1280
     45 H6         -0.1998   -3.4562   -2.6880 H         1 <0>         0.1282
     46 H7         -0.1184   -4.5308   -0.4751 H         1 <0>         0.1227
     47 H8         -0.8404   -0.1995    2.0842 H         1 <0>         0.0686
     48 H9          0.7006   -0.9894    2.4963 H         1 <0>         0.0562
     49 H10         0.6944    0.4795    1.4910 H         1 <0>         0.0727
     50 H11        -2.0272   -3.0903    2.1037 H         1 <0>         0.1170
     51 H12        -1.3409   -4.6481    2.6358 H         1 <0>         0.0788
     52 H13        -0.9606   -1.9313    3.9785 H         1 <0>         0.1323
     53 H14        -1.8952   -3.3073    4.6126 H         1 <0>         0.1399
     54 H15         1.3666   -2.0053    3.8569 H         1 <0>         0.1342
     55 H16         2.2731   -3.4398    4.3949 H         1 <0>         0.1303
     56 H17         1.4276   -4.7418    2.4885 H         1 <0>         0.0774
     57 H18         2.1571   -3.2318    1.8811 H         1 <0>         0.1149
     58 H19         0.3981   -2.0410    6.0559 H         1 <0>         0.1477
     59 H20        -0.6365   -3.4024    6.5505 H         1 <0>         0.1512
     60 H21         2.4977   -1.9505    6.9919 H         1 <0>         0.1623
     61 H22         4.0573   -8.4398    7.3302 H         1 <0>         0.1014
     62 H23         4.4103   -7.0615    8.4047 H         1 <0>         0.0960
     63 H24         4.0151   -9.2927    9.5973 H         1 <0>         0.1167
     64 H25         2.9751   -7.9508   10.1420 H         1 <0>         0.0889
     65 H26         0.0896   -9.3955    8.1043 H         1 <0>         0.1190
     66 H27         0.4426   -8.0172    9.1789 H         1 <0>         0.0823
     67 H28         0.4818   -7.1632    6.9207 H         1 <0>         0.1206
     68 H29         1.5188   -8.5056    6.3712 H         1 <0>         0.0878
     69 H30         3.3775   -9.9393   11.2696 H         1 <0>         0.1538
     70 H31         5.2683  -11.0978   12.3338 H         1 <0>         0.1643
     71 H32         5.0438  -14.1939    9.4070 H         1 <0>         0.1657
     72 H33         3.1443  -13.0576    8.3344 H         1 <0>         0.1586
     73 H34         0.1556   -4.5735    4.5955 H         1 <0>         0.4283
@<TRIPOS>BOND
     1    1    2 1
     2    1   41 1
     3    1   42 1
     4    1   43 1
     5    2    7 ar
     6    2    3 ar
     7    3    4 ar
     8    3   44 1
     9    4    5 ar
    10    4   45 1
    11    5    6 ar
    12    5   46 1
    13    6    7 ar
    14    6    9 1
    15    7    8 1
    16    8   47 1
    17    8   48 1
    18    8   49 1
    19    9   14 1
    20    9   10 1
    21   10   11 1
    22   10   50 1
    23   10   51 1
    24   11   12 1
    25   11   52 1
    26   11   53 1
    27   12   13 1
    28   12   15 1
    29   12   73 1
    30   13   14 1
    31   13   54 1
    32   13   55 1
    33   14   56 1
    34   14   57 1
    35   15   16 1
    36   15   58 1
    37   15   59 1
    38   16   23 1
    39   16   17 2
    40   17   18 1
    41   17   60 1
    42   18   19 2
    43   18   20 am
    44   20   21 1
    45   20   22 1
    46   22   23 2
    47   22   24 1
    48   24   29 1
    49   24   25 1
    50   25   26 1
    51   25   61 1
    52   25   62 1
    53   26   27 1
    54   26   63 1
    55   26   64 1
    56   27   28 1
    57   27   30 am
    58   28   29 1
    59   28   65 1
    60   28   66 1
    61   29   67 1
    62   29   68 1
    63   30   31 2
    64   30   32 1
    65   32   37 ar
    66   32   33 ar
    67   33   34 ar
    68   33   69 1
    69   34   35 ar
    70   34   70 1
    71   35   36 ar
    72   35   38 1
    73   36   37 ar
    74   36   71 1
    75   37   72 1
    76   38   39 2
    77   38   40 1
@<TRIPOS>MOLECULE
ZINC20207886
   59    62     0     0     0
SMALL
USER_CHARGES

@<TRIPOS>ATOM
      1 C1         -1.5931    1.4651    0.6686 C.3       1 <0>        -0.1183
      2 C2         -1.5233   -0.0393    0.6159 C.ar      1 <0>        -0.0497
      3 C3         -1.7840   -0.7018   -0.5697 C.ar      1 <0>        -0.1535
      4 C4         -1.7208   -2.0819   -0.6214 C.ar      1 <0>        -0.0818
      5 C5         -1.3974   -2.8027    0.5121 C.ar      1 <0>        -0.2118
      6 C6         -1.1356   -2.1405    1.7025 C.ar      1 <0>         0.1306
      7 C7         -1.1936   -0.7550    1.7503 C.ar      1 <0>        -0.1172
      8 C8         -0.9032   -0.0320    3.0402 C.3       1 <0>        -0.1076
      9 O1         -0.8172   -2.8473    2.8188 O.3       1 <0>        -0.3089
     10 C9         -0.7703   -4.2701    2.6944 C.3       1 <0>         0.0644
     11 C10        -0.3985   -4.8880    4.0437 C.3       1 <0>        -0.1197
     12 C11        -0.3483   -6.4114    3.9106 C.3       1 <0>         0.0621
     13 O2         -0.0009   -6.9885    5.1708 O.3       1 <0>        -0.3054
     14 C12         0.0869   -8.3414    5.2255 C.ar      1 <0>         0.1646
     15 C13        -0.1519   -9.0979    4.0827 C.ar      1 <0>        -0.2155
     16 C14        -0.0654  -10.4603    4.1316 C.ar      1 <0>        -0.0168
     17 C15         0.2654  -11.0962    5.3369 C.ar      1 <0>        -0.1417
     18 C16         0.5055  -10.3281    6.4854 C.ar      1 <0>        -0.0306
     19 C17         0.4211   -8.9661    6.4227 C.ar      1 <0>        -0.1586
     20 C18         0.3594  -12.5566    5.3962 C.2       1 <0>         0.1084
     21 C19         0.7962  -13.2634    4.2985 C.2       1 <0>        -0.2416
     22 C20         1.3556  -12.5814    3.0971 C.2       1 <0>         0.4563
     23 N1          2.0404  -11.4705    3.1565 N.2       1 <0>        -0.6167
     24 N2          1.0727  -13.2539    1.8888 N.pl3     1 <0>        -0.4320
     25 C21         0.7983  -14.6028    1.9605 C.2       1 <0>         0.3791
     26 N3          0.6723  -15.3359    3.0382 N.2       1 <0>        -0.5236
     27 C22         0.7412  -14.7458    4.2503 C.2       1 <0>         0.5516
     28 O3          0.7538  -15.4085    5.2750 O.2       1 <0>        -0.4337
     29 S1          0.6469  -15.0424    0.2493 S.3       1 <0>         0.2096
     30 C23         0.8551  -13.4032   -0.4329 C.2       1 <0>        -0.4511
     31 N4          1.0569  -12.6838    0.6337 N.2       1 <0>        -0.1208
     32 S2          0.8012  -12.8915   -2.1181 S.o2      1 <0>         2.5199
     33 O4         -0.1126  -13.7850   -2.7392 O.2       1 <0>        -0.8920
     34 O5          0.5290  -11.4978   -2.0653 O.2       1 <0>        -0.8918
     35 C24         2.4789  -13.1771   -2.7459 C.3       1 <0>        -0.6342
     36 H1         -0.6157    1.8829    0.4271 H         1 <0>         0.0741
     37 H2         -2.3285    1.8203   -0.0533 H         1 <0>         0.0696
     38 H3         -1.8855    1.7804    1.6702 H         1 <0>         0.0714
     39 H4         -2.0376   -0.1402   -1.4566 H         1 <0>         0.1242
     40 H5         -1.9248   -2.5970   -1.5484 H         1 <0>         0.1252
     41 H6         -1.3489   -3.8809    0.4714 H         1 <0>         0.1261
     42 H7         -1.8274    0.0876    3.6057 H         1 <0>         0.0682
     43 H8         -0.1899   -0.6098    3.6279 H         1 <0>         0.0696
     44 H9         -0.4824    0.9491    2.8201 H         1 <0>         0.0675
     45 H10        -1.7470   -4.6399    2.3822 H         1 <0>         0.0662
     46 H11        -0.0228   -4.5453    1.9503 H         1 <0>         0.0662
     47 H12         0.5782   -4.5182    4.3559 H         1 <0>         0.0884
     48 H13        -1.1459   -4.6128    4.7878 H         1 <0>         0.0885
     49 H14        -1.3250   -6.7812    3.5984 H         1 <0>         0.0692
     50 H15         0.3992   -6.6866    3.1665 H         1 <0>         0.0693
     51 H16        -0.4066   -8.6070    3.1551 H         1 <0>         0.1310
     52 H17        -0.2518  -11.0466    3.2439 H         1 <0>         0.1132
     53 H18         0.7607  -10.8122    7.4166 H         1 <0>         0.1404
     54 H19         0.6097   -8.3732    7.3056 H         1 <0>         0.1394
     55 H20         0.0859  -13.0790    6.3010 H         1 <0>         0.1622
     56 H21         2.3831  -11.0679    2.3433 H         1 <0>         0.3612
     57 H22         2.7264  -14.2346   -2.6534 H         1 <0>         0.1429
     58 H23         2.5297  -12.8825   -3.7941 H         1 <0>         0.1525
     59 H24         3.1889  -12.5859   -2.1675 H         1 <0>         0.1413
@<TRIPOS>BOND
     1    1    2 1
     2    1   36 1
     3    1   37 1
     4    1   38 1
     5    2    7 ar
     6    2    3 ar
     7    3    4 ar
     8    3   39 1
     9    4    5 ar
    10    4   40 1
    11    5    6 ar
    12    5   41 1
    13    6    7 ar
    14    6    9 1
    15    7    8 1
    16    8   42 1
    17    8   43 1
    18    8   44 1
    19    9   10 1
    20   10   11 1
    21   10   45 1
    22   10   46 1
    23   11   12 1
    24   11   47 1
    25   11   48 1
    26   12   13 1
    27   12   49 1
    28   12   50 1
    29   13   14 1
    30   14   19 ar
    31   14   15 ar
    32   15   16 ar
    33   15   51 1
    34   16   17 ar
    35   16   52 1
    36   17   18 ar
    37   17   20 1
    38   18   19 ar
    39   18   53 1
    40   19   54 1
    41   20   21 2
    42   20   55 1
    43   21   27 1
    44   21   22 1
    45   22   23 2
    46   22   24 1
    47   23   56 1
    48   24   31 1
    49   24   25 1
    50   25   26 2
    51   25   29 1
    52   26   27 1
    53   27   28 2
    54   29   30 1
    55   30   31 2
    56   30   32 1
    57   32   33 2
    58   32   34 2
    59   32   35 1
    60   35   57 1
    61   35   58 1
    62   35   59 1
@<TRIPOS>MOLECULE
ZINC63806763
   66    71     0     0     0
SMALL
USER_CHARGES

@<TRIPOS>ATOM
      1 C1          0.0592    1.5598    0.1078 C.3       1 <0>        -0.1612
      2 C2          0.0266    0.0312    0.0497 C.3       1 <0>         0.1282
      3 H1         -1.0026   -0.3277    0.0567 H         1 <0>         0.0890
      4 C3          0.7656   -0.4761   -1.2037 C.3       1 <0>        -0.0677
      5 C4          1.8963   -1.3094   -0.6400 C.2       1 <0>        -0.3842
      6 C5          1.8144   -1.2809    0.7064 C.2       1 <0>         0.2881
      7 N1          0.7780   -0.5417    1.1746 N.pl3     1 <0>        -0.5369
      8 C6          0.4694   -0.3514    2.5260 C.ar      1 <0>         0.1399
      9 C7          1.3330    0.3689    3.3412 C.ar      1 <0>        -0.1118
     10 C8          1.0291    0.5560    4.6754 C.ar      1 <0>        -0.0990
     11 C9         -0.1386    0.0267    5.2053 C.ar      1 <0>         0.0590
     12 C10        -1.0061   -0.6925    4.3915 C.ar      1 <0>         0.0665
     13 C11        -0.7027   -0.8775    3.0515 C.ar      1 <0>        -0.1112
     14 O1         -2.1602   -1.2127    4.8919 O.3       1 <0>        -0.3041
     15 C12        -2.2524   -1.3230    6.3163 C.3       1 <0>         0.0199
     16 C13        -1.7737   -0.0015    6.9325 C.3       1 <0>         0.0188
     17 O2         -0.4192    0.2187    6.5242 O.3       1 <0>        -0.3032
     18 C14         2.7824   -2.0047    1.6065 C.3       1 <0>        -0.1204
     19 C15         2.8633   -1.9941   -1.3889 C.2       1 <0>         0.4159
     20 O3          3.7862   -2.5501   -0.8264 O.2       1 <0>        -0.4949
     21 C16         2.7586   -2.0410   -2.8915 C.3       1 <0>         0.0762
     22 N2          3.8802   -2.8106   -3.4354 N.am      1 <0>        -0.5581
     23 C17         5.0675   -2.2758   -3.7829 C.2       1 <0>         0.5333
     24 O4          5.3963   -1.1113   -3.7072 O.2       1 <0>        -0.4457
     25 C18         5.9065   -3.4332   -4.2871 C.3       1 <0>         0.1010
     26 H2          6.1826   -3.2807   -5.3305 H         1 <0>         0.1382
     27 N3          5.0105   -4.5947   -4.1526 N.am      1 <0>        -0.7350
     28 C19         3.8545   -4.1320   -3.6432 C.2       1 <0>         0.7096
     29 O5          2.8931   -4.8353   -3.4019 O.2       1 <0>        -0.5181
     30 C20         7.1557   -3.6097   -3.4216 C.3       1 <0>        -0.0933
     31 C21         8.0306   -4.6834   -4.0153 C.2       1 <0>         0.0624
     32 C22         9.0806   -4.5078   -4.8497 C.ar      1 <0>        -0.1617
     33 C23         9.6979   -3.3105   -5.4326 C.ar      1 <0>        -0.0134
     34 C24        10.7633   -3.4551   -6.2530 C.ar      1 <0>        -0.1489
     35 C25        11.2912   -4.7167   -6.5602 C.ar      1 <0>         0.0567
     36 C26        10.7785   -5.8623   -6.0634 C.ar      1 <0>        -0.2103
     37 C27         9.6571   -5.8283   -5.1893 C.ar      1 <0>         0.3289
     38 N4          8.9895   -6.7832   -4.5883 N.pl3     1 <0>        -0.5834
     39 C28         7.9164   -6.1751   -3.7937 C.3       1 <0>         0.0603
     40 H3          1.0938    1.9022    0.0875 H         1 <0>         0.0643
     41 H4         -0.4754    1.9675   -0.7501 H         1 <0>         0.0770
     42 H5         -0.4177    1.8986    1.0276 H         1 <0>         0.0619
     43 H6          0.1050   -1.0904   -1.8156 H         1 <0>         0.0806
     44 H7          1.1575    0.3605   -1.7823 H         1 <0>         0.0825
     45 H8          2.2428    0.7824    2.9317 H         1 <0>         0.1369
     46 H9          1.7024    1.1156    5.3079 H         1 <0>         0.1447
     47 H10        -1.3765   -1.4344    2.4173 H         1 <0>         0.1395
     48 H11        -3.2869   -1.5094    6.6044 H         1 <0>         0.1280
     49 H12        -1.6205   -2.1405    6.6634 H         1 <0>         0.0814
     50 H13        -2.4014    0.8171    6.5803 H         1 <0>         0.0819
     51 H14        -1.8246   -0.0630    8.0196 H         1 <0>         0.1280
     52 H15         3.7764   -1.5720    1.4938 H         1 <0>         0.0960
     53 H16         2.4584   -1.9059    2.6425 H         1 <0>         0.0696
     54 H17         2.8123   -3.0597    1.3342 H         1 <0>         0.0948
     55 H18         1.8199   -2.5167   -3.1757 H         1 <0>         0.1289
     56 H19         2.7869   -1.0267   -3.2896 H         1 <0>         0.1271
     57 H20         5.2151   -5.5143   -4.3835 H         1 <0>         0.4340
     58 H21         7.7077   -2.6705   -3.3844 H         1 <0>         0.1367
     59 H22         6.8608   -3.8980   -2.4126 H         1 <0>         0.1284
     60 H23         9.3070   -2.3287   -5.2100 H         1 <0>         0.1645
     61 H24        11.2191   -2.5755   -6.6831 H         1 <0>         0.1595
     62 H25        12.1428   -4.7747   -7.2218 H         1 <0>         0.1616
     63 H26        11.2220   -6.8099   -6.3313 H         1 <0>         0.1611
     64 H27         8.0493   -6.4093   -2.7375 H         1 <0>         0.1786
     65 H28         6.9467   -6.5332   -4.1395 H         1 <0>         0.1660
     66 H29         9.1763   -7.7327   -4.6547 H         1 <0>         0.4569
@<TRIPOS>BOND
     1    1    2 1
     2    1   40 1
     3    1   41 1
     4    1   42 1
     5    2    3 1
     6    2    7 1
     7    2    4 1
     8    4    5 1
     9    4   43 1
    10    4   44 1
    11    5    6 2
    12    5   19 1
    13    6    7 1
    14    6   18 1
    15    7    8 1
    16    8   13 ar
    17    8    9 ar
    18    9   10 ar
    19    9   45 1
    20   10   11 ar
    21   10   46 1
    22   11   17 1
    23   11   12 ar
    24   12   13 ar
    25   12   14 1
    26   13   47 1
    27   14   15 1
    28   15   16 1
    29   15   48 1
    30   15   49 1
    31   16   17 1
    32   16   50 1
    33   16   51 1
    34   18   52 1
    35   18   53 1
    36   18   54 1
    37   19   20 2
    38   19   21 1
    39   21   22 1
    40   21   55 1
    41   21   56 1
    42   22   28 am
    43   22   23 am
    44   23   24 2
    45   23   25 1
    46   25   26 1
    47   25   27 1
    48   25   30 1
    49   27   28 am
    50   27   57 1
    51   28   29 2
    52   30   31 1
    53   30   58 1
    54   30   59 1
    55   31   39 1
    56   31   32 2
    57   32   37 ar
    58   32   33 ar
    59   33   34 ar
    60   33   60 1
    61   34   35 ar
    62   34   61 1
    63   35   36 ar
    64   35   62 1
    65   36   37 ar
    66   36   63 1
    67   37   38 2
    68   38   39 1
    69   38   66 1
    70   39   64 1
    71   39   65 1
@<TRIPOS>MOLECULE
ZINC09165660
   50    52     0     0     0
SMALL
USER_CHARGES
2-methyl-5-nitro-N-(2,4,4-trimethyl-3-oxo-6-oxa-2-azabicyclo[5.4.0]undeca-8,10,12-trien-9-yl)-benzenesulfonamide
@<TRIPOS>ATOM
      1 C1         -2.6080    1.8865    2.9549 C.3       1 <0>        -0.1536
      2 C2         -2.5961    2.7736    1.7367 C.ar      1 <0>         0.0702
      3 C3         -1.5765    3.6902    1.5590 C.ar      1 <0>        -0.1364
      4 C4         -1.5637    4.5014    0.4400 C.ar      1 <0>         0.0037
      5 C5         -2.5749    4.4018   -0.4975 C.ar      1 <0>        -0.0692
      6 C6         -3.5935    3.4845   -0.3206 C.ar      1 <0>         0.0522
      7 C7         -3.6042    2.6704    0.7968 C.ar      1 <0>        -0.6865
      8 S1         -4.9034    1.5018    1.0230 S.o2      1 <0>         2.6954
      9 O1         -5.7966    1.6711   -0.0691 O.2       1 <0>        -0.9344
     10 O2         -4.2835    0.2567    1.3142 O.2       1 <0>        -0.9316
     11 N1         -5.7318    1.9482    2.3856 N.pl3     1 <0>        -1.0511
     12 C8         -6.3937    3.1797    2.4297 C.ar      1 <0>         0.1415
     13 C9         -7.1726    3.5872    1.3542 C.ar      1 <0>        -0.1333
     14 C10        -7.8287    4.8029    1.3951 C.ar      1 <0>        -0.0987
     15 C11        -7.7098    5.6159    2.5105 C.ar      1 <0>         0.1213
     16 C12        -6.9268    5.2112    3.5906 C.ar      1 <0>         0.1021
     17 C13        -6.2758    3.9905    3.5510 C.ar      1 <0>        -0.1230
     18 O3         -6.8082    6.0196    4.6768 O.3       1 <0>        -0.3191
     19 C14        -5.9683    7.1640    4.5492 C.3       1 <0>         0.0786
     20 C15        -6.2154    7.8616    3.2135 C.3       1 <0>        -0.1197
     21 C16        -7.6952    7.9543    2.9442 C.2       1 <0>         0.5325
     22 O4         -8.2713    9.0150    3.0639 O.2       1 <0>        -0.5086
     23 N2         -8.3775    6.8493    2.5692 N.am      1 <0>        -0.5633
     24 C17        -9.7992    6.9382    2.2269 C.3       1 <0>         0.0851
     25 C18        -5.6187    9.2697    3.2584 C.3       1 <0>        -0.1286
     26 C19        -5.5473    7.0629    2.0925 C.3       1 <0>        -0.1688
     27 N3         -2.5635    5.2735   -1.6938 N.pl3     1 <0>         0.0265
     28 O5         -3.4517    5.1823   -2.5222 O.2       1 <0>        -0.1478
     29 O6         -1.6686    6.0853   -1.8473 O.3       1 <0>        -0.1509
     30 H1         -2.0367    0.9810    2.7506 H         1 <0>         0.1136
     31 H2         -2.1600    2.4171    3.7951 H         1 <0>         0.0991
     32 H3         -3.6361    1.6199    3.2002 H         1 <0>         0.0712
     33 H4         -0.7885    3.7706    2.2932 H         1 <0>         0.1605
     34 H5         -0.7654    5.2151    0.2995 H         1 <0>         0.1644
     35 H6         -4.3813    3.4039   -1.0550 H         1 <0>         0.1745
     36 H7         -5.7580    1.3558    3.1532 H         1 <0>         0.4325
     37 H8         -7.2653    2.9533    0.4847 H         1 <0>         0.1688
     38 H9         -8.4334    5.1191    0.5579 H         1 <0>         0.1459
     39 H10        -5.6739    3.6709    4.3889 H         1 <0>         0.1462
     40 H11        -6.1790    7.8581    5.3627 H         1 <0>         0.1132
     41 H12        -4.9249    6.8529    4.6022 H         1 <0>         0.0751
     42 H13       -10.1691    5.9505    1.9517 H         1 <0>         0.0834
     43 H14       -10.3574    7.3087    3.0867 H         1 <0>         0.0720
     44 H15        -9.9288    7.6215    1.3876 H         1 <0>         0.0701
     45 H16        -4.5463    9.2042    3.4421 H         1 <0>         0.0692
     46 H17        -5.7942    9.7693    2.3056 H         1 <0>         0.0686
     47 H18        -6.0905    9.8389    4.0594 H         1 <0>         0.0723
     48 H19        -5.7348    5.9997    2.2424 H         1 <0>         0.0771
     49 H20        -5.9580    7.3723    1.1314 H         1 <0>         0.0676
     50 H21        -4.4732    7.2478    2.1051 H         1 <0>         0.0703
@<TRIPOS>BOND
     1    1    2 1
     2    1   30 1
     3    1   31 1
     4    1   32 1
     5    2    7 ar
     6    2    3 ar
     7    3    4 ar
     8    3   33 1
     9    4    5 ar
    10    4   34 1
    11    5    6 ar
    12    5   27 1
    13    6    7 ar
    14    6   35 1
    15    7    8 1
    16    8    9 2
    17    8   10 2
    18    8   11 1
    19   11   12 1
    20   11   36 1
    21   12   17 ar
    22   12   13 ar
    23   13   14 ar
    24   13   37 1
    25   14   15 ar
    26   14   38 1
    27   15   23 1
    28   15   16 ar
    29   16   17 ar
    30   16   18 1
    31   17   39 1
    32   18   19 1
    33   19   20 1
    34   19   40 1
    35   19   41 1
    36   20   21 1
    37   20   25 1
    38   20   26 1
    39   21   22 2
    40   21   23 am
    41   23   24 1
    42   24   42 1
    43   24   43 1
    44   24   44 1
    45   25   45 1
    46   25   46 1
    47   25   47 1
    48   26   48 1
    49   26   49 1
    50   26   50 1
    51   27   28 2
    52   27   29 1
@<TRIPOS>MOLECULE
ZINC19960394
   61    66     0     0     0
SMALL
USER_CHARGES
(2,4-dimethoxyphenyl)-[[(2S)-tetrahydrofuran-2-yl]methyl]BLAH
@<TRIPOS>ATOM
      1 C1          2.9067   -1.3987   -5.1463 C.3       1 <0>         0.0228
      2 O1          3.4485   -2.0928   -4.0208 O.3       1 <0>        -0.3130
      3 C2          3.0351   -1.6904   -2.7903 C.ar      1 <0>         0.1800
      4 C3          2.1259   -0.6487   -2.6693 C.ar      1 <0>        -0.2463
      5 C4          1.7007   -0.2432   -1.4189 C.ar      1 <0>        -0.0099
      6 C5          2.1878   -0.8659   -0.2854 C.ar      1 <0>        -0.1809
      7 C6          3.0968   -1.9077   -0.4011 C.ar      1 <0>         0.1953
      8 C7          3.5208   -2.3203   -1.6551 C.ar      1 <0>        -0.2437
      9 O2          3.5715   -2.5230    0.7138 O.3       1 <0>        -0.3072
     10 C8          4.5046   -3.5878    0.5196 C.3       1 <0>         0.0201
     11 C9          1.7265   -0.4170    1.0773 C.3       1 <0>         0.3947
     12 H1          1.6622   -1.2750    1.7626 H         1 <0>         0.1236
     13 N1          0.4053    0.2196    0.9662 N.2       1 <0>        -0.6150
     14 C10         0.2742    1.4902    0.7420 C.2       1 <0>         0.6499
     15 N2         -0.9741    2.0518    0.5520 N.pl3     1 <0>        -0.7281
     16 C11        -1.0588    3.2479   -0.3028 C.3       1 <0>         0.2823
     17 N3         -0.0147    4.1958    0.1238 N.3       1 <0>        -0.5494
     18 C12         1.3200    3.5919   -0.0260 C.3       1 <0>         0.2961
     19 N4          1.3708    2.3385    0.7173 N.pl3     1 <0>        -0.5543
     20 C13         2.4955    1.9196    1.4017 C.2       1 <0>         0.5144
     21 N5          2.6738    0.5615    1.6197 N.pl3     1 <0>        -0.5190
     22 C14         3.8089    0.4166    2.3528 C.ar      1 <0>         0.0771
     23 C15         4.4675   -0.6911    2.8750 C.ar      1 <0>        -0.1009
     24 C16         5.6326   -0.4574    3.5867 C.ar      1 <0>        -0.1090
     25 C17         6.1329    0.8190    3.7779 C.ar      1 <0>        -0.1315
     26 C18         5.4974    1.9379    3.2709 C.ar      1 <0>        -0.0652
     27 C19         4.3173    1.7269    2.5499 C.ar      1 <0>         0.0556
     28 N6          3.4724    2.5847    1.9399 N.2       1 <0>        -0.4957
     29 C20        -0.1096    5.4558   -0.6254 C.3       1 <0>         0.0643
     30 C21        -1.5348    6.0031   -0.5244 C.3       1 <0>         0.0690
     31 H2         -2.2252    5.2253   -0.8826 H         1 <0>         0.0721
     32 C22        -1.6504    7.3450   -1.2810 C.3       1 <0>        -0.1483
     33 C23        -2.6070    8.1872   -0.4076 C.3       1 <0>        -0.1556
     34 C24        -2.9562    7.2546    0.7733 C.3       1 <0>         0.0425
     35 O3         -1.8541    6.3241    0.8470 O.3       1 <0>        -0.3501
     36 H3          3.3221   -1.8219   -6.0728 H         1 <0>         0.1054
     37 H4          3.1689   -0.3324   -5.0804 H         1 <0>         0.0581
     38 H5          1.8121   -1.5075   -5.1520 H         1 <0>         0.0594
     39 H6          1.7475   -0.1574   -3.5535 H         1 <0>         0.1311
     40 H7          0.9898    0.5646   -1.3270 H         1 <0>         0.1217
     41 H8          4.2280   -3.1313   -1.7472 H         1 <0>         0.1420
     42 H9          4.8056   -3.9943    1.4964 H         1 <0>         0.1071
     43 H10         5.3914   -3.2066   -0.0079 H         1 <0>         0.0608
     44 H11         4.0350   -4.3821   -0.0792 H         1 <0>         0.0609
     45 H12        -0.9010    2.9601   -1.3527 H         1 <0>         0.0424
     46 H13        -2.0525    3.7069   -0.1938 H         1 <0>         0.1115
     47 H14         1.5164    3.3959   -1.0904 H         1 <0>         0.0487
     48 H15         2.0811    4.2826    0.3661 H         1 <0>         0.1143
     49 H16         4.0864   -1.6915    2.7321 H         1 <0>         0.1351
     50 H17         6.1675   -1.2971    4.0051 H         1 <0>         0.1240
     51 H18         7.0468    0.9448    4.3393 H         1 <0>         0.1247
     52 H19         5.8947    2.9304    3.4244 H         1 <0>         0.1353
     53 H20         0.5949    6.1874   -0.2031 H         1 <0>         0.0981
     54 H21         0.1395    5.2742   -1.6813 H         1 <0>         0.0590
     55 H22        -0.6548    7.8048   -1.3662 H         1 <0>         0.0802
     56 H23        -2.0584    7.1650   -2.2866 H         1 <0>         0.0786
     57 H24        -2.0918    9.1005   -0.0754 H         1 <0>         0.0772
     58 H25        -3.4954    8.4607   -0.9957 H         1 <0>         0.0778
     59 H26        -3.0504    7.8487    1.6942 H         1 <0>         0.0942
     60 H27        -3.9083    6.7434    0.5677 H         1 <0>         0.0598
     61 H28        -1.8841    1.6386    1.0115 H         1 <0>         0.4560
@<TRIPOS>BOND
     1    1    2 1
     2    1   36 1
     3    1   37 1
     4    1   38 1
     5    2    3 1
     6    3    8 ar
     7    3    4 ar
     8    4    5 ar
     9    4   39 1
    10    5    6 ar
    11    5   40 1
    12    6    7 ar
    13    6   11 1
    14    7    8 ar
    15    7    9 1
    16    8   41 1
    17    9   10 1
    18   10   42 1
    19   10   43 1
    20   10   44 1
    21   11   12 1
    22   11   21 1
    23   11   13 1
    24   13   14 2
    25   14   19 1
    26   14   15 1
    27   15   16 1
    28   15   61 1
    29   16   17 1
    30   16   45 1
    31   16   46 1
    32   17   18 1
    33   17   29 1
    34   18   19 1
    35   18   47 1
    36   18   48 1
    37   19   20 1
    38   20   28 2
    39   20   21 1
    40   21   22 1
    41   22   27 ar
    42   22   23 ar
    43   23   24 ar
    44   23   49 1
    45   24   25 ar
    46   24   50 1
    47   25   26 ar
    48   25   51 1
    49   26   27 ar
    50   26   52 1
    51   27   28 1
    52   29   30 1
    53   29   53 1
    54   29   54 1
    55   30   31 1
    56   30   35 1
    57   30   32 1
    58   32   33 1
    59   32   55 1
    60   32   56 1
    61   33   34 1
    62   33   57 1
    63   33   58 1
    64   34   35 1
    65   34   59 1
    66   34   60 1
@<TRIPOS>MOLECULE
ZINC33271421
   48    52     0     0     0
SMALL
USER_CHARGES
(4R)-4-(3-bromo-4-methoxy-phenyl)-3-methyl-1-(3-methyl-[1,2,4]triazolo[3,4-f]pyridazin-6-yl)-5,7-dihydro-4H-pyrazolo[3,4-b]pyridin-6-one
@<TRIPOS>ATOM
      1 C1          0.5143    6.3516   -1.1164 C.3       1 <0>        -0.0950
      2 C2         -0.4208    5.2455   -0.7001 C.2       1 <0>         0.1563
      3 C3         -0.0964    3.8999   -0.6048 C.2       1 <0>        -0.2637
      4 C4         -1.2127    3.2239   -0.1899 C.2       1 <0>         0.3519
      5 N1         -2.2050    4.1273   -0.0428 N.pl3     1 <0>        -0.3259
      6 N2         -1.6817    5.3902   -0.3652 N.2       1 <0>        -0.2710
      7 C5         -3.5164    3.8550    0.3585 C.2       1 <0>         0.4329
      8 C6         -4.2784    4.8656    0.9740 C.2       1 <0>        -0.1590
      9 C7         -5.5564    4.6143    1.3645 C.2       1 <0>         0.0294
     10 C8         -6.0975    3.3322    1.1534 C.2       1 <0>         0.1245
     11 N3         -7.2711    2.7787    1.4133 N.2       1 <0>        -0.2330
     12 N4         -7.2605    1.5544    1.0153 N.2       1 <0>        -0.2511
     13 C9         -6.0982    1.2606    0.4871 C.2       1 <0>         0.2176
     14 N5         -5.3258    2.3662    0.5546 N.pl3     1 <0>        -0.2786
     15 N6         -4.0186    2.6596    0.1612 N.2       1 <0>        -0.3055
     16 C10        -5.6958   -0.0712   -0.0921 C.3       1 <0>        -0.0738
     17 N7         -1.2042    1.8465    0.0179 N.am      1 <0>        -0.6571
     18 C11        -0.0144    1.2087    0.0087 C.2       1 <0>         0.5392
     19 O1          0.0021   -0.0041    0.0020 O.2       1 <0>        -0.5032
     20 C12         1.2901    1.9543    0.0002 C.3       1 <0>        -0.1359
     21 C13         1.2112    3.2030   -0.8838 C.3       1 <0>         0.0455
     22 H1          1.2702    2.9363   -1.9494 H         1 <0>         0.1022
     23 C14         2.3576    4.1265   -0.5615 C.ar      1 <0>        -0.1101
     24 C15         3.2687    4.4651   -1.5452 C.ar      1 <0>        -0.0545
     25 C16         4.3203    5.3118   -1.2529 C.ar      1 <0>        -0.1995
     26 C17         4.4624    5.8228    0.0289 C.ar      1 <0>         0.1591
     27 C18         3.5470    5.4818    1.0147 C.ar      1 <0>        -0.1228
     28 C19         2.4934    4.6383    0.7155 C.ar      1 <0>        -0.0402
     29 Br1         3.7365    6.1760    2.7634 Br        1 <0>        -0.0328
     30 O2          5.4961    6.6564    0.3187 O.3       1 <0>        -0.3016
     31 C20         6.3992    6.9643   -0.7451 C.3       1 <0>         0.0201
     32 H2          1.5059    5.9297   -1.3371 H         1 <0>         0.0938
     33 H3          0.6010    7.0848   -0.3010 H         1 <0>         0.0867
     34 H4          0.1185    6.8476   -2.0149 H         1 <0>         0.0860
     35 H5         -3.8486    5.8436    1.1329 H         1 <0>         0.1761
     36 H6         -6.1472    5.3871    1.8337 H         1 <0>         0.1830
     37 H7         -4.6606   -0.0135   -0.4596 H         1 <0>         0.0856
     38 H8         -6.3670   -0.3265   -0.9253 H         1 <0>         0.1010
     39 H9         -5.7660   -0.8457    0.6859 H         1 <0>         0.1014
     40 H10        -2.1498    1.3094    0.1833 H         1 <0>         0.4466
     41 H11         1.5409    2.2660    1.0249 H         1 <0>         0.1122
     42 H12         2.0841    1.2997   -0.3886 H         1 <0>         0.1220
     43 H13         3.1581    4.0668   -2.5430 H         1 <0>         0.1370
     44 H14         5.0312    5.5759   -2.0218 H         1 <0>         0.1403
     45 H15         1.7782    4.3756    1.4810 H         1 <0>         0.1359
     46 H16         7.1822    7.6433   -0.3764 H         1 <0>         0.1068
     47 H17         5.8487    7.4498   -1.5644 H         1 <0>         0.0608
     48 H18         6.8618    6.0367   -1.1133 H         1 <0>         0.0603
@<TRIPOS>BOND
     1    1    2 1
     2    1   32 1
     3    1   33 1
     4    1   34 1
     5    2    6 2
     6    2    3 1
     7    3   21 1
     8    3    4 2
     9    4    5 1
    10    4   17 1
    11    5    6 1
    12    5    7 1
    13    7   15 2
    14    7    8 1
    15    8    9 2
    16    8   35 1
    17    9   10 1
    18    9   36 1
    19   10   14 1
    20   10   11 2
    21   11   12 1
    22   12   13 2
    23   13   14 1
    24   13   16 1
    25   14   15 1
    26   16   37 1
    27   16   38 1
    28   16   39 1
    29   17   18 am
    30   17   40 1
    31   18   19 2
    32   18   20 1
    33   20   21 1
    34   20   41 1
    35   20   42 1
    36   21   22 1
    37   21   23 1
    38   23   28 ar
    39   23   24 ar
    40   24   25 ar
    41   24   43 1
    42   25   26 ar
    43   25   44 1
    44   26   27 ar
    45   26   30 1
    46   27   28 ar
    47   27   29 1
    48   28   45 1
    49   30   31 1
    50   31   46 1
    51   31   47 1
    52   31   48 1
@<TRIPOS>MOLECULE
ZINC35851659
   58    63     0     0     0
SMALL
USER_CHARGES

@<TRIPOS>ATOM
      1 C1          0.0366    1.5692    0.1944 C.3       1 <0>        -0.1478
      2 C2          0.0367    0.0616   -0.0665 C.3       1 <0>        -0.0897
      3 C3         -1.3790   -0.4538   -0.0352 C.ar      1 <0>        -0.1010
      4 C4         -1.9768   -0.7647    1.1727 C.ar      1 <0>        -0.0659
      5 C5         -3.2729   -1.2351    1.2073 C.ar      1 <0>        -0.1262
      6 C6         -3.9900   -1.4017    0.0247 C.ar      1 <0>         0.1615
      7 C7         -3.3774   -1.0879   -1.1847 C.ar      1 <0>        -0.1321
      8 C8         -2.0857   -0.6116   -1.2141 C.ar      1 <0>        -0.0623
      9 C9         -4.3966   -1.3794   -2.2501 C.3       1 <0>         0.1128
     10 C10        -3.8857   -2.4349   -3.2378 C.3       1 <0>        -0.1359
     11 H1         -4.6507   -3.1646   -3.5030 H         1 <0>         0.1492
     12 C11        -3.3830   -1.6192   -4.4603 C.3       1 <0>        -0.1415
     13 H2         -3.8654   -1.9167   -5.3915 H         1 <0>         0.1506
     14 C12        -3.6531   -0.1466   -4.1012 C.3       1 <0>         0.0651
     15 H3         -2.7546    0.3571   -3.7445 H         1 <0>         0.1107
     16 N1         -4.7050   -0.1809   -3.0480 N.3       1 <0>        -0.4385
     17 C13        -5.9641   -0.3895   -3.8022 C.3       1 <0>         0.0142
     18 C14        -5.8016    0.4311   -5.0974 C.3       1 <0>        -0.1251
     19 C15        -4.2699    0.5693   -5.3165 C.3       1 <0>        -0.1177
     20 C16        -1.8942   -1.8833   -4.4685 C.2       1 <0>         0.5386
     21 O1         -1.1063   -1.4292   -5.2700 O.2       1 <0>        -0.4501
     22 N2         -1.5823   -2.6961   -3.4525 N.am      1 <0>        -0.5376
     23 C17        -2.6321   -3.0800   -2.6908 C.2       1 <0>         0.5476
     24 O2         -2.5853   -3.8154   -1.7282 O.2       1 <0>        -0.4373
     25 C18        -0.2712   -3.1231   -3.1986 C.ar      1 <0>         0.1591
     26 C19         0.5088   -2.4562   -2.2634 C.ar      1 <0>        -0.1053
     27 C20         1.7999   -2.8790   -2.0155 C.ar      1 <0>        -0.0500
     28 C21         2.3161   -3.9656   -2.6977 C.ar      1 <0>        -0.0303
     29 C22         1.5418   -4.6318   -3.6295 C.ar      1 <0>        -0.0468
     30 C23         0.2477   -4.2169   -3.8776 C.ar      1 <0>        -0.0613
     31 C24        -0.5977   -4.9473   -4.8889 C.3       1 <0>        -0.1198
     32 N3          3.7005   -4.4161   -2.4300 N.pl3     1 <0>         0.0308
     33 O3          4.3787   -3.8342   -1.6157 O.2       1 <0>        -0.1478
     34 O4          4.1529   -5.3659   -3.0257 O.3       1 <0>        -0.1498
     35 C25        -5.6091   -1.8702   -1.5055 C.2       1 <0>         0.5509
     36 O5         -6.6662   -2.2143   -1.9904 O.2       1 <0>        -0.4788
     37 N4         -5.2928   -1.8532   -0.1966 N.am      1 <0>        -0.6508
     38 H4          1.0606    1.9420    0.1717 H         1 <0>         0.0623
     39 H5         -0.5499    2.0711   -0.5752 H         1 <0>         0.0573
     40 H6         -0.4011    1.7686    1.1726 H         1 <0>         0.0598
     41 H7          0.4744   -0.1378   -1.0447 H         1 <0>         0.0693
     42 H8          0.6232   -0.4403    0.7030 H         1 <0>         0.0813
     43 H9         -1.4259   -0.6390    2.0931 H         1 <0>         0.1374
     44 H10        -3.7332   -1.4754    2.1543 H         1 <0>         0.1337
     45 H11        -1.6226   -0.3653   -2.1582 H         1 <0>         0.1166
     46 H12        -6.0929   -1.4459   -4.0378 H         1 <0>         0.0688
     47 H13        -6.8144   -0.0233   -3.2270 H         1 <0>         0.0939
     48 H14        -6.2449   -0.0998   -5.9398 H         1 <0>         0.0776
     49 H15        -6.2616    1.4127   -4.9835 H         1 <0>         0.0798
     50 H16        -3.9911    1.6231   -5.3147 H         1 <0>         0.0840
     51 H17        -3.9421    0.0935   -6.2407 H         1 <0>         0.0866
     52 H18         0.1063   -1.6073   -1.7306 H         1 <0>         0.1580
     53 H19         2.4071   -2.3604   -1.2884 H         1 <0>         0.1641
     54 H20         1.9476   -5.4800   -4.1607 H         1 <0>         0.1643
     55 H21        -0.4552   -4.4999   -5.8726 H         1 <0>         0.0883
     56 H22        -0.3017   -5.9959   -4.9204 H         1 <0>         0.0870
     57 H23        -1.6476   -4.8745   -4.6053 H         1 <0>         0.0673
     58 H24        -5.8995   -2.1233    0.5104 H         1 <0>         0.4210
@<TRIPOS>BOND
     1    1    2 1
     2    1   38 1
     3    1   39 1
     4    1   40 1
     5    2    3 1
     6    2   41 1
     7    2   42 1
     8    3    8 ar
     9    3    4 ar
    10    4    5 ar
    11    4   43 1
    12    5    6 ar
    13    5   44 1
    14    6   37 1
    15    6    7 ar
    16    7    8 ar
    17    7    9 1
    18    8   45 1
    19    9   16 1
    20    9   10 1
    21    9   35 1
    22   10   11 1
    23   10   23 1
    24   10   12 1
    25   12   13 1
    26   12   14 1
    27   12   20 1
    28   14   15 1
    29   14   19 1
    30   14   16 1
    31   16   17 1
    32   17   18 1
    33   17   46 1
    34   17   47 1
    35   18   19 1
    36   18   48 1
    37   18   49 1
    38   19   50 1
    39   19   51 1
    40   20   21 2
    41   20   22 am
    42   22   23 am
    43   22   25 1
    44   23   24 2
    45   25   30 ar
    46   25   26 ar
    47   26   27 ar
    48   26   52 1
    49   27   28 ar
    50   27   53 1
    51   28   29 ar
    52   28   32 1
    53   29   30 ar
    54   29   54 1
    55   30   31 1
    56   31   55 1
    57   31   56 1
    58   31   57 1
    59   32   33 2
    60   32   34 1
    61   35   36 2
    62   35   37 am
    63   37   58 1
@<TRIPOS>MOLECULE
ZINC64480096
   53    57     0     0     0
SMALL
USER_CHARGES

@<TRIPOS>ATOM
      1 C1          0.0116    1.4916    0.2523 C.3       1 <0>        -0.1333
      2 C2          0.0161   -0.0092    0.1160 C.2       1 <0>         0.0626
      3 C3         -1.2240   -0.7815    0.2213 C.ar      1 <0>        -0.1843
      4 C4         -2.4499   -0.1484    0.4465 C.ar      1 <0>        -0.0179
      5 C5         -3.5993   -0.8861    0.5312 C.ar      1 <0>        -0.1761
      6 C6         -3.5548   -2.2700    0.3955 C.ar      1 <0>         0.2022
      7 C7         -2.3427   -2.9138    0.1805 C.ar      1 <0>        -0.1756
      8 C8         -1.1692   -2.1813    0.0919 C.ar      1 <0>         0.1833
      9 O1          0.0109   -2.8002   -0.1160 O.3       1 <0>        -0.2589
     10 C9          1.1418   -2.0930   -0.2299 C.2       1 <0>         0.5223
     11 O2          2.1843   -2.6848   -0.4452 O.2       1 <0>        -0.4648
     12 C10         1.1701   -0.6890   -0.1143 C.2       1 <0>        -0.2272
     13 C11         2.4745    0.0549   -0.2413 C.3       1 <0>        -0.0719
     14 C12         3.1676    0.0857    1.0965 C.2       1 <0>         0.5305
     15 O3          2.6530   -0.4443    2.0584 O.2       1 <0>        -0.5002
     16 N1          4.3593    0.7021    1.2240 N.am      1 <0>        -0.7003
     17 C13         5.0330    0.7321    2.5245 C.3       1 <0>         0.2556
     18 N2          4.4659    1.7909    3.3764 N.2       1 <0>        -0.1201
     19 N3          5.3941    2.5760    3.6142 N.2       1 <0>        -0.0319
     20 N4          6.5821    2.1759    3.0080 N.2       1 <0>        -0.0214
     21 N5          6.4436    1.1248    2.3672 N.2       1 <0>        -0.1303
     22 O4         -4.6800   -3.0282    0.4599 O.3       1 <0>        -0.2906
     23 C14        -5.8471   -2.4443    1.0363 C.3       1 <0>         0.1205
     24 C15        -5.6527   -2.2789    2.5438 C.3       1 <0>        -0.1419
     25 C16        -5.4310   -3.6508    3.1842 C.3       1 <0>        -0.1192
     26 C17        -6.6478   -4.5397    2.9189 C.3       1 <0>        -0.1207
     27 C18        -6.8374   -4.7075    1.4100 C.3       1 <0>        -0.1207
     28 C19        -7.0594   -3.3364    0.7683 C.3       1 <0>        -0.1040
     29 C20        -6.0732   -1.0695    0.3966 C.3       1 <0>        -0.1505
     30 C21        -4.9001   -0.1631    0.7774 C.3       1 <0>        -0.0780
     31 H1         -0.0858    1.9458   -0.7338 H         1 <0>         0.0965
     32 H2         -0.8275    1.7972    0.8774 H         1 <0>         0.0855
     33 H3          0.9446    1.8175    0.7119 H         1 <0>         0.0810
     34 H4         -2.4898    0.9255    0.5542 H         1 <0>         0.1432
     35 H5         -2.3145   -3.9890    0.0824 H         1 <0>         0.1519
     36 H6          3.1109   -0.4492   -0.9687 H         1 <0>         0.1235
     37 H7          2.2803    1.0747   -0.5735 H         1 <0>         0.1175
     38 H8          4.7709    1.1260    0.4547 H         1 <0>         0.4200
     39 H9          4.9584   -0.2382    3.0155 H         1 <0>         0.1938
     40 H10        -4.7851   -1.6462    2.7309 H         1 <0>         0.0715
     41 H11        -6.5398   -1.8156    2.9757 H         1 <0>         0.0810
     42 H12        -4.5425   -4.1132    2.7542 H         1 <0>         0.0671
     43 H13        -5.2949   -3.5323    4.2591 H         1 <0>         0.0649
     44 H14        -6.4907   -5.5165    3.3763 H         1 <0>         0.0646
     45 H15        -7.5365   -4.0764    3.3475 H         1 <0>         0.0620
     46 H16        -5.9482   -5.1697    0.9813 H         1 <0>         0.0710
     47 H17        -7.7035   -5.3417    1.2210 H         1 <0>         0.0663
     48 H18        -7.9506   -2.8759    1.1948 H         1 <0>         0.0854
     49 H19        -7.1918   -3.4559   -0.3070 H         1 <0>         0.0747
     50 H20        -6.1213   -1.1722   -0.6874 H         1 <0>         0.0806
     51 H21        -7.0042   -0.6406    0.7672 H         1 <0>         0.0899
     52 H22        -4.9738    0.1019    1.8321 H         1 <0>         0.0845
     53 H23        -4.9312    0.7435    0.1731 H         1 <0>         0.0864
@<TRIPOS>BOND
     1    1    2 1
     2    1   31 1
     3    1   32 1
     4    1   33 1
     5    2   12 2
     6    2    3 1
     7    3    8 ar
     8    3    4 ar
     9    4    5 ar
    10    4   34 1
    11    5   30 1
    12    5    6 ar
    13    6    7 ar
    14    6   22 1
    15    7    8 ar
    16    7   35 1
    17    8    9 1
    18    9   10 1
    19   10   11 2
    20   10   12 1
    21   12   13 1
    22   13   14 1
    23   13   36 1
    24   13   37 1
    25   14   15 2
    26   14   16 am
    27   16   17 1
    28   16   38 1
    29   17   21 1
    30   17   18 1
    31   17   39 1
    32   18   19 2
    33   19   20 1
    34   20   21 2
    35   22   23 1
    36   23   28 1
    37   23   24 1
    38   23   29 1
    39   24   25 1
    40   24   40 1
    41   24   41 1
    42   25   26 1
    43   25   42 1
    44   25   43 1
    45   26   27 1
    46   26   44 1
    47   26   45 1
    48   27   28 1
    49   27   46 1
    50   27   47 1
    51   28   48 1
    52   28   49 1
    53   29   30 1
    54   29   50 1
    55   29   51 1
    56   30   52 1
    57   30   53 1
@<TRIPOS>MOLECULE
ZINC12763924
   48    50     0     0     0
SMALL
USER_CHARGES
5-[(4-tert-butyl-2,6-dimethyl-phenyl)methyl]-1-methyl-pyrazolo[4,5-e]pyrimidin-4-one
@<TRIPOS>ATOM
      1 C1         -0.1069    3.8286    0.9868 C.3       1 <0>        -0.1296
      2 C2         -1.0156    2.7719    1.5601 C.ar      1 <0>        -0.0629
      3 C3         -1.8916    3.0929    2.5802 C.ar      1 <0>        -0.1318
      4 C4         -2.7208    2.1221    3.1102 C.ar      1 <0>        -0.0480
      5 C5         -2.6784    0.8318    2.6160 C.ar      1 <0>        -0.1255
      6 C6         -1.8065    0.5122    1.5920 C.ar      1 <0>        -0.0395
      7 C7         -0.9769    1.4829    1.0623 C.ar      1 <0>        -0.1306
      8 C8         -0.0260    1.1343   -0.0536 C.3       1 <0>         0.1336
      9 N1         -0.5312    1.6827   -1.3147 N.am      1 <0>        -0.5366
     10 C9         -0.0659    2.8740   -1.7679 C.2       1 <0>         0.4084
     11 N2         -0.4704    3.4177   -2.8782 N.2       1 <0>        -0.5337
     12 C10        -1.3879    2.8300   -3.6622 C.2       1 <0>         0.3318
     13 C11        -1.9278    1.5933   -3.2751 C.2       1 <0>        -0.3417
     14 C12        -1.4560    0.9961   -2.0258 C.2       1 <0>         0.5762
     15 O1         -1.8825   -0.0772   -1.6379 O.2       1 <0>        -0.5054
     16 C13        -2.8519    1.2124   -4.2658 C.2       1 <0>         0.1285
     17 N3         -2.8752    2.1396   -5.1831 N.2       1 <0>        -0.2713
     18 N4         -1.9782    3.1592   -4.8404 N.pl3     1 <0>        -0.3532
     19 C14        -1.7210    4.3732   -5.6190 C.3       1 <0>         0.1018
     20 C15        -1.7599   -0.8945    1.0536 C.3       1 <0>        -0.1394
     21 C16        -3.6713    2.4706    4.2265 C.3       1 <0>        -0.0319
     22 C17        -3.3521    1.6149    5.4540 C.3       1 <0>        -0.1386
     23 C18        -3.5188    3.9506    4.5829 C.3       1 <0>        -0.1446
     24 C19        -5.1082    2.2000    3.7759 C.3       1 <0>        -0.1394
     25 H1         -0.5666    4.2596    0.0974 H         1 <0>         0.0730
     26 H2          0.0535    4.6112    1.7284 H         1 <0>         0.0756
     27 H3          0.8497    3.3794    0.7199 H         1 <0>         0.0696
     28 H4         -1.9249    4.1010    2.9661 H         1 <0>         0.1278
     29 H5         -3.3263    0.0734    3.0301 H         1 <0>         0.1220
     30 H6          0.0561    0.0505   -0.1358 H         1 <0>         0.1126
     31 H7          0.9553    1.5580    0.1596 H         1 <0>         0.1071
     32 H8          0.6745    3.3952   -1.1792 H         1 <0>         0.2117
     33 H9         -3.4412    0.3074   -4.2664 H         1 <0>         0.1986
     34 H10        -0.9093    4.1883   -6.3227 H         1 <0>         0.0797
     35 H11        -2.6212    4.6505   -6.1675 H         1 <0>         0.0942
     36 H12        -1.4412    5.1838   -4.9463 H         1 <0>         0.0944
     37 H13        -1.1058   -1.5017    1.6794 H         1 <0>         0.0668
     38 H14        -2.7639   -1.3189    1.0584 H         1 <0>         0.0659
     39 H15        -1.3763   -0.8806    0.0334 H         1 <0>         0.1005
     40 H16        -2.3284    1.8077    5.7750 H         1 <0>         0.0568
     41 H17        -4.0396    1.8669    6.2614 H         1 <0>         0.0598
     42 H18        -3.4608    0.5604    5.2001 H         1 <0>         0.0574
     43 H19        -3.7462    4.5603    3.7084 H         1 <0>         0.0580
     44 H20        -4.2063    4.2027    5.3903 H         1 <0>         0.0595
     45 H21        -2.4951    4.1434    4.9039 H         1 <0>         0.0591
     46 H22        -5.2169    1.1456    3.5220 H         1 <0>         0.0575
     47 H23        -5.7958    2.4520    4.5833 H         1 <0>         0.0601
     48 H24        -5.3357    2.8096    2.9014 H         1 <0>         0.0556
@<TRIPOS>BOND
     1    1    2 1
     2    1   25 1
     3    1   26 1
     4    1   27 1
     5    2    7 ar
     6    2    3 ar
     7    3    4 ar
     8    3   28 1
     9    4    5 ar
    10    4   21 1
    11    5    6 ar
    12    5   29 1
    13    6    7 ar
    14    6   20 1
    15    7    8 1
    16    8    9 1
    17    8   30 1
    18    8   31 1
    19    9   14 am
    20    9   10 1
    21   10   11 2
    22   10   32 1
    23   11   12 1
    24   12   18 1
    25   12   13 2
    26   13   14 1
    27   13   16 1
    28   14   15 2
    29   16   17 2
    30   16   33 1
    31   17   18 1
    32   18   19 1
    33   19   34 1
    34   19   35 1
    35   19   36 1
    36   20   37 1
    37   20   38 1
    38   20   39 1
    39   21   22 1
    40   21   23 1
    41   21   24 1
    42   22   40 1
    43   22   41 1
    44   22   42 1
    45   23   43 1
    46   23   44 1
    47   23   45 1
    48   24   46 1
    49   24   47 1
    50   24   48 1
@<TRIPOS>MOLECULE
ZINC35683275
   40    42     0     0     0
SMALL
USER_CHARGES

@<TRIPOS>ATOM
      1 C1         -0.0184    1.5028    0.0103 C.3       1 <0>        -0.0871
      2 C2          0.0021   -0.0041    0.0020 C.2       1 <0>         0.0440
      3 C3         -1.2080   -0.7264    0.0039 C.2       1 <0>         0.5180
      4 O1         -2.2822   -0.1480    0.0102 O.2       1 <0>        -0.4674
      5 N1         -1.1473   -2.0794   -0.0020 N.am      1 <0>        -0.3589
      6 C4          0.0948   -2.6588   -0.0160 C.2       1 <0>         0.2494
      7 N2          1.1909   -1.9329   -0.0159 N.2       1 <0>        -0.2717
      8 N3          1.1474   -0.6462   -0.0124 N.2       1 <0>        -0.1907
      9 S1          0.1664   -4.4280   -0.0370 S.3       1 <0>         0.0505
     10 C5         -1.2908   -4.8377    0.9872 C.3       1 <0>        -0.1394
     11 C6         -2.4518   -4.0449    0.4241 C.2       1 <0>         0.2198
     12 N4         -2.3116   -2.8355    0.0078 N.2       1 <0>        -0.2732
     13 C7         -3.7816   -4.6774    0.3509 C.ar      1 <0>        -0.0736
     14 C8         -3.9616   -5.9875    0.8018 C.ar      1 <0>        -0.0773
     15 C9         -5.2086   -6.5725    0.7306 C.ar      1 <0>        -0.1197
     16 C10        -6.2798   -5.8653    0.2138 C.ar      1 <0>        -0.0349
     17 C11        -6.1090   -4.5674   -0.2347 C.ar      1 <0>        -0.1264
     18 C12        -4.8690   -3.9675   -0.1644 C.ar      1 <0>        -0.0565
     19 C13        -7.6390   -6.5119    0.1385 C.3       1 <0>        -0.0356
     20 C14        -8.0959   -6.9037    1.5451 C.3       1 <0>        -0.1404
     21 C15        -8.6400   -5.5258   -0.4668 C.3       1 <0>        -0.1485
     22 C16        -7.5608   -7.7626   -0.7393 C.3       1 <0>        -0.1404
     23 H1          1.0042    1.8801    0.0026 H         1 <0>         0.0953
     24 H2         -0.5455    1.8639   -0.8728 H         1 <0>         0.0928
     25 H3         -0.5286    1.8543    0.9071 H         1 <0>         0.0920
     26 H4         -1.5026   -5.9051    0.9249 H         1 <0>         0.1621
     27 H5         -1.1111   -4.5515    2.0235 H         1 <0>         0.1344
     28 H6         -3.1262   -6.5408    1.2048 H         1 <0>         0.1325
     29 H7         -5.3492   -7.5851    1.0788 H         1 <0>         0.1331
     30 H8         -6.9495   -4.0215   -0.6372 H         1 <0>         0.1369
     31 H9         -4.7381   -2.9530   -0.5110 H         1 <0>         0.1384
     32 H10        -8.1516   -6.0127    2.1704 H         1 <0>         0.0581
     33 H11        -9.0790   -7.3714    1.4906 H         1 <0>         0.0625
     34 H12        -7.3828   -7.6063    1.9763 H         1 <0>         0.0588
     35 H13        -8.3145   -5.2466   -1.4689 H         1 <0>         0.0608
     36 H14        -9.6231   -5.9935   -0.5213 H         1 <0>         0.0621
     37 H15        -8.6957   -4.6347    0.1586 H         1 <0>         0.0607
     38 H16        -6.8476   -8.4651   -0.3081 H         1 <0>         0.0588
     39 H17        -8.5438   -8.2303   -0.7938 H         1 <0>         0.0624
     40 H18        -7.2352   -7.4834   -1.7414 H         1 <0>         0.0582
@<TRIPOS>BOND
     1    1    2 1
     2    1   23 1
     3    1   24 1
     4    1   25 1
     5    2    8 2
     6    2    3 1
     7    3    4 2
     8    3    5 am
     9    5   12 1
    10    5    6 1
    11    6    7 2
    12    6    9 1
    13    7    8 1
    14    9   10 1
    15   10   11 1
    16   10   26 1
    17   10   27 1
    18   11   12 2
    19   11   13 1
    20   13   18 ar
    21   13   14 ar
    22   14   15 ar
    23   14   28 1
    24   15   16 ar
    25   15   29 1
    26   16   17 ar
    27   16   19 1
    28   17   18 ar
    29   17   30 1
    30   18   31 1
    31   19   20 1
    32   19   21 1
    33   19   22 1
    34   20   32 1
    35   20   33 1
    36   20   34 1
    37   21   35 1
    38   21   36 1
    39   21   37 1
    40   22   38 1
    41   22   39 1
    42   22   40 1
@<TRIPOS>MOLECULE
ZINC43408015
   32    34     0     0     0
SMALL
USER_CHARGES

@<TRIPOS>ATOM
      1 C1          0.6042    0.3396    1.1860 C.ar      1 <0>        -0.0627
      2 C2          1.7916    1.0444    1.1859 C.ar      1 <0>        -0.0548
      3 C3          2.3815    1.4084   -0.0184 C.ar      1 <0>        -0.0884
      4 C4          1.7737    1.0613   -1.2188 C.ar      1 <0>        -0.0539
      5 C5          0.5864    0.3564   -1.2112 C.ar      1 <0>        -0.0629
      6 C6          0.0021   -0.0042   -0.0106 C.ar      1 <0>        -0.0184
      7 N1         -1.2707   -0.7599   -0.0065 N.pl3     1 <0>         0.0277
      8 O1         -1.7827   -1.0759    1.0422 O.2       1 <0>        -0.1496
      9 O2         -1.7983   -1.0612   -1.0517 O.3       1 <0>        -0.1491
     10 S1          3.8963    2.3084   -0.0234 S.3       1 <0>         0.0688
     11 C7          5.1337    1.0609    0.1073 C.ar      1 <0>         0.1500
     12 C8          6.4849    1.4273    0.2412 C.ar      1 <0>        -0.0565
     13 C9          7.4454    0.4160    0.3427 C.ar      1 <0>         0.0013
     14 C10         7.0247   -0.9035    0.3069 C.ar      1 <0>        -0.1503
     15 C11         5.6774   -1.1895    0.1733 C.ar      1 <0>         0.1667
     16 N2          4.7864   -0.2147    0.0843 N.ar      1 <0>        -0.4768
     17 C12         5.4772   -2.6918    0.1617 C.3       1 <0>        -0.0760
     18 C13         6.8699   -3.2840   -0.1394 C.3       1 <0>        -0.1194
     19 C14         7.8183   -2.1887    0.3928 C.3       1 <0>        -0.0789
     20 C15         6.8690    2.8065    0.2725 C.1       1 <0>         0.2471
     21 N3          7.1736    3.9006    0.2974 N.1       1 <0>        -0.3828
     22 H1          0.1475    0.0525    2.1217 H         1 <0>         0.1608
     23 H2          2.2611    1.3129    2.1207 H         1 <0>         0.1542
     24 H3          2.2293    1.3429   -2.1566 H         1 <0>         0.1560
     25 H4          0.1133    0.0866   -2.1438 H         1 <0>         0.1612
     26 H5          8.4928    0.6584    0.4462 H         1 <0>         0.1524
     27 H6          5.1234   -3.0335    1.1344 H         1 <0>         0.0977
     28 H7          4.7701   -2.9729   -0.6187 H         1 <0>         0.0908
     29 H8          7.0178   -4.2198    0.3995 H         1 <0>         0.0892
     30 H9          7.0065   -3.4273   -1.2113 H         1 <0>         0.0800
     31 H10         8.7102   -2.1249   -0.2305 H         1 <0>         0.0860
     32 H11         8.0925   -2.3956    1.4272 H         1 <0>         0.0908
@<TRIPOS>BOND
     1    1    6 ar
     2    1    2 ar
     3    1   22 1
     4    2    3 ar
     5    2   23 1
     6    3    4 ar
     7    3   10 1
     8    4    5 ar
     9    4   24 1
    10    5    6 ar
    11    5   25 1
    12    6    7 1
    13    7    8 2
    14    7    9 1
    15   10   11 1
    16   11   16 ar
    17   11   12 ar
    18   12   13 ar
    19   12   20 1
    20   13   14 ar
    21   13   26 1
    22   14   19 1
    23   14   15 ar
    24   15   16 ar
    25   15   17 1
    26   17   18 1
    27   17   27 1
    28   17   28 1
    29   18   19 1
    30   18   29 1
    31   18   30 1
    32   19   31 1
    33   19   32 1
    34   20   21 3
@<TRIPOS>MOLECULE
ZINC54268077
   31    32     0     0     0
SMALL
USER_CHARGES

@<TRIPOS>ATOM
      1 C1         -0.0167    1.3783    0.0096 C.ar      1 <0>        -0.0311
      2 C2          1.1691    2.0872    0.0021 C.ar      1 <0>        -0.1159
      3 C3          2.3811    1.4099   -0.0131 C.ar      1 <0>         0.2401
      4 C4          2.3969    0.0199   -0.0206 C.ar      1 <0>        -0.1121
      5 C5          1.2072   -0.6825   -0.0130 C.ar      1 <0>        -0.0221
      6 C6          0.0021   -0.0041    0.0020 C.ar      1 <0>        -0.0470
      7 N1         -1.2705   -0.7597    0.0101 N.pl3     1 <0>         0.0323
      8 O1         -2.3248   -0.1681    0.0233 O.2       1 <0>        -0.1481
      9 O2         -1.2558   -1.9686    0.0034 O.3       1 <0>        -0.1494
     10 Br1         4.0443   -0.9082   -0.0419 Br        1 <0>        -0.0017
     11 N2          3.5822    2.1238   -0.0212 N.pl3     1 <0>        -0.6690
     12 C7          4.2103    2.5179   -1.2896 C.3       1 <0>         0.1475
     13 C8          5.6595    2.0214   -1.2975 C.3       1 <0>        -0.1428
     14 C9          6.3795    2.5416   -0.0513 C.3       1 <0>        -0.1120
     15 C10         5.6897    1.9988    1.2024 C.3       1 <0>        -0.1324
     16 C11         4.2380    2.4999    1.2387 C.3       1 <0>         0.1133
     17 H1          4.2255    3.5844    1.3475 H         1 <0>         0.0915
     18 C12         3.5110    1.8648    2.3959 C.2       1 <0>         0.3355
     19 O3          3.0208    2.5579    3.2547 O.2       1 <0>        -0.4351
     20 H2         -0.9595    1.9048    0.0259 H         1 <0>         0.1638
     21 H3          1.1534    3.1670    0.0077 H         1 <0>         0.1587
     22 H4          1.2184   -1.7624   -0.0193 H         1 <0>         0.1658
     23 H5          3.6662    2.0704   -2.1213 H         1 <0>         0.0748
     24 H6          4.1956    3.6038   -1.3827 H         1 <0>         0.0633
     25 H7          5.6706    0.9314   -1.2957 H         1 <0>         0.0736
     26 H8          6.1653    2.3894   -2.1901 H         1 <0>         0.0747
     27 H9          7.4178    2.2102   -0.0668 H         1 <0>         0.0693
     28 H10         6.3464    3.6311   -0.0410 H         1 <0>         0.0656
     29 H11         5.7006    0.9091    1.1807 H         1 <0>         0.0788
     30 H12         6.2171    2.3508    2.0891 H         1 <0>         0.0763
     31 H13         3.4284    0.7897    2.4572 H         1 <0>         0.0939
@<TRIPOS>BOND
     1    1    6 ar
     2    1    2 ar
     3    1   20 1
     4    2    3 ar
     5    2   21 1
     6    3    4 ar
     7    3   11 1
     8    4    5 ar
     9    4   10 1
    10    5    6 ar
    11    5   22 1
    12    6    7 1
    13    7    8 2
    14    7    9 1
    15   11   16 1
    16   11   12 1
    17   12   13 1
    18   12   23 1
    19   12   24 1
    20   13   14 1
    21   13   25 1
    22   13   26 1
    23   14   15 1
    24   14   27 1
    25   14   28 1
    26   15   16 1
    27   15   29 1
    28   15   30 1
    29   16   17 1
    30   16   18 1
    31   18   19 2
    32   18   31 1
@<TRIPOS>MOLECULE
ZINC62425970
   35    37     0     0     0
SMALL
USER_CHARGES

@<TRIPOS>ATOM
      1 C1         -0.0184    1.5028    0.0103 C.3       1 <0>        -0.1219
      2 C2          0.0021   -0.0041    0.0020 C.ar      1 <0>        -0.0643
      3 C3          0.0057   -0.6859   -1.2024 C.ar      1 <0>        -0.1235
      4 C4          0.0248   -2.0645   -1.2183 C.ar      1 <0>        -0.0822
      5 C5          0.0406   -2.7738   -0.0132 C.ar      1 <0>        -0.0902
      6 C6          0.0368   -2.0777    1.1995 C.ar      1 <0>        -0.0909
      7 C7          0.0229   -0.6988    1.1988 C.ar      1 <0>        -0.1232
      8 C8          0.0605   -4.2457   -0.0213 C.2       1 <0>        -0.0055
      9 C9          0.0757   -4.9261    1.1426 C.2       1 <0>        -0.1621
     10 C10         0.0955   -6.3890    1.1345 C.2       1 <0>         0.1678
     11 C11        -0.7471   -7.2371    0.4127 C.2       1 <0>         0.0362
     12 N1         -0.3961   -8.5032    0.6860 N.2       1 <0>        -0.1763
     13 N2          0.5885   -8.5237    1.5125 N.2       1 <0>        -0.0042
     14 N3          0.9492   -7.2069    1.8298 N.pl3     1 <0>        -0.2765
     15 C12         1.9726   -6.8072    2.6854 C.2       1 <0>         0.2407
     16 N4          2.8121   -7.5597    3.3629 N.2       1 <0>        -0.4939
     17 C13         3.7351   -7.0252    4.1380 C.2       1 <0>         0.0848
     18 C14         3.7768   -5.6701    4.2026 C.2       1 <0>        -0.2206
     19 S1          2.4402   -5.2439    3.0980 S.3       1 <0>         0.1969
     20 C15         4.7002   -7.8806    4.9177 C.3       1 <0>        -0.0837
     21 C16        -1.8017   -6.8273   -0.4650 C.1       1 <0>         0.2924
     22 N5         -2.6384   -6.5022   -1.1613 N.1       1 <0>        -0.3701
     23 H1          1.0042    1.8801    0.0026 H         1 <0>         0.0754
     24 H2         -0.5455    1.8639   -0.8728 H         1 <0>         0.0700
     25 H3         -0.5286    1.8543    0.9071 H         1 <0>         0.0699
     26 H4         -0.0068   -0.1366   -2.1322 H         1 <0>         0.1285
     27 H5          0.0273   -2.5952   -2.1589 H         1 <0>         0.1296
     28 H6          0.0488   -2.6185    2.1343 H         1 <0>         0.1277
     29 H7          0.0244   -0.1597    2.1346 H         1 <0>         0.1284
     30 H8          0.0631   -4.7806   -0.9596 H         1 <0>         0.1319
     31 H9          0.0731   -4.3913    2.0808 H         1 <0>         0.1518
     32 H10         4.4384   -5.0271    4.7639 H         1 <0>         0.2112
     33 H11         5.5880   -8.0692    4.3141 H         1 <0>         0.0821
     34 H12         4.9866   -7.3630    5.8332 H         1 <0>         0.0829
     35 H13         4.2241   -8.8282    5.1697 H         1 <0>         0.0810
@<TRIPOS>BOND
     1    1    2 1
     2    1   23 1
     3    1   24 1
     4    1   25 1
     5    2    7 ar
     6    2    3 ar
     7    3    4 ar
     8    3   26 1
     9    4    5 ar
    10    4   27 1
    11    5    6 ar
    12    5    8 1
    13    6    7 ar
    14    6   28 1
    15    7   29 1
    16    8    9 2
    17    8   30 1
    18    9   10 1
    19    9   31 1
    20   10   14 1
    21   10   11 2
    22   11   12 1
    23   11   21 1
    24   12   13 2
    25   13   14 1
    26   14   15 1
    27   15   19 1
    28   15   16 2
    29   16   17 1
    30   17   18 2
    31   17   20 1
    32   18   19 1
    33   18   32 1
    34   20   33 1
    35   20   34 1
    36   20   35 1
    37   21   22 3
@<TRIPOS>MOLECULE
ZINC19863224
   33    34     0     0     0
SMALL
USER_CHARGES
4-methyl-N-[1-(p-tolyl)ethylideneamino]thiadiazole-5-carboxamide
@<TRIPOS>ATOM
      1 C1          4.8324   11.5941    0.0144 C.3       1 <0>        -0.1231
      2 C2          4.0652   10.2970    0.0157 C.ar      1 <0>        -0.0655
      3 C3          4.7477    9.0934    0.0032 C.ar      1 <0>        -0.1256
      4 C4          4.0521    7.9023    0.0043 C.ar      1 <0>        -0.0719
      5 C5          2.6553    7.9131    0.0181 C.ar      1 <0>        -0.0609
      6 C6          1.9729    9.1321    0.0254 C.ar      1 <0>        -0.0850
      7 C7          2.6817   10.3153    0.0299 C.ar      1 <0>        -0.1264
      8 C8          1.9046    6.6438    0.0189 C.2       1 <0>         0.1464
      9 N1          2.5416    5.5131    0.0067 N.2       1 <0>        -0.2247
     10 N2          1.8284    4.3072    0.0074 N.am      1 <0>        -0.5876
     11 C9          2.4899    3.1331   -0.0053 C.2       1 <0>         0.6285
     12 O1          3.7063    3.1203   -0.0174 O.2       1 <0>        -0.4756
     13 C10         1.7410    1.8669   -0.0045 C.2       1 <0>        -0.2676
     14 C11         2.2033    0.5552   -0.0160 C.2       1 <0>         0.1133
     15 N3          1.2413   -0.3364   -0.0116 N.2       1 <0>        -0.2705
     16 N4          0.0021   -0.0041    0.0020 N.2       1 <0>        -0.2031
     17 S1         -0.0194    1.5761    0.0107 S.3       1 <0>         0.3631
     18 C12         3.6662    0.1938   -0.0319 C.3       1 <0>        -0.0795
     19 C13         0.3977    6.6596    0.0338 C.3       1 <0>        -0.1577
     20 H1          5.9116   11.3817    0.0023 H         1 <0>         0.0680
     21 H2          4.5819   12.1691    0.9181 H         1 <0>         0.0734
     22 H3          4.5636   12.1782   -0.8781 H         1 <0>         0.0734
     23 H4          5.8276    9.0865   -0.0072 H         1 <0>         0.1275
     24 H5          4.5861    6.9636   -0.0052 H         1 <0>         0.1356
     25 H6          0.8930    9.1478    0.0319 H         1 <0>         0.1297
     26 H7          2.1555   11.2584    0.0404 H         1 <0>         0.1280
     27 H8          0.7285    4.3187    0.0183 H         1 <0>         0.3998
     28 H9          3.7734   -0.9009   -0.0388 H         1 <0>         0.0880
     29 H10         4.1551    0.6044    0.8639 H         1 <0>         0.0964
     30 H11         4.1379    0.6141   -0.9323 H         1 <0>         0.0964
     31 H12         0.0202    5.6264    0.0322 H         1 <0>         0.0644
     32 H13         0.0277    7.1866   -0.8580 H         1 <0>         0.0963
     33 H14         0.0454    7.1773    0.9382 H         1 <0>         0.0963
@<TRIPOS>BOND
     1    1    2 1
     2    1   20 1
     3    1   21 1
     4    1   22 1
     5    2    7 ar
     6    2    3 ar
     7    3    4 ar
     8    3   23 1
     9    4    5 ar
    10    4   24 1
    11    5    6 ar
    12    5    8 1
    13    6    7 ar
    14    6   25 1
    15    7   26 1
    16    8    9 2
    17    8   19 1
    18    9   10 1
    19   10   11 am
    20   10   27 1
    21   11   12 2
    22   11   13 1
    23   13   17 1
    24   13   14 2
    25   14   15 1
    26   14   18 1
    27   15   16 2
    28   16   17 1
    29   18   28 1
    30   18   29 1
    31   18   30 1
    32   19   31 1
    33   19   32 1
    34   19   33 1
@<TRIPOS>MOLECULE
ZINC05093312
   33    35     0     0     0
SMALL
USER_CHARGES

@<TRIPOS>ATOM
      1 C1         -0.0173    1.4248    0.0099 C.3       1 <0>         0.0365
      2 O1          0.0021   -0.0041    0.0020 O.3       1 <0>        -0.3570
      3 C2         -1.1855   -0.6297    0.0100 C.2       1 <0>         0.4520
      4 O2         -2.2076    0.0145    0.0232 O.2       1 <0>        -0.4425
      5 C3         -1.2439   -2.1355    0.0025 C.3       1 <0>        -0.0638
      6 C4         -2.6831   -2.5824    0.0138 C.2       1 <0>         0.3891
      7 N1         -2.9692   -3.9098    0.0151 N.am      1 <0>        -0.6329
      8 H1         -2.2426   -4.5524    0.0087 H         1 <0>         0.4208
      9 C5         -4.2405   -4.3523    0.0254 C.2       1 <0>         0.5580
     10 O3         -4.4807   -5.5473    0.0272 O.2       1 <0>        -0.5191
     11 C6         -5.3071   -3.3946    0.0347 C.2       1 <0>        -0.2433
     12 C7         -6.7486   -3.6404    0.0454 C.2       1 <0>        -0.0537
     13 C8         -7.5541   -2.5573    0.0532 C.2       1 <0>        -0.1686
     14 S1         -6.4546   -1.1670    0.0472 S.3       1 <0>         0.1565
     15 C9         -4.9133   -2.0471    0.0329 C.2       1 <0>         0.0985
     16 N2         -3.6332   -1.6860    0.0277 N.2       1 <0>        -0.4328
     17 C10        -9.0522   -2.5404    0.0635 C.3       1 <0>        -0.0377
     18 C11        -9.5548   -3.9419   -0.3118 C.3       1 <0>        -0.1153
     19 C12        -8.7894   -4.9764    0.5186 C.3       1 <0>        -0.1232
     20 C13        -7.3364   -5.0488    0.0474 C.3       1 <0>        -0.0593
     21 H2          1.0053    1.8021    0.0021 H         1 <0>         0.1036
     22 H3         -0.5445    1.7859   -0.8732 H         1 <0>         0.0621
     23 H4         -0.5275    1.7763    0.9067 H         1 <0>         0.0621
     24 H5         -0.7531   -2.5137   -0.8943 H         1 <0>         0.1449
     25 H6         -0.7361   -2.5233    0.8856 H         1 <0>         0.1448
     26 H7         -9.4095   -2.2765    1.0589 H         1 <0>         0.0867
     27 H8         -9.4161   -1.8133   -0.6625 H         1 <0>         0.0849
     28 H9        -10.6209   -4.0175   -0.0977 H         1 <0>         0.0764
     29 H10        -9.3788   -4.1216   -1.3723 H         1 <0>         0.0694
     30 H11        -8.8157   -4.6884    1.5695 H         1 <0>         0.0661
     31 H12        -9.2575   -5.9537    0.4004 H         1 <0>         0.0719
     32 H13        -7.2989   -5.4617   -0.9607 H         1 <0>         0.0788
     33 H14        -6.7643   -5.6824    0.7251 H         1 <0>         0.0857
@<TRIPOS>BOND
     1    1    2 1
     2    1   21 1
     3    1   22 1
     4    1   23 1
     5    2    3 1
     6    3    4 2
     7    3    5 1
     8    5    6 1
     9    5   24 1
    10    5   25 1
    11    6   16 2
    12    6    7 1
    13    7    8 1
    14    7    9 am
    15    9   10 2
    16    9   11 1
    17   11   15 2
    18   11   12 1
    19   12   20 1
    20   12   13 2
    21   13   14 1
    22   13   17 1
    23   14   15 1
    24   15   16 1
    25   17   18 1
    26   17   26 1
    27   17   27 1
    28   18   19 1
    29   18   28 1
    30   18   29 1
    31   19   20 1
    32   19   30 1
    33   19   31 1
    34   20   32 1
    35   20   33 1
@<TRIPOS>MOLECULE
ZINC43130738
   29    30     0     0     0
SMALL
USER_CHARGES

@<TRIPOS>ATOM
      1 C1         -0.0187    1.5258    0.0104 C.3       1 <0>        -0.1595
      2 C2          0.0021   -0.0041    0.0020 C.3       1 <0>         0.2402
      3 H1         -1.0205   -0.3814    0.0098 H         1 <0>         0.1276
      4 C3          0.7309   -0.5033    1.2229 C.2       1 <0>        -0.1596
      5 C4          0.2222   -0.9787    2.3859 C.2       1 <0>        -0.1418
      6 C5          1.0911   -1.3863    3.3806 C.2       1 <0>        -0.1558
      7 C6          2.4262   -1.2985    3.1638 C.2       1 <0>        -0.1751
      8 S1          2.4885   -0.6293    1.5099 S.3       1 <0>         0.0398
      9 N1          0.6878   -0.4765   -1.2033 N.am      1 <0>        -0.6165
     10 C7          2.0832   -0.1023   -1.4465 C.3       1 <0>         0.0599
     11 C8          0.0349   -1.2554   -2.0885 C.2       1 <0>         0.7054
     12 O1         -1.1231   -1.5660   -1.8867 O.2       1 <0>        -0.5175
     13 N2          0.6658   -1.6901   -3.1973 N.am      1 <0>        -0.6210
     14 C9         -0.0079   -2.4939   -4.1108 C.2       1 <0>         0.2583
     15 N3         -1.2517   -2.9301   -4.0757 N.2       1 <0>        -0.3038
     16 N4         -1.7289   -3.6609   -4.9893 N.2       1 <0>        -0.2306
     17 C10        -0.9626   -3.9976   -6.0072 C.2       1 <0>         0.0067
     18 S2          0.5500   -3.1590   -5.5559 S.3       1 <0>         0.0758
     19 H2          1.0039    1.9031    0.0027 H         1 <0>         0.0643
     20 H3         -0.5459    1.8868   -0.8726 H         1 <0>         0.0716
     21 H4         -0.5289    1.8773    0.9072 H         1 <0>         0.0791
     22 H5         -0.8461   -1.0378    2.5332 H         1 <0>         0.1358
     23 H6          0.7118   -1.7687    4.3168 H         1 <0>         0.1353
     24 H7          3.2409   -1.5675    3.8198 H         1 <0>         0.1855
     25 H8          2.7421   -0.8472   -1.0004 H         1 <0>         0.0698
     26 H9          2.2644   -0.0533   -2.5202 H         1 <0>         0.0724
     27 H10         2.2812    0.8720   -0.9997 H         1 <0>         0.0885
     28 H11         1.5897   -1.4423   -3.3583 H         1 <0>         0.4246
     29 H12        -1.1862   -4.6056   -6.8712 H         1 <0>         0.2406
@<TRIPOS>BOND
     1    1    2 1
     2    1   19 1
     3    1   20 1
     4    1   21 1
     5    2    3 1
     6    2    4 1
     7    2    9 1
     8    4    8 1
     9    4    5 2
    10    5    6 1
    11    5   22 1
    12    6    7 2
    13    6   23 1
    14    7    8 1
    15    7   24 1
    16    9   10 1
    17    9   11 am
    18   10   25 1
    19   10   26 1
    20   10   27 1
    21   11   12 2
    22   11   13 am
    23   13   14 1
    24   13   28 1
    25   14   18 1
    26   14   15 2
    27   15   16 1
    28   16   17 2
    29   17   18 1
    30   17   29 1
@<TRIPOS>MOLECULE
ZINC35428695
   36    38     0     0     0
SMALL
USER_CHARGES

@<TRIPOS>ATOM
      1 C1         -0.0187    1.5258    0.0104 C.3       1 <0>        -0.1452
      2 C2          0.0021   -0.0041    0.0020 C.3       1 <0>        -0.1120
      3 H1          0.5122   -0.3562   -0.8946 H         1 <0>         0.0974
      4 C3         -1.4343   -0.5350    0.0151 C.3       1 <0>        -0.1245
      5 C4         -1.4020   -2.0645    0.0857 C.3       1 <0>        -0.1120
      6 H2         -0.9208   -2.4601   -0.8088 H         1 <0>         0.0973
      7 C5         -0.6129   -2.4960    1.3237 C.3       1 <0>         0.0034
      8 N1          0.7584   -1.9796    1.2388 N.4       1 <0>        -0.2774
      9 C6          0.7401   -0.5119    1.2425 C.3       1 <0>         0.0033
     10 C7          1.4960   -2.4378    2.3344 C.2       1 <0>         0.1228
     11 C8          2.6421   -3.2100    2.2787 C.2       1 <0>         0.0554
     12 N2          3.0467   -3.4363    3.6076 N.pl3     1 <0>        -0.3811
     13 C9          4.0564   -4.0927    4.2692 C.2       1 <0>         0.0384
     14 C10         4.1149   -4.0874    5.6021 C.2       1 <0>        -0.1591
     15 S1          2.6813   -3.1089    6.0238 S.3       1 <0>         0.1649
     16 C11         2.1221   -2.7889    4.3658 C.2       1 <0>         0.1895
     17 N3          1.2241   -2.2043    3.6112 N.2       1 <0>        -0.4318
     18 C12         3.2819   -3.6807    1.1142 C.2       1 <0>         0.4778
     19 O1          4.3865   -4.4196    1.2132 O.co2     1 <0>        -0.6426
     20 O2          2.7822   -3.3869   -0.0857 O.co2     1 <0>        -0.6758
     21 C13        -2.8316   -2.6020    0.1769 C.3       1 <0>        -0.1452
     22 H3          1.0039    1.9031    0.0027 H         1 <0>         0.0667
     23 H4         -0.5459    1.8868   -0.8726 H         1 <0>         0.0745
     24 H5         -0.5289    1.8773    0.9072 H         1 <0>         0.0649
     25 H6         -1.9606   -0.1411    0.8845 H         1 <0>         0.0811
     26 H7         -1.9466   -0.2229   -0.8949 H         1 <0>         0.0918
     27 H8         -1.0951   -2.1001    2.2175 H         1 <0>         0.1277
     28 H9         -0.5882   -3.5844    1.3771 H         1 <0>         0.1226
     29 H10         1.7630   -0.1355    1.2357 H         1 <0>         0.1227
     30 H11         0.2298   -0.1583    2.1385 H         1 <0>         0.1275
     31 H12         4.8110   -4.6193    3.7038 H         1 <0>         0.1976
     32 H13         4.8390   -4.5524    6.2547 H         1 <0>         0.2295
     33 H14        -3.3936   -2.2910   -0.7037 H         1 <0>         0.0745
     34 H15        -2.8080   -3.6906    0.2271 H         1 <0>         0.0667
     35 H16        -3.3117   -2.2073    1.0724 H         1 <0>         0.0649
     36 H17         1.1878   -2.3068    0.3863 H         1 <0>         0.4439
@<TRIPOS>BOND
     1    1    2 1
     2    1   22 1
     3    1   23 1
     4    1   24 1
     5    2    3 1
     6    2    9 1
     7    2    4 1
     8    4    5 1
     9    4   25 1
    10    4   26 1
    11    5    6 1
    12    5    7 1
    13    5   21 1
    14    7    8 1
    15    7   27 1
    16    7   28 1
    17    8    9 1
    18    8   10 1
    19    8   36 1
    20    9   29 1
    21    9   30 1
    22   10   17 1
    23   10   11 2
    24   11   12 1
    25   11   18 1
    26   12   16 1
    27   12   13 1
    28   13   14 2
    29   13   31 1
    30   14   15 1
    31   14   32 1
    32   15   16 1
    33   16   17 2
    34   18   19 2
    35   18   20 1
    36   21   33 1
    37   21   34 1
    38   21   35 1
@<TRIPOS>MOLECULE
ZINC20724058
   37    39     0     0     0
SMALL
USER_CHARGES

@<TRIPOS>ATOM
      1 C1         -1.9816    1.1679    1.6399 C.3       1 <0>        -0.1495
      2 C2         -2.4656    0.1434    0.6118 C.3       1 <0>         0.0769
      3 C3         -3.2832    0.8530   -0.4694 C.3       1 <0>        -0.1817
      4 O1         -1.3386   -0.4987    0.0122 O.3       1 <0>        -0.3107
      5 C4         -1.5384   -1.7393   -0.5053 C.ar      1 <0>         0.1341
      6 C5         -0.4652   -2.4684   -0.9965 C.ar      1 <0>        -0.1528
      7 C6         -0.6709   -3.7295   -1.5216 C.ar      1 <0>        -0.0701
      8 C7         -1.9452   -4.2650   -1.5583 C.ar      1 <0>        -0.1213
      9 C8         -3.0165   -3.5402   -1.0697 C.ar      1 <0>        -0.0698
     10 C9         -2.8151   -2.2811   -0.5380 C.ar      1 <0>        -0.2063
     11 C10        -2.1668   -5.6407   -2.1321 C.3       1 <0>         0.0470
     12 H1         -1.2173   -6.0589   -2.4663 H         1 <0>         0.1062
     13 C11        -2.7909   -6.5523   -1.0700 C.3       1 <0>        -0.1043
     14 C12        -4.2532   -6.2812   -0.8863 C.2       1 <0>         0.4002
     15 N1         -5.0497   -5.9066   -1.8396 N.2       1 <0>        -0.5390
     16 C13        -4.5299   -5.7043   -3.0957 C.2       1 <0>         0.2789
     17 C14        -3.1276   -5.5623   -3.2920 C.2       1 <0>        -0.2833
     18 C15        -2.9067   -5.3696   -4.5959 C.2       1 <0>         0.0947
     19 N2         -4.1061   -5.3890   -5.2261 N.pl3     1 <0>        -0.4831
     20 H2         -4.2496   -5.2755   -6.1786 H         1 <0>         0.4446
     21 N3         -5.1081   -5.6031   -4.2596 N.2       1 <0>        -0.2612
     22 O2         -4.7745   -6.4367    0.3483 O.3       1 <0>        -0.4597
     23 H3         -2.8412    1.6577    2.0973 H         1 <0>         0.0778
     24 H4         -1.3991    0.6624    2.4101 H         1 <0>         0.0657
     25 H5         -1.3595    1.9136    1.1447 H         1 <0>         0.0676
     26 H6         -3.0876   -0.6022    1.1070 H         1 <0>         0.0735
     27 H7         -4.1428    1.3428   -0.0120 H         1 <0>         0.0730
     28 H8         -2.6611    1.5986   -0.9646 H         1 <0>         0.0682
     29 H9         -3.6280    0.1231   -1.2018 H         1 <0>         0.0620
     30 H10         0.5302   -2.0503   -0.9688 H         1 <0>         0.1313
     31 H11         0.1642   -4.2975   -1.9041 H         1 <0>         0.1313
     32 H12        -4.0109   -3.9605   -1.0998 H         1 <0>         0.1209
     33 H13        -3.6516   -1.7172   -0.1525 H         1 <0>         0.1280
     34 H14        -2.6583   -7.5911   -1.3723 H         1 <0>         0.1102
     35 H15        -2.2789   -6.3929   -0.1210 H         1 <0>         0.1090
     36 H16        -1.9442   -5.2240   -5.0637 H         1 <0>         0.1807
     37 H17        -5.7212   -6.2472    0.4022 H         1 <0>         0.4111
@<TRIPOS>BOND
     1    1    2 1
     2    1   23 1
     3    1   24 1
     4    1   25 1
     5    2    3 1
     6    2    4 1
     7    2   26 1
     8    3   27 1
     9    3   28 1
    10    3   29 1
    11    4    5 1
    12    5   10 ar
    13    5    6 ar
    14    6    7 ar
    15    6   30 1
    16    7    8 ar
    17    7   31 1
    18    8    9 ar
    19    8   11 1
    20    9   10 ar
    21    9   32 1
    22   10   33 1
    23   11   12 1
    24   11   17 1
    25   11   13 1
    26   13   14 1
    27   13   34 1
    28   13   35 1
    29   14   15 2
    30   14   22 1
    31   15   16 1
    32   16   21 2
    33   16   17 1
    34   17   18 2
    35   18   19 1
    36   18   36 1
    37   19   20 1
    38   19   21 1
    39   22   37 1
@<TRIPOS>MOLECULE
ZINC06589459
   46    49     0     0     0
SMALL
USER_CHARGES
(2R)-4-[5-(phenoxymethyl)furan-2-carbonyl]-2,3-dihydro-1,4-benzoxazine-2-carboxamide
@<TRIPOS>ATOM
      1 C1         -4.1915    8.3922    0.7814 C.ar      1 <0>        -0.1537
      2 C2         -3.6441    7.9500    1.9716 C.ar      1 <0>        -0.0792
      3 C3         -2.8493    6.8203    1.9901 C.ar      1 <0>        -0.1482
      4 C4         -2.6005    6.1293    0.8131 C.ar      1 <0>         0.1254
      5 C5         -3.1462    6.5784   -0.3808 C.ar      1 <0>        -0.2090
      6 C6         -3.9447    7.7056   -0.3931 C.ar      1 <0>        -0.0786
      7 O1         -1.8189    5.0177    0.8286 O.3       1 <0>        -0.3100
      8 C7         -1.6057    4.3570   -0.4204 C.3       1 <0>         0.1377
      9 C8         -0.7217    3.1550   -0.2085 C.2       1 <0>         0.0109
     10 C9         -1.1484    1.9044    0.0739 C.2       1 <0>        -0.1796
     11 C10        -0.0073    1.0959    0.1946 C.2       1 <0>        -0.1026
     12 C11         1.0711    1.9028   -0.0312 C.2       1 <0>        -0.0733
     13 O2          0.6161    3.1494   -0.2741 O.3       1 <0>        -0.1572
     14 C12         2.4771    1.4872   -0.0121 C.2       1 <0>         0.6098
     15 O3          2.7621    0.3092    0.0997 O.2       1 <0>        -0.4853
     16 N1          3.4540    2.4097   -0.1184 N.am      1 <0>        -0.5461
     17 C13         3.1460    3.8501   -0.1122 C.3       1 <0>         0.0719
     18 C14         4.1990    4.5455    0.7624 C.3       1 <0>         0.0613
     19 H1          4.1356    4.1658    1.7821 H         1 <0>         0.1075
     20 O4          5.4960    4.2729    0.2266 O.3       1 <0>        -0.2810
     21 C15         5.8043    2.9804   -0.0588 C.ar      1 <0>         0.0974
     22 C16         4.8017    2.0311   -0.2330 C.ar      1 <0>         0.0726
     23 C17         5.1319    0.7172   -0.5232 C.ar      1 <0>        -0.1090
     24 C18         6.4605    0.3487   -0.6321 C.ar      1 <0>        -0.1252
     25 C19         7.4571    1.2896   -0.4520 C.ar      1 <0>        -0.0980
     26 C20         7.1330    2.6011   -0.1739 C.ar      1 <0>        -0.1206
     27 C21         3.9545    6.0326    0.7611 C.2       1 <0>         0.5307
     28 O5          4.7731    6.7813    0.2710 O.2       1 <0>        -0.5047
     29 N2          2.8261    6.5304    1.3045 N.am      1 <0>        -0.8446
     30 H2         -4.8126    9.2757    0.7691 H         1 <0>         0.1259
     31 H3         -3.8378    8.4885    2.8876 H         1 <0>         0.1315
     32 H4         -2.4216    6.4755    2.9199 H         1 <0>         0.1316
     33 H5         -2.9503    6.0448   -1.2991 H         1 <0>         0.1281
     34 H6         -4.3728    8.0535   -1.3216 H         1 <0>         0.1270
     35 H7         -1.1246    5.0435   -1.1171 H         1 <0>         0.0864
     36 H8         -2.5635    4.0359   -0.8298 H         1 <0>         0.1029
     37 H9         -2.1745    1.5869    0.1875 H         1 <0>         0.1654
     38 H10         0.0136    0.0395    0.4180 H         1 <0>         0.1696
     39 H11         3.1913    4.2424   -1.1281 H         1 <0>         0.1008
     40 H12         2.1518    4.0140    0.3035 H         1 <0>         0.1242
     41 H13         4.3533   -0.0178   -0.6644 H         1 <0>         0.1636
     42 H14         6.7196   -0.6750   -0.8585 H         1 <0>         0.1324
     43 H15         8.4934    0.9979   -0.5370 H         1 <0>         0.1346
     44 H16         7.9166    3.3311   -0.0340 H         1 <0>         0.1394
     45 H17         2.1714    5.9315    1.6965 H         1 <0>         0.4038
     46 H18         2.6687    7.4875    1.3037 H         1 <0>         0.4135
@<TRIPOS>BOND
     1    1    6 ar
     2    1    2 ar
     3    1   30 1
     4    2    3 ar
     5    2   31 1
     6    3    4 ar
     7    3   32 1
     8    4    5 ar
     9    4    7 1
    10    5    6 ar
    11    5   33 1
    12    6   34 1
    13    7    8 1
    14    8    9 1
    15    8   35 1
    16    8   36 1
    17    9   13 1
    18    9   10 2
    19   10   11 1
    20   10   37 1
    21   11   12 2
    22   11   38 1
    23   12   13 1
    24   12   14 1
    25   14   15 2
    26   14   16 am
    27   16   22 1
    28   16   17 1
    29   17   18 1
    30   17   39 1
    31   17   40 1
    32   18   19 1
    33   18   20 1
    34   18   27 1
    35   20   21 1
    36   21   26 ar
    37   21   22 ar
    38   22   23 ar
    39   23   24 ar
    40   23   41 1
    41   24   25 ar
    42   24   42 1
    43   25   26 ar
    44   25   43 1
    45   26   44 1
    46   27   28 2
    47   27   29 am
    48   29   45 1
    49   29   46 1
@<TRIPOS>MOLECULE
ZINC41091333
   45    48     0     0     0
SMALL
USER_CHARGES

@<TRIPOS>ATOM
      1 C1         -0.0187    1.5258    0.0104 C.3       1 <0>        -0.1732
      2 C2          0.0021   -0.0041    0.0020 C.3       1 <0>         0.1079
      3 N1          0.7106   -0.4894    1.1889 N.am      1 <0>        -0.5482
      4 C3          2.0771   -0.7306    1.2541 C.ar      1 <0>         0.2249
      5 C4          3.1618   -0.6404    0.4014 C.ar      1 <0>        -0.1513
      6 C5          4.4344   -0.9874    0.8536 C.ar      1 <0>         0.0519
      7 C6          4.6853   -1.4252    2.1257 C.ar      1 <0>        -0.6980
      8 C7          3.6095   -1.5310    3.0226 C.ar      1 <0>         0.0537
      9 C8          2.3476   -1.1768    2.5437 C.ar      1 <0>        -0.1282
     10 C9          1.1708   -1.2250    3.3059 C.ar      1 <0>        -0.1376
     11 C10         1.2949   -1.6543    4.6154 C.ar      1 <0>        -0.0151
     12 C11         2.5490   -2.0111    5.1100 C.ar      1 <0>        -0.0922
     13 C12         3.6921   -1.9620    4.3577 C.ar      1 <0>        -0.1306
     14 C13         0.1256   -0.7623    2.3851 C.2       1 <0>         0.5753
     15 O1         -1.0573   -0.6463    2.6459 O.2       1 <0>        -0.4676
     16 S1          6.3209   -1.8472    2.6270 S.o2      1 <0>         2.6998
     17 O2          6.2373   -3.1177    3.2580 O.2       1 <0>        -0.9311
     18 O3          7.1635   -1.6061    1.5084 O.2       1 <0>        -0.9334
     19 N2          6.7684   -0.7656    3.7984 N.pl3     1 <0>        -0.9022
     20 N3          6.0282   -0.6710    4.9841 N.am      1 <0>        -0.5165
     21 C14         6.6428   -0.8118    6.1753 C.2       1 <0>         0.5621
     22 O4          7.8394   -1.0208    6.2209 O.2       1 <0>        -0.5062
     23 C15         5.8617   -0.7120    7.4266 C.ar      1 <0>        -0.1329
     24 C16         4.4866   -0.4778    7.3776 C.ar      1 <0>        -0.0945
     25 C17         3.7634   -0.3862    8.5489 C.ar      1 <0>        -0.1234
     26 C18         4.3985   -0.5255    9.7703 C.ar      1 <0>        -0.0861
     27 C19         5.7614   -0.7574    9.8258 C.ar      1 <0>        -0.1227
     28 C20         6.4951   -0.8573    8.6618 C.ar      1 <0>        -0.0517
     29 H1          1.0039    1.9031    0.0027 H         1 <0>         0.0623
     30 H2         -0.5459    1.8868   -0.8726 H         1 <0>         0.0804
     31 H3         -0.5289    1.8773    0.9072 H         1 <0>         0.0635
     32 H4         -1.0205   -0.3814    0.0098 H         1 <0>         0.0982
     33 H5          0.5123   -0.3556   -0.8948 H         1 <0>         0.0940
     34 H6          3.0234   -0.3017   -0.6147 H         1 <0>         0.1472
     35 H7          5.2631   -0.9070    0.1657 H         1 <0>         0.1571
     36 H8          0.4243   -1.7125    5.2519 H         1 <0>         0.1489
     37 H9          2.6220   -2.3431    6.1351 H         1 <0>         0.1485
     38 H10         4.6420   -2.2494    4.7837 H         1 <0>         0.1543
     39 H11         7.5430   -0.1975    3.6636 H         1 <0>         0.4325
     40 H12         5.0733   -0.5042    4.9478 H         1 <0>         0.4180
     41 H13         3.9898   -0.3682    6.4249 H         1 <0>         0.1216
     42 H14         2.6994   -0.2051    8.5125 H         1 <0>         0.1335
     43 H15         3.8278   -0.4527   10.6843 H         1 <0>         0.1316
     44 H16         6.2511   -0.8648   10.7824 H         1 <0>         0.1348
     45 H17         7.5581   -1.0431    8.7064 H         1 <0>         0.1407
@<TRIPOS>BOND
     1    1    2 1
     2    1   29 1
     3    1   30 1
     4    1   31 1
     5    2    3 1
     6    2   32 1
     7    2   33 1
     8    3   14 am
     9    3    4 1
    10    4    9 ar
    11    4    5 ar
    12    5    6 ar
    13    5   34 1
    14    6    7 ar
    15    6   35 1
    16    7    8 ar
    17    7   16 1
    18    8   13 ar
    19    8    9 ar
    20    9   10 ar
    21   10   11 ar
    22   10   14 1
    23   11   12 ar
    24   11   36 1
    25   12   13 ar
    26   12   37 1
    27   13   38 1
    28   14   15 2
    29   16   17 2
    30   16   18 2
    31   16   19 1
    32   19   20 1
    33   19   39 1
    34   20   21 am
    35   20   40 1
    36   21   22 2
    37   21   23 1
    38   23   28 ar
    39   23   24 ar
    40   24   25 ar
    41   24   41 1
    42   25   26 ar
    43   25   42 1
    44   26   27 ar
    45   26   43 1
    46   27   28 ar
    47   27   44 1
    48   28   45 1
@<TRIPOS>MOLECULE
ZINC53634806
   51    54     0     0     0
SMALL
USER_CHARGES

@<TRIPOS>ATOM
      1 C1         -0.2991    1.8307   -1.1520 C.3       1 <0>        -0.1456
      2 C2         -0.3269    0.3034   -1.0658 C.3       1 <0>         0.2142
      3 C3          0.6323   -0.3050   -2.0696 C.2       1 <0>         0.5396
      4 O1          0.5947   -0.1973   -3.2766 O.2       1 <0>        -0.4414
      5 N1          1.5360   -0.9898   -1.3413 N.am      1 <0>        -0.5612
      6 C4          1.2838   -0.8996   -0.0304 C.2       1 <0>         0.7147
      7 O2          1.9606   -1.4338    0.8261 O.2       1 <0>        -0.5295
      8 N2          0.1969   -0.1521    0.2335 N.am      1 <0>        -0.7086
      9 C5          2.6558   -1.7409   -1.9141 C.3       1 <0>         0.0991
     10 C6          3.8569   -0.8386   -2.0339 C.2       1 <0>         0.5022
     11 O3          3.7846    0.3179   -1.6760 O.2       1 <0>        -0.5246
     12 N3          5.0114   -1.3170   -2.5387 N.am      1 <0>        -0.7240
     13 C7          6.1790   -0.4399   -2.6552 C.3       1 <0>         0.1256
     14 C8          7.3062   -1.1841   -3.3738 C.3       1 <0>        -0.0570
     15 H1          7.5315   -2.1035   -2.8334 H         1 <0>         0.0902
     16 C9          6.8571   -1.5305   -4.7919 C.3       1 <0>        -0.1161
     17 C10         8.0653   -2.0761   -5.5622 C.3       1 <0>        -0.1196
     18 C11         9.0396   -0.9257   -5.8070 C.3       1 <0>        -0.0835
     19 C12         9.3333   -0.1978   -4.5213 C.ar      1 <0>        -0.0702
     20 C13         8.5348   -0.3131   -3.4059 C.ar      1 <0>        -0.0737
     21 C14         8.8585    0.3913   -2.2538 C.ar      1 <0>        -0.1188
     22 C15         9.9741    1.2024   -2.2179 C.ar      1 <0>        -0.1212
     23 C16        10.7770    1.3152   -3.3373 C.ar      1 <0>        -0.1169
     24 C17        10.4570    0.6172   -4.4818 C.ar      1 <0>        -0.1216
     25 C18        -1.7257   -0.2130   -1.2840 C.2       1 <0>        -0.0345
     26 C19        -2.6529   -0.4010   -0.3278 C.2       1 <0>        -0.1726
     27 C20        -3.8113   -0.8935   -0.9716 C.2       1 <0>        -0.2148
     28 C21        -3.5227   -0.9770   -2.2828 C.2       1 <0>        -0.0212
     29 O4         -2.2600   -0.5580   -2.4669 O.3       1 <0>        -0.1599
     30 H2          0.7232    2.1837   -1.0162 H         1 <0>         0.0835
     31 H3         -0.6657    2.1463   -2.1287 H         1 <0>         0.0895
     32 H4         -0.9349    2.2502   -0.3723 H         1 <0>         0.0870
     33 H5         -0.1701    0.0483    1.1088 H         1 <0>         0.4440
     34 H6          2.8975   -2.5834   -1.2662 H         1 <0>         0.1316
     35 H7          2.3785   -2.1098   -2.9016 H         1 <0>         0.1286
     36 H8          5.0691   -2.2420   -2.8250 H         1 <0>         0.4032
     37 H9          5.9099    0.4496   -3.2249 H         1 <0>         0.0752
     38 H10         6.5137   -0.1465   -1.6602 H         1 <0>         0.0730
     39 H11         6.0735   -2.2873   -4.7542 H         1 <0>         0.0688
     40 H12         6.4800   -0.6354   -5.2865 H         1 <0>         0.0703
     41 H13         8.5548   -2.8531   -4.9749 H         1 <0>         0.0671
     42 H14         7.7368   -2.4884   -6.5162 H         1 <0>         0.0710
     43 H15         9.9689   -1.3224   -6.2158 H         1 <0>         0.0757
     44 H16         8.6014   -0.2295   -6.5221 H         1 <0>         0.0771
     45 H17         8.2315    0.3038   -1.3787 H         1 <0>         0.1231
     46 H18        10.2193    1.7471   -1.3181 H         1 <0>         0.1227
     47 H19        11.6524    1.9473   -3.3148 H         1 <0>         0.1224
     48 H20        11.0850    0.7062   -5.3559 H         1 <0>         0.1213
     49 H21        -2.5349   -0.2125    0.7291 H         1 <0>         0.1516
     50 H22        -4.7480   -1.1532   -0.5010 H         1 <0>         0.1549
     51 H23        -4.1938   -1.3191   -3.0567 H         1 <0>         0.2095
@<TRIPOS>BOND
     1    1    2 1
     2    1   30 1
     3    1   31 1
     4    1   32 1
     5    2    8 1
     6    2    3 1
     7    2   25 1
     8    3    4 2
     9    3    5 am
    10    5    6 am
    11    5    9 1
    12    6    7 2
    13    6    8 am
    14    8   33 1
    15    9   10 1
    16    9   34 1
    17    9   35 1
    18   10   11 2
    19   10   12 am
    20   12   13 1
    21   12   36 1
    22   13   14 1
    23   13   37 1
    24   13   38 1
    25   14   15 1
    26   14   20 1
    27   14   16 1
    28   16   17 1
    29   16   39 1
    30   16   40 1
    31   17   18 1
    32   17   41 1
    33   17   42 1
    34   18   19 1
    35   18   43 1
    36   18   44 1
    37   19   24 ar
    38   19   20 ar
    39   20   21 ar
    40   21   22 ar
    41   21   45 1
    42   22   23 ar
    43   22   46 1
    44   23   24 ar
    45   23   47 1
    46   24   48 1
    47   25   29 1
    48   25   26 2
    49   26   27 1
    50   26   49 1
    51   27   28 2
    52   27   50 1
    53   28   29 1
    54   28   51 1
@<TRIPOS>MOLECULE
ZINC60093502
   42    43     0     0     0
SMALL
USER_CHARGES

@<TRIPOS>ATOM
      1 C1         -0.0441    1.4643   -0.0486 C.3       1 <0>         0.0877
      2 N1         -0.0204   -0.0005   -0.0474 N.pl3     1 <0>        -1.0008
      3 C2         -0.0021   -0.7317    1.2220 C.3       1 <0>         0.0907
      4 S1         -0.0145   -0.8297   -1.4808 S.o2      1 <0>         2.6994
      5 O1         -0.5432   -2.1197   -1.2059 O.2       1 <0>        -0.9500
      6 O2         -0.5843    0.0358   -2.4531 O.2       1 <0>        -0.9400
      7 C3          1.6704   -1.0635   -1.9404 C.ar      1 <0>        -0.7189
      8 C4          2.1970   -2.3346   -1.9999 C.ar      1 <0>         0.0794
      9 C5          3.5332   -2.5189   -2.3645 C.ar      1 <0>        -0.1970
     10 C6          4.3301   -1.4114   -2.6674 C.ar      1 <0>         0.0081
     11 C7          3.7961   -0.1439   -2.6055 C.ar      1 <0>        -0.2309
     12 C8          2.4646    0.0348   -2.2478 C.ar      1 <0>         0.2550
     13 O3          1.9405    1.2854   -2.1934 O.3       1 <0>        -0.3028
     14 C9          2.8122    2.3691   -2.5217 C.3       1 <0>         0.0203
     15 C10         4.1016   -3.8793   -2.4291 C.2       1 <0>         0.5649
     16 O4          3.4069   -4.8417   -2.1648 O.2       1 <0>        -0.5076
     17 N2          5.3907   -4.0550   -2.7809 N.am      1 <0>        -0.6647
     18 C11         5.9562   -5.3359   -2.7518 C.ar      1 <0>         0.1341
     19 C12         5.1862   -6.4436   -3.0756 C.ar      1 <0>        -0.1005
     20 C13         5.7472   -7.7073   -3.0465 C.ar      1 <0>        -0.0241
     21 C14         7.0757   -7.8699   -2.6949 C.ar      1 <0>        -0.1067
     22 C15         7.8483   -6.7701   -2.3711 C.ar      1 <0>        -0.1121
     23 C16         7.2949   -5.5004   -2.4031 C.ar      1 <0>         0.0845
     24 O5          8.0556   -4.4174   -2.0902 O.3       1 <0>        -0.4923
     25 Cl1         4.7826   -9.0927   -3.4514 Cl        1 <0>        -0.0563
     26 H1          0.9776    1.8442   -0.0542 H         1 <0>         0.0563
     27 H2         -0.5682    1.8185   -0.9363 H         1 <0>         0.0851
     28 H3         -0.5591    1.8202    0.8437 H         1 <0>         0.0759
     29 H4         -1.0251   -0.9296    1.5421 H         1 <0>         0.0641
     30 H5          0.5263   -1.6758    1.0898 H         1 <0>         0.0722
     31 H6          0.5060   -0.1337    1.9785 H         1 <0>         0.0747
     32 H7          1.5780   -3.1879   -1.7648 H         1 <0>         0.1657
     33 H8          5.3634   -1.5497   -2.9492 H         1 <0>         0.1389
     34 H9          4.4113    0.7125   -2.8390 H         1 <0>         0.1487
     35 H10         3.6582    2.3759   -1.8344 H         1 <0>         0.0656
     36 H11         3.1744    2.2475   -3.5425 H         1 <0>         0.0673
     37 H12         2.2690    3.3104   -2.4386 H         1 <0>         0.1142
     38 H13         5.9268   -3.2942   -3.0544 H         1 <0>         0.4157
     39 H14         4.1491   -6.3191   -3.3500 H         1 <0>         0.1571
     40 H15         7.5099   -8.8585   -2.6730 H         1 <0>         0.1418
     41 H16         8.8848   -6.9004   -2.0971 H         1 <0>         0.1450
     42 H17         8.0444   -4.1870   -1.1511 H         1 <0>         0.3924
@<TRIPOS>BOND
     1    1    2 1
     2    1   26 1
     3    1   27 1
     4    1   28 1
     5    2    3 1
     6    2    4 1
     7    3   29 1
     8    3   30 1
     9    3   31 1
    10    4    5 2
    11    4    6 2
    12    4    7 1
    13    7   12 ar
    14    7    8 ar
    15    8    9 ar
    16    8   32 1
    17    9   10 ar
    18    9   15 1
    19   10   11 ar
    20   10   33 1
    21   11   12 ar
    22   11   34 1
    23   12   13 1
    24   13   14 1
    25   14   35 1
    26   14   36 1
    27   14   37 1
    28   15   16 2
    29   15   17 am
    30   17   18 1
    31   17   38 1
    32   18   23 ar
    33   18   19 ar
    34   19   20 ar
    35   19   39 1
    36   20   21 ar
    37   20   25 1
    38   21   22 ar
    39   21   40 1
    40   22   23 ar
    41   22   41 1
    42   23   24 1
    43   24   42 1
@<TRIPOS>MOLECULE
ZINC66981983
   52    55     0     0     0
SMALL
USER_CHARGES

@<TRIPOS>ATOM
      1 C1         -0.2863    0.7079   -3.5774 C.3       1 <0>        -0.1201
      2 C2         -0.2157   -0.6503   -2.9282 C.ar      1 <0>        -0.0721
      3 C3         -0.3740   -1.7910   -3.6928 C.ar      1 <0>        -0.1229
      4 C4         -0.3092   -3.0368   -3.0972 C.ar      1 <0>        -0.0928
      5 C5         -0.0857   -3.1419   -1.7371 C.ar      1 <0>        -0.1241
      6 C6          0.0734   -2.0012   -0.9726 C.ar      1 <0>        -0.0926
      7 C7          0.0129   -0.7555   -1.5689 C.ar      1 <0>        -0.1227
      8 C8         -0.0161   -4.5000   -1.0877 C.3       1 <0>         0.1612
      9 N1          1.3684   -4.9787   -1.1040 N.am      1 <0>        -0.6922
     10 C9          1.6724   -6.1797   -0.5734 C.2       1 <0>         0.5106
     11 O1          0.7993   -6.8647   -0.0821 O.2       1 <0>        -0.5140
     12 C10         3.0837   -6.6677   -0.5901 C.2       1 <0>         0.5092
     13 O2          3.9570   -5.9826   -1.0814 O.2       1 <0>        -0.4932
     14 N2          3.3878   -7.8687   -0.0595 N.am      1 <0>        -0.6439
     15 C11         4.6874   -8.3668   -0.1594 C.ar      1 <0>         0.1520
     16 C12         5.7712   -7.4982   -0.0866 C.ar      1 <0>        -0.1142
     17 C13         7.0555   -7.9871   -0.1850 C.ar      1 <0>        -0.0536
     18 C14         7.2685   -9.3560   -0.3580 C.ar      1 <0>        -0.0263
     19 C15         6.1787  -10.2256   -0.4308 C.ar      1 <0>        -0.0934
     20 C16         4.8968   -9.7317   -0.3261 C.ar      1 <0>        -0.1330
     21 C17         8.6455   -9.8837   -0.4644 C.2       1 <0>         0.2211
     22 N3          9.7541   -9.2673   -0.1059 N.2       1 <0>        -0.2801
     23 N4         10.7700  -10.0246   -0.3405 N.2       1 <0>        -0.2866
     24 C18        10.3730  -11.1502   -0.8536 C.2       1 <0>         0.1844
     25 N5          9.0133  -11.1016   -0.9459 N.pl3     1 <0>        -0.4714
     26 C19         8.1726  -12.1760   -1.4718 C.3       1 <0>         0.0980
     27 C20         9.0546  -13.1454   -2.2676 C.3       1 <0>        -0.1378
     28 C21        10.2693  -13.5447   -1.4251 C.3       1 <0>        -0.1273
     29 C22        11.2042  -12.3333   -1.2827 C.3       1 <0>        -0.0354
     30 H1          0.7093    1.0054   -3.9066 H         1 <0>         0.0739
     31 H2         -0.9555    0.6654   -4.4367 H         1 <0>         0.0686
     32 H3         -0.6637    1.4351   -2.8585 H         1 <0>         0.0687
     33 H4         -0.5485   -1.7088   -4.7554 H         1 <0>         0.1256
     34 H5         -0.4335   -3.9279   -3.6945 H         1 <0>         0.1251
     35 H6          0.2477   -2.0833    0.0900 H         1 <0>         0.1255
     36 H7          0.1410    0.1355   -0.9723 H         1 <0>         0.1258
     37 H8         -0.3636   -4.4281   -0.0571 H         1 <0>         0.0850
     38 H9         -0.6484   -5.1980   -1.6365 H         1 <0>         0.0846
     39 H10         2.0663   -4.4312   -1.4967 H         1 <0>         0.4159
     40 H11         2.7032   -8.3869    0.3919 H         1 <0>         0.4256
     41 H12         5.6058   -6.4393    0.0469 H         1 <0>         0.1480
     42 H13         7.8967   -7.3121   -0.1287 H         1 <0>         0.1433
     43 H14         6.3405  -11.2850   -0.5649 H         1 <0>         0.1311
     44 H15         4.0535  -10.4044   -0.3779 H         1 <0>         0.1367
     45 H16         7.6985  -12.7068   -0.6462 H         1 <0>         0.0929
     46 H17         7.4087  -11.7556   -2.1260 H         1 <0>         0.0993
     47 H18         8.4791  -14.0362   -2.5196 H         1 <0>         0.0958
     48 H19         9.3919  -12.6605   -3.1837 H         1 <0>         0.0791
     49 H20         9.9369  -13.8720   -0.4400 H         1 <0>         0.0734
     50 H21        10.8024  -14.3577   -1.9181 H         1 <0>         0.0888
     51 H22        11.6896  -12.1165   -2.2342 H         1 <0>         0.0984
     52 H23        11.9578  -12.5479   -0.5249 H         1 <0>         0.1023
@<TRIPOS>BOND
     1    1    2 1
     2    1   30 1
     3    1   31 1
     4    1   32 1
     5    2    7 ar
     6    2    3 ar
     7    3    4 ar
     8    3   33 1
     9    4    5 ar
    10    4   34 1
    11    5    6 ar
    12    5    8 1
    13    6    7 ar
    14    6   35 1
    15    7   36 1
    16    8    9 1
    17    8   37 1
    18    8   38 1
    19    9   10 am
    20    9   39 1
    21   10   11 2
    22   10   12 1
    23   12   13 2
    24   12   14 am
    25   14   15 1
    26   14   40 1
    27   15   20 ar
    28   15   16 ar
    29   16   17 ar
    30   16   41 1
    31   17   18 ar
    32   17   42 1
    33   18   19 ar
    34   18   21 1
    35   19   20 ar
    36   19   43 1
    37   20   44 1
    38   21   25 1
    39   21   22 2
    40   22   23 1
    41   23   24 2
    42   24   29 1
    43   24   25 1
    44   25   26 1
    45   26   27 1
    46   26   45 1
    47   26   46 1
    48   27   28 1
    49   27   47 1
    50   27   48 1
    51   28   29 1
    52   28   49 1
    53   28   50 1
    54   29   51 1
    55   29   52 1
@<TRIPOS>MOLECULE
ZINC14703137
   49    52     0     0     0
SMALL
USER_CHARGES
1-[2-[(1R)-1-methyl-3,4-dihydro-1H-pyrrolo[2,1-c]pyrazin-2-yl]acetyl]indoline-5-sulfonamide
@<TRIPOS>ATOM
      1 C1         -4.7230    3.0536    9.6860 C.3       1 <0>        -0.1804
      2 C2         -5.9027    3.0605    8.7117 C.3       1 <0>         0.1268
      3 H1         -6.2573    4.0813    8.5688 H         1 <0>         0.1517
      4 C3         -7.0196    2.2041    9.2569 C.2       1 <0>        -0.0690
      5 C4         -7.5026    2.1688   10.5076 C.2       1 <0>        -0.1219
      6 C5         -8.5383    1.2107   10.5312 C.2       1 <0>        -0.1946
      7 C6         -8.6456    0.6984    9.2860 C.2       1 <0>         0.0354
      8 N1         -7.7201    1.3029    8.4986 N.pl3     1 <0>        -0.4633
      9 C7         -7.4626    1.0792    7.0707 C.3       1 <0>         0.0888
     10 C8         -6.6395    2.2599    6.5414 C.3       1 <0>        -0.0165
     11 C9         -4.4909    3.3550    6.7621 C.3       1 <0>        -0.0251
     12 C10        -3.9065    2.6344    5.5746 C.2       1 <0>         0.5113
     13 O1         -4.2800    1.5133    5.3015 O.2       1 <0>        -0.5053
     14 N2         -2.9687    3.2358    4.8161 N.am      1 <0>        -0.5337
     15 C11        -2.4392    4.5827    5.0459 C.3       1 <0>         0.0855
     16 C12        -1.4083    4.8070    3.9276 C.3       1 <0>        -0.0900
     17 C13        -1.4343    3.5267    3.1234 C.ar      1 <0>        -0.1416
     18 C14        -2.3581    2.6657    3.6947 C.ar      1 <0>         0.1777
     19 C15        -2.5590    1.4093    3.1206 C.ar      1 <0>        -0.1408
     20 C16        -1.8463    1.0343    2.0014 C.ar      1 <0>         0.0083
     21 C17        -0.9267    1.9002    1.4394 C.ar      1 <0>        -0.6805
     22 C18        -0.7185    3.1444    2.0055 C.ar      1 <0>         0.0244
     23 S1         -0.0172    1.4168    0.0098 S.o2      1 <0>         2.7028
     24 O2          0.0021   -0.0041    0.0020 O.2       1 <0>        -0.9557
     25 O3          1.1718    2.1948    0.0027 O.2       1 <0>        -0.9558
     26 N3         -0.8975    1.8855   -1.3122 N.pl3     1 <0>        -1.2484
     27 H2         -3.9097    3.6524    9.2761 H         1 <0>         0.0847
     28 H3         -5.0380    3.4739   10.6410 H         1 <0>         0.1173
     29 H4         -4.3808    2.0294    9.8350 H         1 <0>         0.0865
     30 H5         -7.1617    2.7632   11.3423 H         1 <0>         0.1497
     31 H6         -9.1358    0.9370   11.3881 H         1 <0>         0.1527
     32 H7         -9.3462   -0.0611    8.9717 H         1 <0>         0.1773
     33 H8         -6.9035    0.1529    6.9386 H         1 <0>         0.1105
     34 H9         -8.4081    1.0179    6.5317 H         1 <0>         0.1330
     35 H10        -7.2625    3.1540    6.5175 H         1 <0>         0.1406
     36 H11        -6.2906    2.0355    5.5334 H         1 <0>         0.1561
     37 H12        -3.6961    3.5962    7.4680 H         1 <0>         0.1683
     38 H13        -4.9719    4.2745    6.4285 H         1 <0>         0.1690
     39 H14        -3.2388    5.3202    4.9766 H         1 <0>         0.0994
     40 H15        -1.9580    4.6382    6.0224 H         1 <0>         0.0995
     41 H16        -1.7005    5.6528    3.3053 H         1 <0>         0.1070
     42 H17        -0.4177    4.9719    4.3512 H         1 <0>         0.1076
     43 H18        -3.2754    0.7279    3.5552 H         1 <0>         0.1502
     44 H19        -2.0068    0.0606    1.5625 H         1 <0>         0.1557
     45 H20         0.0027    3.8204    1.5703 H         1 <0>         0.1549
     46 H21        -1.7474    2.3376   -1.1935 H         1 <0>         0.4162
     47 H22        -0.5632    1.7079   -2.2053 H         1 <0>         0.4252
     48 N4         -5.4702    2.4670    7.4230 N.4       1 <0>        -0.3880
     49 H23        -5.0266    1.5594    7.6065 H         1 <0>         0.4364
@<TRIPOS>BOND
     1    1    2 1
     2    1   27 1
     3    1   28 1
     4    1   29 1
     5    2    3 1
     6    2    4 1
     7    2   48 1
     8    4    8 1
     9    4    5 2
    10    5    6 1
    11    5   30 1
    12    6    7 2
    13    6   31 1
    14    7    8 1
    15    7   32 1
    16    8    9 1
    17    9   10 1
    18    9   33 1
    19    9   34 1
    20   10   35 1
    21   10   36 1
    22   10   48 1
    23   11   12 1
    24   11   37 1
    25   11   38 1
    26   11   48 1
    27   12   13 2
    28   12   14 am
    29   14   18 1
    30   14   15 1
    31   15   16 1
    32   15   39 1
    33   15   40 1
    34   16   17 1
    35   16   41 1
    36   16   42 1
    37   17   22 ar
    38   17   18 ar
    39   18   19 ar
    40   19   20 ar
    41   19   43 1
    42   20   21 ar
    43   20   44 1
    44   21   22 ar
    45   21   23 1
    46   22   45 1
    47   23   24 2
    48   23   25 2
    49   23   26 1
    50   26   46 1
    51   26   47 1
    52   48   49 1
@<TRIPOS>MOLECULE
ZINC44907444
   51    52     0     0     0
SMALL
USER_CHARGES

@<TRIPOS>ATOM
      1 C1         -0.0187    1.5258    0.0104 C.3       1 <0>        -0.1784
      2 C2          0.0021   -0.0041    0.0020 C.3       1 <0>         0.1277
      3 N1          0.6878   -0.4765   -1.2033 N.pl3     1 <0>        -0.6357
      4 C3         -0.0521   -0.7279   -2.4519 C.3       1 <0>         0.1011
      5 C4          0.4876   -2.0322   -3.0560 C.3       1 <0>         0.0465
      6 H1          0.3096   -2.8561   -2.3649 H         1 <0>         0.0971
      7 O1          1.8923   -1.8896   -3.2799 O.3       1 <0>        -0.3221
      8 C5          2.6519   -1.4168   -2.2564 C.ar      1 <0>         0.0431
      9 C6          2.0738   -0.6998   -1.2100 C.ar      1 <0>         0.1459
     10 C7          2.8604   -0.2143   -0.1781 C.ar      1 <0>        -0.1516
     11 C8          4.2252   -0.4390   -0.1878 C.ar      1 <0>        -0.0916
     12 C9          4.8029   -1.1469   -1.2248 C.ar      1 <0>        -0.1316
     13 C10         4.0193   -1.6437   -2.2552 C.ar      1 <0>        -0.0986
     14 C11        -0.2200   -2.3141   -4.3829 C.3       1 <0>         0.0043
     15 N2          0.2102   -3.6202   -4.8995 N.4       1 <0>        -0.3846
     16 C12        -0.2391   -4.6799   -3.9867 C.3       1 <0>        -0.0609
     17 C13        -0.3756   -3.8382   -6.2289 C.3       1 <0>         0.0033
     18 C14         0.1703   -5.1396   -6.8197 C.3       1 <0>        -0.1718
     19 C15        -0.4307   -5.3632   -8.1834 C.2       1 <0>         0.5270
     20 O2         -1.2178   -4.5609   -8.6379 O.2       1 <0>        -0.4576
     21 N3         -0.0931   -6.4550   -8.8979 N.am      1 <0>        -0.6878
     22 C16        -0.6306   -6.6550  -10.1176 C.2       1 <0>         0.6892
     23 O3         -1.4197   -5.8507  -10.5732 O.2       1 <0>        -0.5214
     24 N4         -0.2930   -7.7468  -10.8320 N.am      1 <0>        -0.7352
     25 C17        -0.8772   -7.9642  -12.1577 C.3       1 <0>         0.0982
     26 H2          1.0039    1.9031    0.0027 H         1 <0>         0.0616
     27 H3         -0.5459    1.8868   -0.8726 H         1 <0>         0.0574
     28 H4         -0.5289    1.8773    0.9072 H         1 <0>         0.0715
     29 H5          0.5293   -0.3651    0.8851 H         1 <0>         0.0801
     30 H6         -1.0205   -0.3814    0.0098 H         1 <0>         0.0779
     31 H7         -1.1157   -0.8321   -2.2370 H         1 <0>         0.1022
     32 H8          0.1065    0.0956   -3.1481 H         1 <0>         0.0809
     33 H9          2.4088    0.3382    0.6325 H         1 <0>         0.1312
     34 H10         4.8400   -0.0608    0.6156 H         1 <0>         0.1316
     35 H11         5.8688   -1.3210   -1.2287 H         1 <0>         0.1332
     36 H12         4.4753   -2.1962   -3.0635 H         1 <0>         0.1317
     37 H13        -1.2984   -2.3232   -4.2248 H         1 <0>         0.1526
     38 H14         0.0351   -1.5366   -5.1031 H         1 <0>         0.1463
     39 H15         0.0802   -5.6491   -4.3700 H         1 <0>         0.1278
     40 H16         0.1956   -4.5182   -3.0003 H         1 <0>         0.1255
     41 H17        -1.3263   -4.6588   -3.9125 H         1 <0>         0.1280
     42 H18        -1.4600   -3.9056   -6.1414 H         1 <0>         0.1435
     43 H19        -0.1149   -3.0053   -6.8818 H         1 <0>         0.1443
     44 H20         1.2547   -5.0722   -6.9071 H         1 <0>         0.1258
     45 H21        -0.0904   -5.9726   -6.1667 H         1 <0>         0.1244
     46 H22         0.5367   -7.0969   -8.5343 H         1 <0>         0.4137
     47 H23         0.3368   -8.3887  -10.4684 H         1 <0>         0.4027
     48 H24        -1.9616   -8.0316  -12.0703 H         1 <0>         0.0661
     49 H25        -0.6165   -7.1312  -12.8107 H         1 <0>         0.0662
     50 H26        -0.4883   -8.8913  -12.5786 H         1 <0>         0.0864
     51 H27         1.2167   -3.6399   -4.9682 H         1 <0>         0.4330
@<TRIPOS>BOND
     1    1    2 1
     2    1   26 1
     3    1   27 1
     4    1   28 1
     5    2    3 1
     6    2   29 1
     7    2   30 1
     8    3    9 1
     9    3    4 1
    10    4    5 1
    11    4   31 1
    12    4   32 1
    13    5    6 1
    14    5    7 1
    15    5   14 1
    16    7    8 1
    17    8   13 ar
    18    8    9 ar
    19    9   10 ar
    20   10   11 ar
    21   10   33 1
    22   11   12 ar
    23   11   34 1
    24   12   13 ar
    25   12   35 1
    26   13   36 1
    27   14   15 1
    28   14   37 1
    29   14   38 1
    30   15   16 1
    31   15   17 1
    32   15   51 1
    33   16   39 1
    34   16   40 1
    35   16   41 1
    36   17   18 1
    37   17   42 1
    38   17   43 1
    39   18   19 1
    40   18   44 1
    41   18   45 1
    42   19   20 2
    43   19   21 am
    44   21   22 am
    45   21   46 1
    46   22   23 2
    47   22   24 am
    48   24   25 1
    49   24   47 1
    50   25   48 1
    51   25   49 1
    52   25   50 1
@<TRIPOS>MOLECULE
ZINC60581629
   48    51     0     0     0
SMALL
USER_CHARGES

@<TRIPOS>ATOM
      1 C1          0.2511    1.3738    0.7665 C.ar      1 <0>        -0.1021
      2 C2          1.1718    2.0858    0.0195 C.ar      1 <0>        -0.0926
      3 C3          2.1141    1.4182   -0.7408 C.ar      1 <0>        -0.0976
      4 C4          2.1386    0.0371   -0.7564 C.ar      1 <0>        -0.1038
      5 C5          1.2156   -0.6806   -0.0075 C.ar      1 <0>         0.1159
      6 C6          0.2703   -0.0070    0.7552 C.ar      1 <0>        -0.1031
      7 N1          1.2374   -2.0796   -0.0215 N.am      1 <0>        -0.6423
      8 C7          0.0867   -2.7727    0.0875 C.2       1 <0>         0.4994
      9 O1         -0.9752   -2.1867    0.1014 O.2       1 <0>        -0.5082
     10 C8          0.1193   -4.2757    0.1922 C.3       1 <0>        -0.0302
     11 N2         -1.2529   -4.7889    0.3000 N.4       1 <0>        -0.3707
     12 C9         -1.2094   -6.2353    0.5536 C.3       1 <0>        -0.0002
     13 C10        -2.6071   -6.7057    0.9920 C.3       1 <0>        -0.0578
     14 C11        -3.5981   -6.1215    0.0389 C.2       1 <0>        -0.2005
     15 C12        -3.3648   -5.1248   -0.8609 C.2       1 <0>        -0.1449
     16 C13        -4.4415   -4.7409   -1.6562 C.2       1 <0>        -0.1527
     17 C14        -5.6422   -5.3487   -1.5093 C.2       1 <0>        -0.1489
     18 S1         -5.3036   -6.5249   -0.2070 S.3       1 <0>         0.1396
     19 C15        -1.9761   -4.4989   -0.9439 C.3       1 <0>         0.0535
     20 C16         3.1152    2.1980   -1.5536 C.3       1 <0>         0.1590
     21 N3          4.3085    2.4544   -0.7434 N.am      1 <0>        -0.5753
     22 C17         4.4728    3.5384    0.0404 C.2       1 <0>         0.5201
     23 O2          3.6908    4.4506    0.2018 O.2       1 <0>        -0.4596
     24 C18         5.8384    3.3793    0.6787 C.3       1 <0>         0.0601
     25 N4          6.3312    2.1045    0.1290 N.am      1 <0>        -0.7266
     26 C19         5.3673    1.6386   -0.6856 C.2       1 <0>         0.7028
     27 O3          5.4505    0.5949   -1.3028 O.2       1 <0>        -0.5448
     28 H1         -0.4809    1.8982    1.3628 H         1 <0>         0.1351
     29 H2          1.1545    3.1656    0.0297 H         1 <0>         0.1357
     30 H3          2.8747   -0.4838   -1.3507 H         1 <0>         0.1370
     31 H4         -0.4487   -0.5624    1.3391 H         1 <0>         0.1340
     32 H5          2.0808   -2.5507   -0.1096 H         1 <0>         0.4212
     33 H6          0.5940   -4.6916   -0.6966 H         1 <0>         0.1650
     34 H7          0.6864   -4.5661    1.0766 H         1 <0>         0.1677
     35 H8         -0.9176   -6.7572   -0.3577 H         1 <0>         0.1381
     36 H9         -0.4887   -6.4459    1.3438 H         1 <0>         0.1449
     37 H10        -2.6587   -7.7940    0.9587 H         1 <0>         0.1310
     38 H11        -2.8152   -6.3554    2.0030 H         1 <0>         0.1120
     39 H12        -4.3188   -3.9580   -2.3900 H         1 <0>         0.1437
     40 H13        -6.5650   -5.1694   -2.0410 H         1 <0>         0.1999
     41 H14        -2.0683   -3.4201   -1.0700 H         1 <0>         0.1573
     42 H15        -1.4340   -4.9228   -1.7892 H         1 <0>         0.1360
     43 H16         3.3926    1.6230   -2.4371 H         1 <0>         0.1091
     44 H17         2.6740    3.1462   -1.8609 H         1 <0>         0.1104
     45 H18         6.4946    4.2005    0.3904 H         1 <0>         0.1292
     46 H19         5.7501    3.3205    1.7636 H         1 <0>         0.1270
     47 H20         7.1833    1.6820    0.3195 H         1 <0>         0.4443
     48 H21        -1.7188   -4.3315    1.0692 H         1 <0>         0.4326
@<TRIPOS>BOND
     1    1    6 ar
     2    1    2 ar
     3    1   28 1
     4    2    3 ar
     5    2   29 1
     6    3    4 ar
     7    3   20 1
     8    4    5 ar
     9    4   30 1
    10    5    6 ar
    11    5    7 1
    12    6   31 1
    13    7    8 am
    14    7   32 1
    15    8    9 2
    16    8   10 1
    17   10   11 1
    18   10   33 1
    19   10   34 1
    20   11   19 1
    21   11   12 1
    22   11   48 1
    23   12   13 1
    24   12   35 1
    25   12   36 1
    26   13   14 1
    27   13   37 1
    28   13   38 1
    29   14   18 1
    30   14   15 2
    31   15   16 1
    32   15   19 1
    33   16   17 2
    34   16   39 1
    35   17   18 1
    36   17   40 1
    37   19   41 1
    38   19   42 1
    39   20   21 1
    40   20   43 1
    41   20   44 1
    42   21   26 am
    43   21   22 am
    44   22   23 2
    45   22   24 1
    46   24   25 1
    47   24   45 1
    48   24   46 1
    49   25   26 am
    50   25   47 1
    51   26   27 2
@<TRIPOS>MOLECULE
ZINC38818511
   47    50     0     0     0
SMALL
USER_CHARGES

@<TRIPOS>ATOM
      1 C1          0.1014    1.1598    0.3382 C.3       1 <0>        -0.1723
      2 C2          0.1674   -0.3634    0.2107 C.3       1 <0>         0.1440
      3 H1          0.7528   -0.7720    1.0344 H         1 <0>         0.1263
      4 C3          0.8181   -0.7302   -1.0983 C.2       1 <0>         0.5100
      5 O1          0.2092   -1.3884   -1.9145 O.2       1 <0>        -0.4230
      6 N1          2.0767   -0.3265   -1.3616 N.am      1 <0>        -0.5831
      7 N2          2.6816   -0.6674   -2.5784 N.2       1 <0>        -0.0964
      8 C4          3.8603   -0.1847   -2.8815 C.2       1 <0>         0.0502
      9 C5          4.5432    0.6257   -1.9633 C.2       1 <0>         0.0589
     10 C6          5.7891    1.2249   -2.1328 C.ar      1 <0>        -0.1373
     11 C7          6.7133    1.2198   -3.2011 C.ar      1 <0>        -0.0191
     12 C8          7.8767    1.9084   -3.0875 C.ar      1 <0>        -0.1406
     13 C9          8.1911    2.6305   -1.9324 C.ar      1 <0>         0.0487
     14 C10         7.3531    2.6801   -0.8694 C.ar      1 <0>        -0.2019
     15 C11         6.1155    1.9843   -0.9131 C.ar      1 <0>         0.3141
     16 N3          5.1456    1.8758   -0.0298 N.pl3     1 <0>        -0.5937
     17 C12         4.0781    1.0373   -0.5839 C.3       1 <0>         0.0453
     18 N4         -1.1885   -0.9163    0.2538 N.am      1 <0>        -0.6219
     19 C13        -1.5466   -1.8597    1.3133 C.3       1 <0>         0.3585
     20 N5         -2.9589   -1.7025    1.6792 N.pl3     1 <0>        -0.7542
     21 C14        -3.9002   -1.5523    0.6669 C.ar      1 <0>         0.2294
     22 C15        -5.2107   -1.9715    0.8224 C.ar      1 <0>        -0.1814
     23 C16        -6.1133   -1.7911   -0.2080 C.ar      1 <0>        -0.0470
     24 C17        -5.7177   -1.1935   -1.3944 C.ar      1 <0>        -0.1676
     25 C18        -4.4149   -0.7743   -1.5671 C.ar      1 <0>        -0.0180
     26 C19        -3.4930   -0.9549   -0.5384 C.ar      1 <0>        -0.2039
     27 C20        -2.0859   -0.5427   -0.6802 C.2       1 <0>         0.5845
     28 O2         -1.7366    0.1259   -1.6339 O.2       1 <0>        -0.5152
     29 H2          1.1103    1.5712    0.3062 H         1 <0>         0.0589
     30 H3         -0.4839    1.5684   -0.4855 H         1 <0>         0.0908
     31 H4         -0.3692    1.4250    1.2850 H         1 <0>         0.0873
     32 H5          2.5638    0.2001   -0.7086 H         1 <0>         0.3824
     33 H6          4.3065   -0.4107   -3.8386 H         1 <0>         0.2212
     34 H7          6.4949    0.6696   -4.1044 H         1 <0>         0.1626
     35 H8          8.5772    1.8983   -3.9094 H         1 <0>         0.1594
     36 H9          9.1292    3.1637   -1.8862 H         1 <0>         0.1631
     37 H10         7.6249    3.2473    0.0085 H         1 <0>         0.1620
     38 H11         3.1503    1.6051   -0.6546 H         1 <0>         0.1717
     39 H12         3.9330    0.1565    0.0416 H         1 <0>         0.1722
     40 H13        -1.3758   -2.8776    0.9629 H         1 <0>         0.0725
     41 H14        -0.9242   -1.6727    2.1883 H         1 <0>         0.0960
     42 H15        -3.2309   -1.7038    2.6103 H         1 <0>         0.4167
     43 H16        -5.5257   -2.4376    1.7444 H         1 <0>         0.1326
     44 H17        -7.1356   -2.1180   -0.0879 H         1 <0>         0.1328
     45 H18        -6.4350   -1.0553   -2.1900 H         1 <0>         0.1320
     46 H19        -4.1116   -0.3095   -2.4936 H         1 <0>         0.1358
     47 H20         5.1367    2.2888    0.8478 H         1 <0>         0.4562
@<TRIPOS>BOND
     1    1    2 1
     2    1   29 1
     3    1   30 1
     4    1   31 1
     5    2    3 1
     6    2    4 1
     7    2   18 1
     8    4    5 2
     9    4    6 am
    10    6    7 1
    11    6   32 1
    12    7    8 2
    13    8    9 1
    14    8   33 1
    15    9   17 1
    16    9   10 2
    17   10   15 ar
    18   10   11 ar
    19   11   12 ar
    20   11   34 1
    21   12   13 ar
    22   12   35 1
    23   13   14 ar
    24   13   36 1
    25   14   15 ar
    26   14   37 1
    27   15   16 2
    28   16   17 1
    29   16   47 1
    30   17   38 1
    31   17   39 1
    32   18   27 am
    33   18   19 1
    34   19   20 1
    35   19   40 1
    36   19   41 1
    37   20   21 1
    38   20   42 1
    39   21   26 ar
    40   21   22 ar
    41   22   23 ar
    42   22   43 1
    43   23   24 ar
    44   23   44 1
    45   24   25 ar
    46   24   45 1
    47   25   26 ar
    48   25   46 1
    49   26   27 1
    50   27   28 2
@<TRIPOS>MOLECULE
ZINC67267013
   54    57     0     0     0
SMALL
USER_CHARGES

@<TRIPOS>ATOM
      1 C1         -0.4073    2.6628    1.8440 C.2       1 <0>        -0.1810
      2 C2          0.7967    3.3211    2.0096 C.2       1 <0>        -0.0770
      3 C3          1.9276    2.7561    1.5206 C.2       1 <0>        -0.2736
      4 S1          1.3040    1.2471    0.7985 S.3       1 <0>         0.0893
      5 C4         -0.4217    1.4716    1.1974 C.2       1 <0>        -0.1154
      6 C5          3.3437    3.2688    1.5724 C.3       1 <0>         0.0898
      7 N1          3.9972    2.7797    2.7938 N.4       1 <0>        -0.3660
      8 C6          5.2694    3.4815    2.9486 C.3       1 <0>        -0.0110
      9 C7          5.6073    3.5840    4.4195 C.3       1 <0>        -0.1581
     10 C8          6.5019    2.3980    4.8235 C.3       1 <0>         0.0897
     11 N2          6.0591    1.1511    4.1675 N.am      1 <0>        -0.6295
     12 C9          4.6602    0.8000    4.0339 C.3       1 <0>         0.0998
     13 C10         4.0992    1.3732    2.7120 C.3       1 <0>        -0.0516
     14 C11         6.9899    0.3100    3.6750 C.2       1 <0>         0.5186
     15 O1          6.6560   -0.7597    3.2112 O.2       1 <0>        -0.5026
     16 C12         8.4457    0.6987    3.7008 C.3       1 <0>        -0.1069
     17 C13         8.7649    1.5614    2.4780 C.3       1 <0>        -0.1164
     18 C14        10.2409    1.9658    2.5118 C.3       1 <0>        -0.1110
     19 C15        11.1136    0.7156    2.5143 C.3       1 <0>         0.1212
     20 C16        10.7892   -0.1673    3.7142 C.3       1 <0>        -0.1142
     21 C17         9.3110   -0.5630    3.6755 C.3       1 <0>        -0.1129
     22 C18        10.9344   -0.0559    1.2272 C.2       1 <0>         0.5318
     23 O2          9.9127   -0.5553    0.8071 O.2       1 <0>        -0.4542
     24 N3         12.1509   -0.0719    0.6441 N.am      1 <0>        -0.6800
     25 C19        13.0598    0.5775    1.3818 C.2       1 <0>         0.7025
     26 O3         14.2267    0.6984    1.0643 O.2       1 <0>        -0.5297
     27 N4         12.5359    1.0818    2.5154 N.am      1 <0>        -0.7195
     28 H1         -1.3224    3.0890    2.2280 H         1 <0>         0.1503
     29 H2          0.8358    4.2717    2.5208 H         1 <0>         0.1436
     30 H3         -1.2595    0.8256    0.9801 H         1 <0>         0.2002
     31 H4          3.8913    2.9126    0.6998 H         1 <0>         0.1404
     32 H5          3.3356    4.3588    1.5762 H         1 <0>         0.1496
     33 H6          6.0548    2.9294    2.4324 H         1 <0>         0.1311
     34 H7          5.1873    4.4819    2.5235 H         1 <0>         0.1400
     35 H8          6.1363    4.5185    4.6066 H         1 <0>         0.1284
     36 H9          4.6887    3.5626    5.0058 H         1 <0>         0.0919
     37 H10         7.5304    2.6100    4.5316 H         1 <0>         0.1065
     38 H11         6.4574    2.2685    5.9049 H         1 <0>         0.0909
     39 H12         4.5578   -0.2852    4.0301 H         1 <0>         0.1297
     40 H13         4.1013    1.2127    4.8737 H         1 <0>         0.0988
     41 H14         3.1123    0.9499    2.5249 H         1 <0>         0.1417
     42 H15         4.7653    1.1066    1.8915 H         1 <0>         0.1322
     43 H16         8.6547    1.2643    4.6089 H         1 <0>         0.1006
     44 H17         8.5645    0.9930    1.5698 H         1 <0>         0.0933
     45 H18         8.1425    2.4561    2.4919 H         1 <0>         0.0706
     46 H19        10.4724    2.5683    1.6335 H         1 <0>         0.0839
     47 H20        10.4374    2.5474    3.4125 H         1 <0>         0.0924
     48 H21        11.4063   -1.0652    3.6816 H         1 <0>         0.0849
     49 H22        10.9944    0.3804    4.6340 H         1 <0>         0.0908
     50 H23         9.0774   -1.1814    4.5422 H         1 <0>         0.0809
     51 H24         9.1087   -1.1243    2.7633 H         1 <0>         0.0973
     52 H25        12.3433   -0.5012   -0.2042 H         1 <0>         0.4363
     53 H26        13.0051    1.5872    3.1975 H         1 <0>         0.4435
     54 H27         3.4106    3.0111    3.5815 H         1 <0>         0.4182
@<TRIPOS>BOND
     1    1    5 2
     2    1    2 1
     3    1   28 1
     4    2    3 2
     5    2   29 1
     6    3    4 1
     7    3    6 1
     8    4    5 1
     9    5   30 1
    10    6    7 1
    11    6   31 1
    12    6   32 1
    13    7   13 1
    14    7    8 1
    15    7   54 1
    16    8    9 1
    17    8   33 1
    18    8   34 1
    19    9   10 1
    20    9   35 1
    21    9   36 1
    22   10   11 1
    23   10   37 1
    24   10   38 1
    25   11   12 1
    26   11   14 am
    27   12   13 1
    28   12   39 1
    29   12   40 1
    30   13   41 1
    31   13   42 1
    32   14   15 2
    33   14   16 1
    34   16   21 1
    35   16   17 1
    36   16   43 1
    37   17   18 1
    38   17   44 1
    39   17   45 1
    40   18   19 1
    41   18   46 1
    42   18   47 1
    43   19   27 1
    44   19   20 1
    45   19   22 1
    46   20   21 1
    47   20   48 1
    48   20   49 1
    49   21   50 1
    50   21   51 1
    51   22   23 2
    52   22   24 am
    53   24   25 am
    54   24   52 1
    55   25   26 2
    56   25   27 am
    57   27   53 1
@<TRIPOS>MOLECULE
ZINC06389862
   49    52     0     0     0
SMALL
USER_CHARGES
(2Z)-5-(hydroxymethyl)-8-methyl-2-(4-phenylphenyl)imino-pyrano[6,5-c]pyridine-3-carboxamide
@<TRIPOS>ATOM
      1 C1          0.5645    7.2622    0.0770 C.3       1 <0>        -0.1178
      2 C2          0.7932    5.7728    0.0628 C.ar      1 <0>         0.1677
      3 C3          2.0878    5.2736    0.0339 C.ar      1 <0>         0.0566
      4 C4          2.2759    3.8784    0.0291 C.ar      1 <0>        -0.1210
      5 C5          3.6340    3.3312    0.0125 C.2       1 <0>         0.1469
      6 C6          4.6691    4.2020    0.2738 C.2       1 <0>        -0.2543
      7 C7          4.3160    5.6088    0.5497 C.2       1 <0>         0.5274
      8 N1          5.0976    6.3697    1.2850 N.pl3     1 <0>        -0.5107
      9 C8          4.8104    7.6959    1.4396 C.ar      1 <0>        -0.0083
     10 C9          5.2544    8.6234    0.4917 C.ar      1 <0>        -0.0735
     11 C10         4.9591    9.9587    0.6460 C.ar      1 <0>        -0.1052
     12 C11         4.2275   10.3889    1.7535 C.ar      1 <0>         0.0235
     13 C12         3.7883    9.4655    2.7029 C.ar      1 <0>        -0.1061
     14 C13         4.0768    8.1287    2.5488 C.ar      1 <0>        -0.0692
     15 C14         3.9162   11.8286    1.9215 C.ar      1 <0>        -0.0829
     16 C15         3.1801   12.2614    3.0236 C.ar      1 <0>        -0.0962
     17 C16         2.8979   13.6035    3.1774 C.ar      1 <0>        -0.1177
     18 C17         3.3347   14.5173    2.2353 C.ar      1 <0>        -0.0961
     19 C18         4.0605   14.0930    1.1367 C.ar      1 <0>        -0.1177
     20 C19         4.3533   12.7542    0.9750 C.ar      1 <0>        -0.0963
     21 O1          3.1627    6.0962    0.0129 O.3       1 <0>        -0.1900
     22 C20         6.0719    3.7479    0.2773 C.2       1 <0>         0.5801
     23 O2          6.3345    2.5832    0.0463 O.2       1 <0>        -0.4917
     24 N2          7.0631    4.6236    0.5365 N.am      1 <0>        -0.8734
     25 C21         1.1474    3.0499    0.0389 C.ar      1 <0>        -0.0597
     26 C22        -0.1001    3.6382    0.0667 C.ar      1 <0>         0.1416
     27 N3         -0.2371    4.9515    0.0782 N.ar      1 <0>        -0.4169
     28 C23         1.2922    1.5499    0.0255 C.3       1 <0>         0.1172
     29 O3         -0.0029    0.9462    0.0458 O.3       1 <0>        -0.5967
     30 H1          1.5337    7.7821    0.0609 H         1 <0>         0.0824
     31 H2          0.0145    7.5400    0.9882 H         1 <0>         0.1004
     32 H3         -0.0216    7.5516   -0.8077 H         1 <0>         0.1024
     33 H4          3.8169    2.2875   -0.1965 H         1 <0>         0.1993
     34 H5          5.8248    8.2914   -0.3631 H         1 <0>         0.1402
     35 H6          5.2984   10.6748   -0.0879 H         1 <0>         0.1482
     36 H7          3.2218    9.8001    3.5594 H         1 <0>         0.1482
     37 H8          3.7373    7.4144    3.2842 H         1 <0>         0.1402
     38 H9          2.8351   11.5483    3.7576 H         1 <0>         0.1277
     39 H10         2.3313   13.9404    4.0329 H         1 <0>         0.1317
     40 H11         3.1079   15.5661    2.3576 H         1 <0>         0.1310
     41 H12         4.3990   14.8110    0.4043 H         1 <0>         0.1317
     42 H13         4.9197   12.4240    0.1168 H         1 <0>         0.1277
     43 H14         8.1096    4.2848    0.5391 H         1 <0>         0.4584
     44 H15         6.8256    5.6771    0.7454 H         1 <0>         0.3946
     45 H16        -0.9808    3.0132    0.0788 H         1 <0>         0.1972
     46 H17         1.8264    1.2412   -0.8852 H         1 <0>         0.0803
     47 H18         1.8606    1.2284    0.9107 H         1 <0>         0.0778
     48 H19        -0.0991   -0.1496    0.0398 H         1 <0>         0.4393
     49 H20         5.9825    5.9378    1.7753 H         1 <0>         0.4820
@<TRIPOS>BOND
     1    1    2 1
     2    1   30 1
     3    1   31 1
     4    1   32 1
     5    2   27 ar
     6    2    3 ar
     7    3   21 1
     8    3    4 ar
     9    4    5 1
    10    4   25 ar
    11    5    6 2
    12    5   33 1
    13    6    7 1
    14    6   22 1
    15    7    8 2
    16    7   21 1
    17    8    9 1
    18    8   49 1
    19    9   14 ar
    20    9   10 ar
    21   10   11 ar
    22   10   34 1
    23   11   12 ar
    24   11   35 1
    25   12   13 ar
    26   12   15 1
    27   13   14 ar
    28   13   36 1
    29   14   37 1
    30   15   20 ar
    31   15   16 ar
    32   16   17 ar
    33   16   38 1
    34   17   18 ar
    35   17   39 1
    36   18   19 ar
    37   18   40 1
    38   19   20 ar
    39   19   41 1
    40   20   42 1
    41   22   23 2
    42   22   24 am
    43   24   43 1
    44   24   44 1
    45   25   26 ar
    46   25   28 1
    47   26   27 ar
    48   26   45 1
    49   28   29 1
    50   28   46 1
    51   28   47 1
    52   29   48 1
@<TRIPOS>MOLECULE
ZINC39744820
   55    58     0     0     0
SMALL
USER_CHARGES

@<TRIPOS>ATOM
      1 C1          0.1690    1.5343   -0.3679 C.3       1 <0>        -0.1342
      2 C2          0.1584    0.0291   -0.2968 C.ar      1 <0>        -0.0397
      3 C3          1.2239   -0.6943   -0.7997 C.ar      1 <0>        -0.1070
      4 C4          1.2141   -2.0748   -0.7345 C.ar      1 <0>        -0.0784
      5 C5          0.1390   -2.7325   -0.1659 C.ar      1 <0>        -0.1628
      6 C6         -0.9257   -2.0093    0.3377 C.ar      1 <0>        -0.1033
      7 C7         -0.9140   -0.6281    0.2763 C.ar      1 <0>        -0.0709
      8 C8         -2.0726    0.1606    0.8301 C.3       1 <0>        -0.1284
      9 C9          0.1279   -4.2378   -0.0957 C.3       1 <0>         0.2348
     10 H1          1.1373   -4.6317   -0.2140 H         1 <0>         0.1719
     11 N1         -0.4611   -4.6942    1.1904 N.3       1 <0>        -0.4526
     12 N2         -0.9302   -6.0531    0.8773 N.3       1 <0>        -0.4604
     13 C10        -1.4499   -5.9557   -0.5057 C.3       1 <0>         0.1116
     14 H2         -2.5279   -5.7947   -0.4893 H         1 <0>         0.1612
     15 N3         -0.7718   -4.7983   -1.1304 N.4       1 <0>        -0.4156
     16 C11        -1.7627   -3.7924   -1.5355 C.3       1 <0>         0.0218
     17 C12        -2.6002   -4.3381   -2.6633 C.2       1 <0>        -0.2278
     18 C13        -3.9055   -4.3659   -2.5558 C.2       1 <0>        -0.1092
     19 S1         -1.0620   -7.4713   -1.4239 S.3       1 <0>         0.0229
     20 C14         0.7472   -7.5790   -1.3487 C.3       1 <0>        -0.0943
     21 C15         1.2080   -8.8112   -2.0837 C.2       1 <0>         0.3958
     22 N4          2.5406   -9.0707   -2.1345 N.am      1 <0>        -0.6484
     23 H3          3.1647   -8.4666   -1.7026 H         1 <0>         0.4197
     24 C16         3.0054  -10.1647   -2.7819 C.2       1 <0>         0.5536
     25 O1          4.1966  -10.4097   -2.8346 O.2       1 <0>        -0.4924
     26 C17         2.0154  -11.0459   -3.4186 C.ar      1 <0>        -0.1885
     27 C18         2.3893  -12.1965   -4.1098 C.ar      1 <0>        -0.0417
     28 C19         1.4198  -12.9863   -4.6879 C.ar      1 <0>        -0.1222
     29 C20         0.0774  -12.6445   -4.5868 C.ar      1 <0>        -0.0699
     30 C21        -0.3129  -11.5117   -3.9088 C.ar      1 <0>        -0.1003
     31 C22         0.6512  -10.6952   -3.3138 C.ar      1 <0>         0.1411
     32 N5          0.3108   -9.5732   -2.6315 N.2       1 <0>        -0.4983
     33 H4          0.6364    1.9372    0.5306 H         1 <0>         0.0858
     34 H5          0.7329    1.8527   -1.2447 H         1 <0>         0.0782
     35 H6         -0.8545    1.9019   -0.4410 H         1 <0>         0.0789
     36 H7          2.0637   -0.1806   -1.2438 H         1 <0>         0.1409
     37 H8          2.0461   -2.6399   -1.1280 H         1 <0>         0.1364
     38 H9         -1.7657   -2.5230    0.7815 H         1 <0>         0.1208
     39 H10        -2.8167    0.3109    0.0480 H         1 <0>         0.0802
     40 H11        -2.5218   -0.3869    1.6588 H         1 <0>         0.0725
     41 H12        -1.7171    1.1283    1.1842 H         1 <0>         0.0813
     42 H13        -1.2293   -4.1012    1.4669 H         1 <0>         0.3444
     43 H14        -1.6556   -6.3416    1.5167 H         1 <0>         0.3915
     44 H15        -2.4055   -3.5538   -0.6882 H         1 <0>         0.1224
     45 H16        -1.2495   -2.8900   -1.8677 H         1 <0>         0.1484
     46 H17        -2.1243   -4.7062   -3.5602 H         1 <0>         0.1405
     47 H18        -4.3814   -3.9977   -1.6589 H         1 <0>         0.1072
     48 H19        -4.5057   -4.7569   -3.3640 H         1 <0>         0.1274
     49 H20         1.1835   -6.6946   -1.8129 H         1 <0>         0.1118
     50 H21         1.0648   -7.6370   -0.3076 H         1 <0>         0.1435
     51 H22         3.4316  -12.4671   -4.1920 H         1 <0>         0.1433
     52 H23         1.7060  -13.8786   -5.2247 H         1 <0>         0.1408
     53 H24        -0.6695  -13.2750   -5.0461 H         1 <0>         0.1411
     54 H25        -1.3597  -11.2561   -3.8369 H         1 <0>         0.1426
     55 H26        -0.2349   -5.0990   -1.9300 H         1 <0>         0.4316
@<TRIPOS>BOND
     1    1    2 1
     2    1   33 1
     3    1   34 1
     4    1   35 1
     5    2    7 ar
     6    2    3 ar
     7    3    4 ar
     8    3   36 1
     9    4    5 ar
    10    4   37 1
    11    5    6 ar
    12    5    9 1
    13    6    7 ar
    14    6   38 1
    15    7    8 1
    16    8   39 1
    17    8   40 1
    18    8   41 1
    19    9   10 1
    20    9   15 1
    21    9   11 1
    22   11   12 1
    23   11   42 1
    24   12   13 1
    25   12   43 1
    26   13   14 1
    27   13   15 1
    28   13   19 1
    29   15   16 1
    30   15   55 1
    31   16   17 1
    32   16   44 1
    33   16   45 1
    34   17   18 2
    35   17   46 1
    36   18   47 1
    37   18   48 1
    38   19   20 1
    39   20   21 1
    40   20   49 1
    41   20   50 1
    42   21   32 2
    43   21   22 1
    44   22   23 1
    45   22   24 am
    46   24   25 2
    47   24   26 1
    48   26   31 ar
    49   26   27 ar
    50   27   28 ar
    51   27   51 1
    52   28   29 ar
    53   28   52 1
    54   29   30 ar
    55   29   53 1
    56   30   31 ar
    57   30   54 1
    58   31   32 1
@<TRIPOS>MOLECULE
ZINC19641690
   60    62     0     0     0
SMALL
USER_CHARGES

@<TRIPOS>ATOM
      1 C1         -0.6062    1.2625    3.0930 C.3       1 <0>        -0.1185
      2 C2         -0.5640   -0.1638    2.6082 C.ar      1 <0>        -0.0515
      3 C3         -0.6976   -0.4356    1.2539 C.ar      1 <0>        -0.1227
      4 C4         -0.6621   -1.7215    0.7944 C.ar      1 <0>        -0.0544
      5 C5         -0.4891   -2.7775    1.6932 C.ar      1 <0>         0.0350
      6 C6         -0.3533   -2.5028    3.0644 C.ar      1 <0>         0.0627
      7 C7         -0.3871   -1.1892    3.5124 C.ar      1 <0>        -0.1208
      8 N1         -0.2003   -3.7266    3.6848 N.pl3     1 <0>        -0.5919
      9 C8         -0.2447   -4.6800    2.7155 C.2       1 <0>         0.2543
     10 N2         -0.4136   -4.1257    1.5505 N.2       1 <0>        -0.4584
     11 C9         -0.1165   -6.1622    2.9559 C.3       1 <0>         0.2366
     12 H1         -0.0727   -6.3539    4.0280 H         1 <0>         0.1046
     13 C10        -1.3268   -6.8824    2.3580 C.3       1 <0>        -0.0950
     14 C11        -2.6104   -6.3133    2.9658 C.3       1 <0>        -0.1490
     15 C12        -1.3454   -6.6762    0.8421 C.3       1 <0>        -0.1607
     16 N3          1.1081   -6.6557    2.3211 N.am      1 <0>        -0.6958
     17 C13         1.6785   -7.7975    2.7540 C.2       1 <0>         0.5126
     18 O1          1.1330   -8.4613    3.6100 O.2       1 <0>        -0.5451
     19 C14         2.9942   -8.2493    2.1746 C.3       1 <0>        -0.1641
     20 C15         3.4649   -9.5111    2.9008 C.3       1 <0>         0.0311
     21 H2          4.3842   -9.8718    2.4394 H         1 <0>         0.1753
     22 C16         2.4055  -10.5710    2.7951 C.2       1 <0>         0.5267
     23 O2          1.8347  -10.7195    1.7354 O.2       1 <0>        -0.4937
     24 N4          2.0665  -11.3580    3.8225 N.am      1 <0>        -0.7118
     25 C17         2.6783  -11.2354    5.1434 C.3       1 <0>         0.0871
     26 C18         3.9833  -10.4435    5.0412 C.3       1 <0>        -0.0287
     27 N5          3.7202   -9.1941    4.3115 N.4       1 <0>        -0.3830
     28 C19         4.8905   -8.3121    4.4136 C.3       1 <0>         0.0129
     29 C20         5.0667   -7.8646    5.8660 C.3       1 <0>        -0.1811
     30 C21         6.1401   -9.0682    3.9577 C.3       1 <0>        -0.1863
     31 H3          0.4019    1.6770    3.0908 H         1 <0>         0.0763
     32 H4         -1.2428    1.8518    2.4330 H         1 <0>         0.0742
     33 H5         -1.0082    1.2903    4.1057 H         1 <0>         0.0692
     34 H6         -0.8315    0.3778    0.5561 H         1 <0>         0.1347
     35 H7         -0.7678   -1.9218   -0.2616 H         1 <0>         0.1334
     36 H8         -0.2795   -0.9720    4.5648 H         1 <0>         0.1251
     37 H9         -1.2614   -7.9477    2.5790 H         1 <0>         0.0866
     38 H10        -3.4727   -6.8264    2.5399 H         1 <0>         0.0683
     39 H11        -2.5972   -6.4602    4.0458 H         1 <0>         0.0542
     40 H12        -2.6759   -5.2480    2.7448 H         1 <0>         0.0574
     41 H13        -0.4309   -7.0816    0.4090 H         1 <0>         0.0486
     42 H14        -2.2076   -7.1892    0.4161 H         1 <0>         0.0551
     43 H15        -1.4108   -5.6108    0.6211 H         1 <0>         0.0946
     44 H16         1.5083   -6.1608    1.5891 H         1 <0>         0.4168
     45 H17         2.8687   -8.4662    1.1137 H         1 <0>         0.1578
     46 H18         3.7361   -7.4605    2.2988 H         1 <0>         0.1294
     47 H19         1.3873  -12.0367    3.6850 H         1 <0>         0.4260
     48 H20         1.9921  -10.7176    5.8136 H         1 <0>         0.0982
     49 H21         2.8879  -12.2292    5.5390 H         1 <0>         0.1264
     50 H22         4.3498  -10.2127    6.0414 H         1 <0>         0.1544
     51 H23         4.7269  -11.0325    4.5043 H         1 <0>         0.1419
     52 H24         4.7432   -7.4380    3.7793 H         1 <0>         0.1374
     53 H25         5.8608   -7.1200    5.9230 H         1 <0>         0.1101
     54 H26         4.1348   -7.4303    6.2280 H         1 <0>         0.0800
     55 H27         5.3301   -8.7246    6.4818 H         1 <0>         0.0854
     56 H28         6.0146   -9.3870    2.9230 H         1 <0>         0.0811
     57 H29         7.0086   -8.4138    4.0335 H         1 <0>         0.1108
     58 H30         6.2875   -9.9423    4.5919 H         1 <0>         0.0865
     59 H31        -0.0825   -3.8784    4.6356 H         1 <0>         0.4219
     60 H32         2.9132   -8.7343    4.7059 H         1 <0>         0.4315
@<TRIPOS>BOND
     1    1    2 1
     2    1   31 1
     3    1   32 1
     4    1   33 1
     5    2    7 ar
     6    2    3 ar
     7    3    4 ar
     8    3   34 1
     9    4    5 ar
    10    4   35 1
    11    5   10 1
    12    5    6 ar
    13    6    7 ar
    14    6    8 1
    15    7   36 1
    16    8    9 1
    17    8   59 1
    18    9   10 2
    19    9   11 1
    20   11   12 1
    21   11   13 1
    22   11   16 1
    23   13   14 1
    24   13   15 1
    25   13   37 1
    26   14   38 1
    27   14   39 1
    28   14   40 1
    29   15   41 1
    30   15   42 1
    31   15   43 1
    32   16   17 am
    33   16   44 1
    34   17   18 2
    35   17   19 1
    36   19   20 1
    37   19   45 1
    38   19   46 1
    39   20   21 1
    40   20   27 1
    41   20   22 1
    42   22   23 2
    43   22   24 am
    44   24   25 1
    45   24   47 1
    46   25   26 1
    47   25   48 1
    48   25   49 1
    49   26   27 1
    50   26   50 1
    51   26   51 1
    52   27   28 1
    53   27   60 1
    54   28   29 1
    55   28   30 1
    56   28   52 1
    57   29   53 1
    58   29   54 1
    59   29   55 1
    60   30   56 1
    61   30   57 1
    62   30   58 1
@<TRIPOS>MOLECULE
ZINC63598850
   41    43     0     0     0
SMALL
USER_CHARGES

@<TRIPOS>ATOM
      1 C1         -0.0152    1.3806    0.0323 C.ar      1 <0>        -0.1244
      2 C2          0.1400    0.2186    0.7657 C.ar      1 <0>        -0.0966
      3 C3          1.3443   -0.4572    0.7449 C.ar      1 <0>        -0.1180
      4 C4          2.4000    0.0314   -0.0135 C.ar      1 <0>         0.1443
      5 C5          2.2409    1.1985   -0.7489 C.ar      1 <0>        -0.1414
      6 C6          1.0341    1.8697   -0.7239 C.ar      1 <0>        -0.0980
      7 N1          3.6217   -0.6508   -0.0363 N.am      1 <0>        -0.6790
      8 C7          3.6448   -1.9950    0.0580 C.2       1 <0>         0.7140
      9 O1          2.6030   -2.6219    0.0652 O.2       1 <0>        -0.5250
     10 N2          4.8227   -2.6444    0.1444 N.am      1 <0>        -0.5236
     11 N3          6.0230   -1.9220    0.1362 N.am      1 <0>        -0.5043
     12 C8          7.2009   -2.5713    0.2226 C.2       1 <0>         0.5232
     13 O2          7.2217   -3.7810    0.3075 O.2       1 <0>        -0.4850
     14 C9          8.4921   -1.7943    0.2137 C.3       1 <0>         0.0765
     15 H1          8.3912   -0.8919    0.8167 H         1 <0>         0.2087
     16 C10         8.8736   -1.4334   -1.2046 C.2       1 <0>         0.0341
     17 C11        10.0695   -2.0219   -1.4325 C.ar      1 <0>        -0.1152
     18 C12        10.9577   -2.0521   -2.5996 C.ar      1 <0>        -0.0516
     19 C13        12.1218   -2.7419   -2.5343 C.ar      1 <0>         0.0942
     20 C14        12.5179   -3.4381   -1.3789 C.ar      1 <0>        -0.0269
     21 C15        11.7688   -3.4690   -0.2561 C.ar      1 <0>        -0.1382
     22 C16        10.4879   -2.7561   -0.2160 C.ar      1 <0>         0.3396
     23 N4          9.5864   -2.6260    0.7272 N.pl3     1 <0>        -0.5408
     24 O3         12.9350   -2.7613   -3.6233 O.3       1 <0>        -0.2981
     25 C17        14.1525   -3.5009   -3.5106 C.3       1 <0>         0.6039
     26 F1         13.8603   -4.8411   -3.2358 F         1 <0>        -0.1583
     27 F2         14.8629   -3.4155   -4.7128 F         1 <0>        -0.1126
     28 F3         14.9263   -2.9701   -2.4730 F         1 <0>        -0.1587
     29 H2         -0.9594    1.9048    0.0466 H         1 <0>         0.1290
     30 H3         -0.6813   -0.1607    1.3556 H         1 <0>         0.1308
     31 H4          1.4650   -1.3645    1.3182 H         1 <0>         0.1352
     32 H5          3.0602    1.5813   -1.3395 H         1 <0>         0.1255
     33 H6          0.9098    2.7775   -1.2956 H         1 <0>         0.1312
     34 H7          4.4519   -0.1561   -0.1200 H         1 <0>         0.3977
     35 H8          4.8393   -3.6118    0.2123 H         1 <0>         0.4518
     36 H9          6.0064   -0.9545    0.0683 H         1 <0>         0.4288
     37 H10         8.3054   -0.8286   -1.8959 H         1 <0>         0.2243
     38 H11        10.6859   -1.5281   -3.5039 H         1 <0>         0.1819
     39 H12        13.4582   -3.9693   -1.3901 H         1 <0>         0.1731
     40 H13        12.1116   -4.0166    0.6093 H         1 <0>         0.1826
     41 H14         9.6340   -3.0141    1.6149 H         1 <0>         0.4655
@<TRIPOS>BOND
     1    1    6 ar
     2    1    2 ar
     3    1   29 1
     4    2    3 ar
     5    2   30 1
     6    3    4 ar
     7    3   31 1
     8    4    5 ar
     9    4    7 1
    10    5    6 ar
    11    5   32 1
    12    6   33 1
    13    7    8 am
    14    7   34 1
    15    8    9 2
    16    8   10 am
    17   10   11 1
    18   10   35 1
    19   11   12 am
    20   11   36 1
    21   12   13 2
    22   12   14 1
    23   14   15 1
    24   14   23 1
    25   14   16 1
    26   16   17 2
    27   16   37 1
    28   17   22 ar
    29   17   18 ar
    30   18   19 ar
    31   18   38 1
    32   19   20 ar
    33   19   24 1
    34   20   21 ar
    35   20   39 1
    36   21   22 ar
    37   21   40 1
    38   22   23 2
    39   23   41 1
    40   24   25 1
    41   25   26 1
    42   25   27 1
    43   25   28 1
@<TRIPOS>MOLECULE
ZINC65789598
   60    62     0     0     0
SMALL
USER_CHARGES

@<TRIPOS>ATOM
      1 C1         -0.6330    1.3568    0.4301 C.3       1 <0>        -0.1759
      2 C2         -0.0143    0.0174    0.0249 C.3       1 <0>         0.0981
      3 N1          0.6346    0.1544   -1.2814 N.am      1 <0>        -0.6164
      4 C3          2.0428    0.5503   -1.3618 C.3       1 <0>         0.1728
      5 C4          2.9165   -0.6691   -1.2178 C.ar      1 <0>        -0.1056
      6 C5          2.3436   -1.9254   -1.1464 C.ar      1 <0>        -0.1042
      7 C6          3.1449   -3.0438   -1.0143 C.ar      1 <0>        -0.1249
      8 C7          4.5193   -2.9063   -0.9541 C.ar      1 <0>        -0.1148
      9 C8          5.0920   -1.6505   -1.0265 C.ar      1 <0>        -0.1149
     10 C9          4.2907   -0.5321   -1.1629 C.ar      1 <0>        -0.0777
     11 C10         4.9154    0.8367   -1.2471 C.3       1 <0>        -0.1210
     12 C11        -0.0639   -0.0837   -2.4091 C.2       1 <0>         0.7056
     13 O1          0.4968   -0.0615   -3.4877 O.2       1 <0>        -0.5588
     14 N2         -1.3841   -0.3465   -2.3412 N.am      1 <0>        -0.6900
     15 C12        -2.0865   -0.7050   -3.4973 C.ar      1 <0>         0.1789
     16 C13        -1.4691   -1.4719   -4.4769 C.ar      1 <0>        -0.0869
     17 C14        -2.1651   -1.8245   -5.6164 C.ar      1 <0>        -0.0901
     18 C15        -3.4754   -1.4143   -5.7828 C.ar      1 <0>        -0.1061
     19 C16        -4.0926   -0.6504   -4.8096 C.ar      1 <0>        -0.1383
     20 C17        -3.4039   -0.2997   -3.6647 C.ar      1 <0>        -0.1301
     21 C18        -5.5202   -0.2048   -4.9955 C.3       1 <0>         0.0510
     22 N3         -6.4257   -1.2140   -4.4302 N.4       1 <0>        -0.3803
     23 C19        -6.3015   -1.2421   -2.9503 C.3       1 <0>        -0.0049
     24 C20        -7.6377   -1.8802   -2.4944 C.3       1 <0>        -0.1434
     25 C21        -8.6620   -1.2839   -3.4870 C.3       1 <0>        -0.1360
     26 C22        -7.8320   -0.8512   -4.7099 C.3       1 <0>        -0.0002
     27 C23        -8.3142   -1.5760   -5.9401 C.2       1 <0>         0.5145
     28 O2         -7.5678   -2.3246   -6.5345 O.2       1 <0>        -0.5244
     29 N4         -9.5749   -1.3922   -6.3797 N.am      1 <0>        -0.8244
     30 H1          0.1483    2.1145    0.4901 H         1 <0>         0.0670
     31 H2         -1.3722    1.6552   -0.3133 H         1 <0>         0.0541
     32 H3         -1.1158    1.2549    1.4020 H         1 <0>         0.0743
     33 H4          0.7249   -0.2810    0.7683 H         1 <0>         0.0929
     34 H5         -0.7955   -0.7403   -0.0352 H         1 <0>         0.0736
     35 H6          2.2331    1.0219   -2.3259 H         1 <0>         0.1026
     36 H7          2.2683    1.2554   -0.5617 H         1 <0>         0.0937
     37 H8          1.2700   -2.0327   -1.1934 H         1 <0>         0.1122
     38 H9          2.6973   -4.0250   -0.9578 H         1 <0>         0.1194
     39 H10         5.1454   -3.7801   -0.8502 H         1 <0>         0.1234
     40 H11         6.1656   -1.5431   -0.9792 H         1 <0>         0.1251
     41 H12         4.9347    1.2889   -0.2555 H         1 <0>         0.0736
     42 H13         5.9336    0.7487   -1.6262 H         1 <0>         0.0706
     43 H14         4.3298    1.4626   -1.9205 H         1 <0>         0.0675
     44 H15        -1.8473   -0.2872   -1.4911 H         1 <0>         0.4091
     45 H16        -0.4457   -1.7919   -4.3479 H         1 <0>         0.1453
     46 H17        -1.6856   -2.4208   -6.3785 H         1 <0>         0.1397
     47 H18        -4.0175   -1.6910   -6.6750 H         1 <0>         0.1341
     48 H19        -3.8880    0.2933   -2.9029 H         1 <0>         0.1315
     49 H20        -5.6731    0.7466   -4.4860 H         1 <0>         0.1365
     50 H21        -5.7280   -0.0851   -6.0588 H         1 <0>         0.1359
     51 H22        -5.4566   -1.8604   -2.6469 H         1 <0>         0.1392
     52 H23        -6.2024   -0.2318   -2.5533 H         1 <0>         0.1367
     53 H24        -7.5981   -2.9656   -2.5865 H         1 <0>         0.1008
     54 H25        -7.8759   -1.5873   -1.4719 H         1 <0>         0.1234
     55 H26        -9.3939   -2.0388   -3.7744 H         1 <0>         0.1084
     56 H27        -9.1605   -0.4218   -3.0439 H         1 <0>         0.1189
     57 H28        -7.9161    0.2260   -4.8534 H         1 <0>         0.1672
     58 H29       -10.1719   -0.7934   -5.9043 H         1 <0>         0.4134
     59 H30        -9.8853   -1.8586   -7.1715 H         1 <0>         0.4244
     60 H31        -6.2178   -2.1232   -4.8150 H         1 <0>         0.4337
@<TRIPOS>BOND
     1    1    2 1
     2    1   30 1
     3    1   31 1
     4    1   32 1
     5    2    3 1
     6    2   33 1
     7    2   34 1
     8    3    4 1
     9    3   12 am
    10    4    5 1
    11    4   35 1
    12    4   36 1
    13    5   10 ar
    14    5    6 ar
    15    6    7 ar
    16    6   37 1
    17    7    8 ar
    18    7   38 1
    19    8    9 ar
    20    8   39 1
    21    9   10 ar
    22    9   40 1
    23   10   11 1
    24   11   41 1
    25   11   42 1
    26   11   43 1
    27   12   13 2
    28   12   14 am
    29   14   15 1
    30   14   44 1
    31   15   20 ar
    32   15   16 ar
    33   16   17 ar
    34   16   45 1
    35   17   18 ar
    36   17   46 1
    37   18   19 ar
    38   18   47 1
    39   19   20 ar
    40   19   21 1
    41   20   48 1
    42   21   22 1
    43   21   49 1
    44   21   50 1
    45   22   26 1
    46   22   23 1
    47   22   60 1
    48   23   24 1
    49   23   51 1
    50   23   52 1
    51   24   25 1
    52   24   53 1
    53   24   54 1
    54   25   26 1
    55   25   55 1
    56   25   56 1
    57   26   27 1
    58   26   57 1
    59   27   28 2
    60   27   29 am
    61   29   58 1
    62   29   59 1
@<TRIPOS>MOLECULE
ZINC11842197
   53    56     0     0     0
SMALL
USER_CHARGES
N-[(2-methyl-1H-indol-5-yl)methyl]-2-[(2R)-3-oxo-1-(2-thienylmethyl)piperazin-2-yl]acetamide
@<TRIPOS>ATOM
      1 C1         -1.5362   -2.9114   -1.9788 C.3       1 <0>        -0.0999
      2 C2         -0.7386   -1.6580   -1.7261 C.2       1 <0>         0.0889
      3 C3         -1.2610   -0.4329   -1.5584 C.2       1 <0>        -0.2039
      4 C4         -0.1399    0.4846   -1.3408 C.ar      1 <0>        -0.1077
      5 C5         -0.0406    1.8582   -1.1110 C.ar      1 <0>        -0.0430
      6 C6          1.1885    2.4307   -0.9431 C.ar      1 <0>        -0.1526
      7 C7          2.3402    1.6575   -0.9998 C.ar      1 <0>        -0.0850
      8 C8          2.2652    0.3006   -1.2250 C.ar      1 <0>        -0.1247
      9 C9          1.0239   -0.3034   -1.3984 C.ar      1 <0>         0.1078
     10 N1          0.6253   -1.6001   -1.6338 N.pl3     1 <0>        -0.5907
     11 H1          1.2226   -2.3594   -1.7217 H         1 <0>         0.4177
     12 C10         1.2950    3.9133   -0.6951 C.3       1 <0>         0.1647
     13 N2          1.2468    4.1721    0.7460 N.am      1 <0>        -0.6935
     14 C11         1.3257    5.4363    1.2067 C.2       1 <0>         0.5110
     15 O1          1.4366    6.3596    0.4281 O.2       1 <0>        -0.5561
     16 C12         1.2761    5.7025    2.6891 C.3       1 <0>        -0.1700
     17 C13         1.2452    7.2122    2.9354 C.3       1 <0>         0.0402
     18 H2          1.2550    7.4041    4.0084 H         1 <0>         0.1768
     19 C14        -0.0061    7.7897    2.3368 C.2       1 <0>         0.5197
     20 O2         -1.0505    7.1909    2.4840 O.2       1 <0>        -0.4961
     21 N3         -0.0164    8.9360    1.6484 N.am      1 <0>        -0.7106
     22 C15         1.1906    9.7137    1.3838 C.3       1 <0>         0.0860
     23 C16         2.3042    9.2973    2.3465 C.3       1 <0>        -0.0197
     24 C17         3.6590    7.3942    2.9919 C.3       1 <0>         0.0941
     25 C18         4.8473    7.7251    2.1261 C.2       1 <0>        -0.2675
     26 C19         5.5990    8.8528    2.1032 C.2       1 <0>        -0.0844
     27 C20         6.6548    8.9367    1.2149 C.2       1 <0>        -0.1794
     28 C21         6.9072    7.8887    0.3931 C.2       1 <0>        -0.1190
     29 S1          5.6350    6.7306    0.8701 S.3       1 <0>         0.0964
     30 H3         -1.7896   -3.3788   -1.0272 H         1 <0>         0.0817
     31 H4         -2.4512   -2.6581   -2.5143 H         1 <0>         0.0891
     32 H5         -0.9446   -3.6040   -2.5775 H         1 <0>         0.0716
     33 H6         -2.3091   -0.1730   -1.5794 H         1 <0>         0.1496
     34 H7         -0.9319    2.4668   -1.0706 H         1 <0>         0.1241
     35 H8          3.3047    2.1245   -0.8654 H         1 <0>         0.1256
     36 H9          3.1668   -0.2924   -1.2664 H         1 <0>         0.1246
     37 H10         2.2376    4.2825   -1.0992 H         1 <0>         0.0844
     38 H11         0.4653    4.4240   -1.1839 H         1 <0>         0.0840
     39 H12         1.1581    3.4337    1.3687 H         1 <0>         0.4132
     40 H13         0.3798    5.2472    3.1103 H         1 <0>         0.1568
     41 H14         2.1587    5.2747    3.1648 H         1 <0>         0.1335
     42 H15        -0.8635    9.2653    1.3093 H         1 <0>         0.4256
     43 H16         1.5155    9.5394    0.3580 H         1 <0>         0.0988
     44 H17         0.9744   10.7737    1.5176 H         1 <0>         0.1265
     45 H18         3.2457    9.7488    2.0337 H         1 <0>         0.1482
     46 H19         2.0577    9.6280    3.3555 H         1 <0>         0.1407
     47 H20         3.7527    7.9072    3.9490 H         1 <0>         0.1515
     48 H21         3.6197    6.3178    3.1589 H         1 <0>         0.1375
     49 H22         5.3766    9.6734    2.7692 H         1 <0>         0.1439
     50 H23         7.2696    9.8238    1.1765 H         1 <0>         0.1501
     51 H24         7.6799    7.7808   -0.3537 H         1 <0>         0.1996
     52 N4          2.4247    7.8264    2.2975 N.4       1 <0>        -0.3991
     53 H25         2.4705    7.5260    1.3167 H         1 <0>         0.4388
@<TRIPOS>BOND
     1    1    2 1
     2    1   30 1
     3    1   31 1
     4    1   32 1
     5    2   10 1
     6    2    3 2
     7    3    4 1
     8    3   33 1
     9    4    9 ar
    10    4    5 ar
    11    5    6 ar
    12    5   34 1
    13    6    7 ar
    14    6   12 1
    15    7    8 ar
    16    7   35 1
    17    8    9 ar
    18    8   36 1
    19    9   10 1
    20   10   11 1
    21   12   13 1
    22   12   37 1
    23   12   38 1
    24   13   14 am
    25   13   39 1
    26   14   15 2
    27   14   16 1
    28   16   17 1
    29   16   40 1
    30   16   41 1
    31   17   18 1
    32   17   19 1
    33   17   52 1
    34   19   20 2
    35   19   21 am
    36   21   22 1
    37   21   42 1
    38   22   23 1
    39   22   43 1
    40   22   44 1
    41   23   45 1
    42   23   46 1
    43   23   52 1
    44   24   25 1
    45   24   47 1
    46   24   48 1
    47   24   52 1
    48   25   29 1
    49   25   26 2
    50   26   27 1
    51   26   49 1
    52   27   28 2
    53   27   50 1
    54   28   29 1
    55   28   51 1
    56   52   53 1
@<TRIPOS>MOLECULE
ZINC35606436
   49    53     0     0     0
SMALL
USER_CHARGES

@<TRIPOS>ATOM
      1 C1          3.8194   -0.1803    0.4454 C.3       1 <0>        -0.1233
      2 C2          2.6845   -1.1613    0.3019 C.2       1 <0>        -0.0709
      3 C3          2.3711   -1.6881   -0.9637 C.2       1 <0>        -0.0166
      4 C4          1.3474   -2.5734   -1.0925 C.2       1 <0>        -0.1194
      5 C5          0.6116   -2.9520    0.0503 C.cat     1 <0>         0.3102
      6 N1         -0.4114   -3.7759    0.2104 N.pl3     1 <0>        -0.4972
      7 C6         -0.7633   -3.7999    1.5084 C.2       1 <0>         0.1600
      8 C7          0.0790   -2.9506    2.1952 C.2       1 <0>         0.2416
      9 N2          0.9415   -2.4198    1.2755 N.pl3     1 <0>        -0.3283
     10 C8          1.9785   -1.5335    1.3884 C.2       1 <0>         0.0777
     11 N3          0.0554   -2.6836    3.5646 N.pl3     1 <0>        -0.6491
     12 C9         -0.4708   -1.4752    4.0324 C.ar      1 <0>         0.1761
     13 C10        -1.0939   -0.6007    3.1511 C.ar      1 <0>        -0.1753
     14 C11        -1.6127    0.5931    3.6130 C.ar      1 <0>        -0.0686
     15 C12        -1.5144    0.9225    4.9568 C.ar      1 <0>         0.0292
     16 C13        -0.8937    0.0488    5.8418 C.ar      1 <0>         0.1011
     17 C14        -0.3759   -1.1512    5.3791 C.ar      1 <0>        -0.1566
     18 O1         -0.7948    0.3515    7.1652 O.3       1 <0>        -0.3015
     19 C15        -0.9960    1.7214    7.5292 C.3       1 <0>         0.0195
     20 C16        -2.2467    2.2332    6.8019 C.3       1 <0>         0.0191
     21 O2         -2.0289    2.1063    5.3926 O.3       1 <0>        -0.3041
     22 C17        -1.8640   -4.5986    2.0974 C.ar      1 <0>        -0.0678
     23 C18        -2.7434   -4.0122    3.0070 C.ar      1 <0>        -0.0583
     24 C19        -3.7680   -4.7570    3.5549 C.ar      1 <0>        -0.1256
     25 C20        -3.9260   -6.0886    3.2027 C.ar      1 <0>         0.1246
     26 C21        -3.0511   -6.6798    2.2951 C.ar      1 <0>         0.0887
     27 C22        -2.0255   -5.9365    1.7388 C.ar      1 <0>        -0.1020
     28 O3         -3.2076   -7.9864    1.9520 O.3       1 <0>        -0.4799
     29 O4         -4.9372   -6.8189    3.7451 O.3       1 <0>        -0.4819
     30 H1          4.7457   -0.7218    0.6375 H         1 <0>         0.0960
     31 H2          3.9197    0.3963   -0.4741 H         1 <0>         0.0931
     32 H3          3.6138    0.4942    1.2766 H         1 <0>         0.0861
     33 H4          2.9417   -1.3900   -1.8308 H         1 <0>         0.1758
     34 H5          1.0995   -2.9828   -2.0606 H         1 <0>         0.1826
     35 H6          2.2310   -1.1258    2.3561 H         1 <0>         0.1931
     36 H7          0.4039   -3.3361    4.1920 H         1 <0>         0.4312
     37 H8         -1.1723   -0.8543    2.1042 H         1 <0>         0.1191
     38 H9         -2.0960    1.2720    2.9260 H         1 <0>         0.1421
     39 H10         0.1048   -1.8324    6.0657 H         1 <0>         0.1440
     40 H11        -1.1402    1.7980    8.6069 H         1 <0>         0.1303
     41 H12        -0.1298    2.3120    7.2308 H         1 <0>         0.0834
     42 H13        -3.1117    1.6383    7.0953 H         1 <0>         0.0822
     43 H14        -2.4167    3.2797    7.0549 H         1 <0>         0.1292
     44 H15        -2.6225   -2.9750    3.2829 H         1 <0>         0.1408
     45 H16        -4.4480   -4.3017    4.2597 H         1 <0>         0.1500
     46 H17        -1.3486   -6.3926    1.0315 H         1 <0>         0.1393
     47 H18        -3.7824   -8.1261    1.1871 H         1 <0>         0.3966
     48 H19        -5.7591   -6.7913    3.2364 H         1 <0>         0.4012
     49 H20        -0.8402   -4.2825   -0.4969 H         1 <0>         0.4624
@<TRIPOS>BOND
     1    1    2 1
     2    1   30 1
     3    1   31 1
     4    1   32 1
     5    2   10 2
     6    2    3 1
     7    3    4 2
     8    3   33 1
     9    4    5 1
    10    4   34 1
    11    5    9 1
    12    5    6 2
    13    6    7 1
    14    6   49 1
    15    7    8 2
    16    7   22 1
    17    8    9 1
    18    8   11 1
    19    9   10 1
    20   10   35 1
    21   11   12 1
    22   11   36 1
    23   12   17 ar
    24   12   13 ar
    25   13   14 ar
    26   13   37 1
    27   14   15 ar
    28   14   38 1
    29   15   21 1
    30   15   16 ar
    31   16   17 ar
    32   16   18 1
    33   17   39 1
    34   18   19 1
    35   19   20 1
    36   19   40 1
    37   19   41 1
    38   20   21 1
    39   20   42 1
    40   20   43 1
    41   22   27 ar
    42   22   23 ar
    43   23   24 ar
    44   23   44 1
    45   24   25 ar
    46   24   45 1
    47   25   26 ar
    48   25   29 1
    49   26   27 ar
    50   26   28 1
    51   27   46 1
    52   28   47 1
    53   29   48 1
@<TRIPOS>MOLECULE
ZINC45290259
   49    52     0     0     0
SMALL
USER_CHARGES

@<TRIPOS>ATOM
      1 C1         -0.0184    1.5028    0.0103 C.3       1 <0>        -0.0831
      2 C2          0.0021   -0.0041    0.0020 C.2       1 <0>         0.1049
      3 C3          0.0080   -0.8219   -1.1499 C.ar      1 <0>        -0.1397
      4 C4         -0.0022   -0.5793   -2.5294 C.ar      1 <0>        -0.0577
      5 C5          0.0088   -1.6623   -3.3937 C.ar      1 <0>         0.0922
      6 N1          0.0283   -2.9109   -2.9313 N.ar      1 <0>        -0.4344
      7 C6          0.0384   -3.1855   -1.6462 C.ar      1 <0>         0.1199
      8 C7          0.0290   -2.1610   -0.7043 C.ar      1 <0>         0.0815
      9 N2          0.0351   -2.1145    0.6648 N.pl3     1 <0>        -0.4842
     10 H1          0.0493   -2.8801    1.2603 H         1 <0>         0.4501
     11 N3          0.0229   -0.7695    1.0556 N.2       1 <0>        -0.2286
     12 C8         -0.0016   -1.4268   -4.8585 C.ar      1 <0>        -0.0321
     13 C9         -0.1016   -2.4990   -5.7484 C.ar      1 <0>        -0.0687
     14 C10        -0.1076   -2.2252   -7.1100 C.ar      1 <0>         0.0614
     15 C11        -0.0149   -0.9070   -7.5356 C.ar      1 <0>         0.0256
     16 N4          0.0787    0.0809   -6.6674 N.ar      1 <0>        -0.4393
     17 C12         0.0823   -0.1325   -5.3675 C.ar      1 <0>         0.0912
     18 O1         -0.2027   -3.2352   -8.0146 O.3       1 <0>        -0.3208
     19 C13        -0.2022   -2.8708   -9.3963 C.3       1 <0>         0.0277
     20 C14        -0.3155   -4.1312  -10.2562 C.3       1 <0>         0.0411
     21 H2          0.4811   -4.8258   -9.9896 H         1 <0>         0.1609
     22 C15        -0.1898   -3.7537  -11.7336 C.3       1 <0>        -0.0974
     23 C16        -0.1781   -5.0055  -12.5726 C.ar      1 <0>        -0.1399
     24 C17         1.0247   -5.5729  -12.9501 C.ar      1 <0>        -0.0517
     25 C18         1.0381   -6.7208  -13.7196 C.ar      1 <0>        -0.1169
     26 C19        -0.1536   -7.3049  -14.1140 C.ar      1 <0>         0.1181
     27 C20        -1.3604   -6.7377  -13.7367 C.ar      1 <0>         0.0518
     28 C21        -1.3716   -5.5894  -12.9602 C.ar      1 <0>         0.0679
     29 F1         -2.5468   -5.0379  -12.5861 F         1 <0>        -0.1252
     30 F2         -2.5243   -7.3058  -14.1210 F         1 <0>        -0.1035
     31 F3         -0.1400   -8.4268  -14.8666 F         1 <0>        -0.1031
     32 N5         -1.6187   -4.7678  -10.0227 N.4       1 <0>        -0.6385
     33 H3          1.0042    1.8801    0.0026 H         1 <0>         0.0893
     34 H4         -0.5455    1.8639   -0.8728 H         1 <0>         0.0850
     35 H5         -0.5286    1.8543    0.9071 H         1 <0>         0.0861
     36 H6         -0.0186    0.4307   -2.9115 H         1 <0>         0.1475
     37 H7          0.0541   -4.2144   -1.3183 H         1 <0>         0.1694
     38 H8         -0.1721   -3.5143   -5.3871 H         1 <0>         0.1566
     39 H9         -0.0190   -0.6876   -8.5931 H         1 <0>         0.1584
     40 H10         0.1558    0.7045   -4.6890 H         1 <0>         0.1681
     41 H11        -1.0488   -2.2150   -9.5995 H         1 <0>         0.0945
     42 H12         0.7256   -2.3506   -9.6346 H         1 <0>         0.1172
     43 H13        -1.0360   -3.1304  -12.0226 H         1 <0>         0.1133
     44 H14         0.7376   -3.2027  -11.8901 H         1 <0>         0.1409
     45 H15         1.9552   -5.1183  -12.6435 H         1 <0>         0.1644
     46 H16         1.9788   -7.1624  -14.0137 H         1 <0>         0.1680
     47 H17        -1.6934   -5.5990  -10.5897 H         1 <0>         0.4310
     48 H18        -1.7016   -5.0167   -9.0484 H         1 <0>         0.4453
     49 H19        -2.3561   -4.1248  -10.2695 H         1 <0>         0.4356
@<TRIPOS>BOND
     1    1    2 1
     2    1   33 1
     3    1   34 1
     4    1   35 1
     5    2   11 2
     6    2    3 1
     7    3    8 ar
     8    3    4 ar
     9    4    5 ar
    10    4   36 1
    11    5    6 ar
    12    5   12 1
    13    6    7 ar
    14    7    8 ar
    15    7   37 1
    16    8    9 1
    17    9   10 1
    18    9   11 1
    19   12   17 ar
    20   12   13 ar
    21   13   14 ar
    22   13   38 1
    23   14   15 ar
    24   14   18 1
    25   15   16 ar
    26   15   39 1
    27   16   17 ar
    28   17   40 1
    29   18   19 1
    30   19   20 1
    31   19   41 1
    32   19   42 1
    33   20   21 1
    34   20   22 1
    35   20   32 1
    36   22   23 1
    37   22   43 1
    38   22   44 1
    39   23   28 ar
    40   23   24 ar
    41   24   25 ar
    42   24   45 1
    43   25   26 ar
    44   25   46 1
    45   26   27 ar
    46   26   31 1
    47   27   28 ar
    48   27   30 1
    49   28   29 1
    50   32   47 1
    51   32   48 1
    52   32   49 1
@<TRIPOS>MOLECULE
ZINC59619517
   58    61     0     0     0
SMALL
USER_CHARGES

@<TRIPOS>ATOM
      1 C1         -0.0161    1.3374    0.0094 C.2       1 <0>        -0.2996
      2 C2          0.0021   -0.0041    0.0020 C.2       1 <0>         0.1731
      3 C3         -1.2480   -0.7843    0.0035 C.2       1 <0>        -0.4059
      4 C4         -1.1844   -2.1158   -0.2158 C.2       1 <0>         0.4220
      5 O1         -2.3229   -2.8481   -0.2509 O.3       1 <0>        -0.6645
      6 N1          0.0352   -2.7331   -0.4037 N.pl3     1 <0>        -0.5456
      7 C5          1.1914   -2.0009   -0.4823 C.2       1 <0>         0.7077
      8 N2          1.2140   -0.7155   -0.0134 N.pl3     1 <0>        -0.5979
      9 N3          2.2578   -2.5227   -1.0521 N.2       1 <0>        -0.6434
     10 C6          2.2162   -3.7533   -1.5918 C.cat     1 <0>         0.7191
     11 N4          1.2151   -4.5651   -1.3862 N.pl3     1 <0>        -0.6881
     12 C7          0.1201   -4.1963   -0.4850 C.3       1 <0>         0.3656
     13 H1         -0.8186   -4.5948   -0.8699 H         1 <0>         0.1560
     14 C8          0.3886   -4.7711    0.9072 C.3       1 <0>        -0.1067
     15 H2          1.3286   -4.3754    1.2919 H         1 <0>         0.0762
     16 C9          0.4674   -6.3009    0.8271 C.3       1 <0>        -0.1123
     17 C10         0.9115   -6.8347    2.1907 C.3       1 <0>        -0.0848
     18 C11         0.0772   -6.2272    3.2802 C.2       1 <0>        -0.1701
     19 C12        -0.6450   -5.1631    3.1328 C.2       1 <0>        -0.1418
     20 C13        -0.7544   -4.3896    1.8504 C.3       1 <0>        -0.0824
     21 N5          3.2643   -4.1710   -2.3871 N.pl3     1 <0>        -0.6967
     22 C14         4.3993   -3.2777   -2.6320 C.3       1 <0>         0.1074
     23 C15         5.4138   -3.9787   -3.5377 C.3       1 <0>        -0.0254
     24 N6          6.5519   -3.0829   -3.7832 N.4       1 <0>        -0.3776
     25 C16         6.0946   -1.9079   -4.5347 C.3       1 <0>        -0.0162
     26 C17         7.2591   -0.9332   -4.7230 C.3       1 <0>        -0.1458
     27 C18         8.3816   -1.6309   -5.4967 C.3       1 <0>        -0.1408
     28 C19         8.7996   -2.8955   -4.7409 C.3       1 <0>        -0.1465
     29 C20         7.5780   -3.7975   -4.5520 C.3       1 <0>        -0.0057
     30 H3          0.9117    1.8901    0.0035 H         1 <0>         0.0928
     31 H4         -0.9587    1.8646    0.0167 H         1 <0>         0.1226
     32 H5         -2.1978   -0.3004    0.1772 H         1 <0>         0.1467
     33 H6         -0.5132   -6.7057    0.5768 H         1 <0>         0.0809
     34 H7          1.1921   -6.5911    0.0664 H         1 <0>         0.0595
     35 H8          0.7965   -7.9185    2.2094 H         1 <0>         0.0794
     36 H9          1.9590   -6.5817    2.3541 H         1 <0>         0.0696
     37 H10         0.0793   -6.7078    4.2474 H         1 <0>         0.1080
     38 H11        -1.2017   -4.8066    3.9869 H         1 <0>         0.1109
     39 H12        -0.7061   -3.3216    2.0632 H         1 <0>         0.0778
     40 H13        -1.7077   -4.6182    1.3739 H         1 <0>         0.1011
     41 H14         3.2492   -5.0561   -2.7838 H         1 <0>         0.4261
     42 H15         4.0471   -2.3674   -3.1172 H         1 <0>         0.1028
     43 H16         4.8731   -3.0240   -1.6837 H         1 <0>         0.1052
     44 H17         5.7660   -4.8890   -3.0525 H         1 <0>         0.1416
     45 H18         4.9399   -4.2324   -4.4859 H         1 <0>         0.1395
     46 H19         5.7236   -2.2228   -5.5101 H         1 <0>         0.1317
     47 H20         5.2936   -1.4144   -3.9844 H         1 <0>         0.1333
     48 H21         6.9180   -0.0623   -5.2827 H         1 <0>         0.1149
     49 H22         7.6307   -0.6175   -3.7481 H         1 <0>         0.0899
     50 H23         8.0255   -1.9013   -6.4908 H         1 <0>         0.0826
     51 H24         9.2357   -0.9595   -5.5843 H         1 <0>         0.0964
     52 H25         9.5596   -3.4272   -5.3135 H         1 <0>         0.1148
     53 H26         9.2032   -2.6205   -3.7665 H         1 <0>         0.0895
     54 H27         7.8722   -4.6989   -4.0144 H         1 <0>         0.1323
     55 H28         7.1754   -4.0721   -5.5270 H         1 <0>         0.1307
     56 H29         1.1955   -5.4242   -1.8363 H         1 <0>         0.4289
     57 H30         6.9406   -2.7851   -2.9010 H         1 <0>         0.4265
     58 H31         2.0381   -0.3115    0.3005 H         1 <0>         0.4346
@<TRIPOS>BOND
     1    1    2 2
     2    1   30 1
     3    1   31 1
     4    2    8 1
     5    2    3 1
     6    3    4 2
     7    3   32 1
     8    4    5 1
     9    4    6 1
    10    6   12 1
    11    6    7 1
    12    7    8 1
    13    7    9 2
    14    8   58 1
    15    9   10 1
    16   10   11 2
    17   10   21 1
    18   11   12 1
    19   11   56 1
    20   12   13 1
    21   12   14 1
    22   14   15 1
    23   14   20 1
    24   14   16 1
    25   16   17 1
    26   16   33 1
    27   16   34 1
    28   17   18 1
    29   17   35 1
    30   17   36 1
    31   18   19 2
    32   18   37 1
    33   19   20 1
    34   19   38 1
    35   20   39 1
    36   20   40 1
    37   21   22 1
    38   21   41 1
    39   22   23 1
    40   22   42 1
    41   22   43 1
    42   23   24 1
    43   23   44 1
    44   23   45 1
    45   24   29 1
    46   24   25 1
    47   24   57 1
    48   25   26 1
    49   25   46 1
    50   25   47 1
    51   26   27 1
    52   26   48 1
    53   26   49 1
    54   27   28 1
    55   27   50 1
    56   27   51 1
    57   28   29 1
    58   28   52 1
    59   28   53 1
    60   29   54 1
    61   29   55 1
@<TRIPOS>MOLECULE
ZINC67066734
   63    65     0     0     0
SMALL
USER_CHARGES

@<TRIPOS>ATOM
      1 C1         -0.1394    0.6521    0.4747 C.3       1 <0>        -0.1225
      2 C2          1.2584    1.2733    0.4417 C.3       1 <0>        -0.1205
      3 C3          1.9658    0.8689   -0.8532 C.3       1 <0>        -0.1140
      4 C4          2.0835   -0.6553   -0.9154 C.3       1 <0>        -0.0727
      5 C5          0.6857   -1.2765   -0.8824 C.3       1 <0>        -0.1207
      6 C6         -0.0217   -0.8721    0.4125 C.3       1 <0>        -0.1192
      7 C7          2.7909   -1.0598   -2.2104 C.3       1 <0>        -0.1265
      8 C8          3.0166   -2.5498   -2.2152 C.2       1 <0>         0.5156
      9 O1          2.6479   -3.2220   -1.2755 O.2       1 <0>        -0.5124
     10 N1          3.6280   -3.1353   -3.2639 N.am      1 <0>        -0.5395
     11 N2          3.8379   -4.5205   -3.2684 N.am      1 <0>        -0.5258
     12 C9          4.4494   -5.1061   -4.3170 C.2       1 <0>         0.7152
     13 O2          4.6314   -6.3082   -4.3209 O.2       1 <0>        -0.5647
     14 N3          4.8590   -4.3591   -5.3614 N.am      1 <0>        -0.7429
     15 C10         5.5237   -4.9956   -6.5012 C.3       1 <0>         0.1544
     16 C11         7.0213   -5.1301   -6.2110 C.3       1 <0>        -0.1618
     17 C12         7.7216   -5.7222   -7.4359 C.3       1 <0>        -0.0072
     18 N4          7.5230   -4.8396   -8.5918 N.4       1 <0>        -0.3855
     19 C13         6.0945   -4.7629   -8.9204 C.3       1 <0>        -0.0011
     20 C14         5.3317   -4.1338   -7.7525 C.3       1 <0>        -0.1569
     21 C15         8.2613   -5.3717   -9.7449 C.3       1 <0>        -0.0044
     22 C16         9.7639   -5.3002   -9.4656 C.3       1 <0>        -0.1205
     23 C17        10.2182   -3.8278   -9.3919 C.3       1 <0>        -0.1405
     24 C18        11.6192   -3.8291  -10.0524 C.3       1 <0>        -0.1245
     25 C19        11.4491   -4.8409  -11.2128 C.3       1 <0>        -0.1300
     26 C20        10.5465   -5.9443  -10.6233 C.3       1 <0>        -0.1170
     27 H1         -0.6434    0.9403    1.3973 H         1 <0>         0.0624
     28 H2         -0.7151    1.0073   -0.3800 H         1 <0>         0.0609
     29 H3          1.1746    2.3592    0.4860 H         1 <0>         0.0641
     30 H4          1.8341    0.9182    1.2964 H         1 <0>         0.0631
     31 H5          1.3901    1.2240   -1.7079 H         1 <0>         0.0640
     32 H6          2.9616    1.3114   -0.8768 H         1 <0>         0.0629
     33 H7          2.6592   -1.0105   -0.0607 H         1 <0>         0.0817
     34 H8          0.1099   -0.9214   -1.7371 H         1 <0>         0.0563
     35 H9          0.7695   -2.3624   -0.9267 H         1 <0>         0.0779
     36 H10         0.5540   -1.2272    1.2672 H         1 <0>         0.0627
     37 H11        -1.0176   -1.3146    0.4361 H         1 <0>         0.0618
     38 H12         2.1721   -0.7833   -3.0641 H         1 <0>         0.1013
     39 H13         3.7504   -0.5468   -2.2758 H         1 <0>         0.1011
     40 H14         3.9229   -2.5977   -4.0155 H         1 <0>         0.4161
     41 H15         3.5430   -5.0582   -2.5168 H         1 <0>         0.4490
     42 H16         4.7138   -3.4000   -5.3582 H         1 <0>         0.3966
     43 H17         5.0936   -5.9830   -6.6691 H         1 <0>         0.1102
     44 H18         7.4394   -4.1475   -5.9923 H         1 <0>         0.0901
     45 H19         7.1684   -5.7878   -5.3543 H         1 <0>         0.1197
     46 H20         8.7880   -5.8195   -7.2326 H         1 <0>         0.1356
     47 H21         7.3029   -6.7048   -7.6535 H         1 <0>         0.1341
     48 H22         5.9597   -4.1520   -9.8130 H         1 <0>         0.1373
     49 H23         5.7106   -5.7660   -9.1064 H         1 <0>         0.1346
     50 H24         4.2710   -4.0795   -7.9978 H         1 <0>         0.1215
     51 H25         5.7147   -3.1306   -7.5659 H         1 <0>         0.0945
     52 H26         7.9722   -6.4090   -9.9142 H         1 <0>         0.1320
     53 H27         8.0278   -4.7803  -10.6302 H         1 <0>         0.1327
     54 H28         9.9941   -5.8101   -8.5301 H         1 <0>         0.0964
     55 H29         9.5339   -3.1890   -9.9502 H         1 <0>         0.0734
     56 H30        10.2860   -3.5010   -8.3543 H         1 <0>         0.0740
     57 H31        11.8663   -2.8393  -10.4361 H         1 <0>         0.0770
     58 H32        12.3777   -4.1723   -9.3488 H         1 <0>         0.0752
     59 H33        10.9635   -4.3657  -12.0652 H         1 <0>         0.0714
     60 H34        12.4151   -5.2533  -11.5040 H         1 <0>         0.0770
     61 H35        11.1572   -6.7662  -10.2495 H         1 <0>         0.0810
     62 H36         9.8558   -6.3079  -11.3842 H         1 <0>         0.0748
     63 H37         7.8665   -3.9167   -8.3719 H         1 <0>         0.4212
@<TRIPOS>BOND
     1    1    6 1
     2    1    2 1
     3    1   27 1
     4    1   28 1
     5    2    3 1
     6    2   29 1
     7    2   30 1
     8    3    4 1
     9    3   31 1
    10    3   32 1
    11    4    5 1
    12    4    7 1
    13    4   33 1
    14    5    6 1
    15    5   34 1
    16    5   35 1
    17    6   36 1
    18    6   37 1
    19    7    8 1
    20    7   38 1
    21    7   39 1
    22    8    9 2
    23    8   10 am
    24   10   11 1
    25   10   40 1
    26   11   12 am
    27   11   41 1
    28   12   13 2
    29   12   14 am
    30   14   15 1
    31   14   42 1
    32   15   20 1
    33   15   16 1
    34   15   43 1
    35   16   17 1
    36   16   44 1
    37   16   45 1
    38   17   18 1
    39   17   46 1
    40   17   47 1
    41   18   19 1
    42   18   21 1
    43   18   63 1
    44   19   20 1
    45   19   48 1
    46   19   49 1
    47   20   50 1
    48   20   51 1
    49   21   22 1
    50   21   52 1
    51   21   53 1
    52   22   26 1
    53   22   23 1
    54   22   54 1
    55   23   24 1
    56   23   55 1
    57   23   56 1
    58   24   25 1
    59   24   57 1
    60   24   58 1
    61   25   26 1
    62   25   59 1
    63   25   60 1
    64   26   61 1
    65   26   62 1
@<TRIPOS>MOLECULE
ZINC04980855
   51    54     0     0     0
SMALL
USER_CHARGES
1-(4-chlorophenyl)-4-[(7,7-dimethyl-4-bicyclo[3.1.1]hept-3-enyl)methyl]piperazine
@<TRIPOS>ATOM
      1 C1          1.8365    1.7013    3.3979 C.3       1 <0>        -0.1523
      2 C2          0.8800    1.3563    4.5411 C.3       1 <0>        -0.0765
      3 C3          0.9492    2.3328    5.7278 C.3       1 <0>        -0.1095
      4 H1          1.5657    1.9976    6.5619 H         1 <0>         0.0935
      5 C4          1.2255    3.7788    5.2936 C.3       1 <0>        -0.0905
      6 C5          0.3596    4.1281    4.1076 C.2       1 <0>        -0.0668
      7 C6         -0.5099    3.2524    3.6582 C.2       1 <0>        -0.1944
      8 C7         -0.5894    1.9152    4.3738 C.3       1 <0>        -0.0785
      9 H2         -1.3423    1.2303    3.9836 H         1 <0>         0.0945
     10 C8         -0.5645    2.0915    5.8994 C.3       1 <0>        -0.1287
     11 C9         -1.3988    3.5648    2.4821 C.3       1 <0>         0.0516
     12 C10        -0.7300    1.5798    1.2666 C.3       1 <0>        -0.0106
     13 C11        -0.0127    1.0858    0.0080 C.3       1 <0>         0.0204
     14 N1         -0.7243    1.5730   -1.1819 N.pl3     1 <0>        -0.4845
     15 C12        -0.7771    3.0416   -1.1959 C.3       1 <0>         0.0252
     16 C13        -1.4948    3.5356    0.0624 C.3       1 <0>         0.0006
     17 C14        -0.1387    1.0818   -2.3517 C.ar      1 <0>         0.0915
     18 C15         0.9732    0.2527   -2.2781 C.ar      1 <0>        -0.1513
     19 C16         1.5464   -0.2360   -3.4357 C.ar      1 <0>        -0.0818
     20 C17         1.0210    0.1089   -4.6685 C.ar      1 <0>        -0.0453
     21 C18        -0.0833    0.9394   -4.7451 C.ar      1 <0>        -0.0827
     22 C19        -0.6640    1.4264   -3.5905 C.ar      1 <0>        -0.1164
     23 Cl1         1.7488   -0.5009   -6.1218 Cl        1 <0>        -0.0530
     24 C20         0.9349   -0.1178    4.9473 C.3       1 <0>        -0.1355
     25 H3          2.8411    1.3617    3.6497 H         1 <0>         0.0708
     26 H4          1.5043    1.2075    2.4847 H         1 <0>         0.0508
     27 H5          1.8454    2.7805    3.2448 H         1 <0>         0.0610
     28 H6          2.2754    3.8806    5.0187 H         1 <0>         0.0928
     29 H7          1.0002    4.4545    6.1187 H         1 <0>         0.0961
     30 H8          0.4544    5.0928    3.6314 H         1 <0>         0.1254
     31 H9         -0.8067    1.1842    6.4528 H         1 <0>         0.0955
     32 H10        -1.1138    2.9657    6.2488 H         1 <0>         0.0740
     33 H11        -1.5259    4.6442    2.3992 H         1 <0>         0.1330
     34 H12        -2.3714    3.0945    2.6267 H         1 <0>         0.1377
     35 H13        -1.7436    1.1797    1.2882 H         1 <0>         0.1402
     36 H14        -0.1871    1.2439    2.1500 H         1 <0>         0.1463
     37 H15         0.0021   -0.0041    0.0020 H         1 <0>         0.1294
     38 H16         1.0098    1.4634    0.0003 H         1 <0>         0.0712
     39 H17         0.2366    3.4417   -1.2171 H         1 <0>         0.0699
     40 H18        -1.3193    3.3776   -2.0798 H         1 <0>         0.1295
     41 H19        -1.5096    4.6255    0.0684 H         1 <0>         0.1382
     42 H20        -2.5172    3.1577    0.0699 H         1 <0>         0.1421
     43 H21         1.3867   -0.0129   -1.3164 H         1 <0>         0.1356
     44 H22         2.4085   -0.8840   -3.3789 H         1 <0>         0.1406
     45 H23        -0.4911    1.2073   -5.7085 H         1 <0>         0.1428
     46 H24        -1.5256    2.0748   -3.6508 H         1 <0>         0.1376
     47 H25         0.3334   -0.2704    5.8434 H         1 <0>         0.0660
     48 H26         0.5427   -0.7327    4.1374 H         1 <0>         0.0609
     49 H27         1.9678   -0.4004    5.1506 H         1 <0>         0.0671
     50 N2         -0.7568    3.0577    1.2505 N.4       1 <0>        -0.3954
     51 H28         0.2072    3.4086    1.2081 H         1 <0>         0.4218
@<TRIPOS>BOND
     1    1    2 1
     2    1   25 1
     3    1   26 1
     4    1   27 1
     5    2    8 1
     6    2    3 1
     7    2   24 1
     8    3    4 1
     9    3   10 1
    10    3    5 1
    11    5    6 1
    12    5   28 1
    13    5   29 1
    14    6    7 2
    15    6   30 1
    16    7    8 1
    17    7   11 1
    18    8    9 1
    19    8   10 1
    20   10   31 1
    21   10   32 1
    22   11   33 1
    23   11   34 1
    24   11   50 1
    25   12   13 1
    26   12   35 1
    27   12   36 1
    28   12   50 1
    29   13   14 1
    30   13   37 1
    31   13   38 1
    32   14   15 1
    33   14   17 1
    34   15   16 1
    35   15   39 1
    36   15   40 1
    37   16   41 1
    38   16   42 1
    39   16   50 1
    40   17   22 ar
    41   17   18 ar
    42   18   19 ar
    43   18   43 1
    44   19   20 ar
    45   19   44 1
    46   20   21 ar
    47   20   23 1
    48   21   22 ar
    49   21   45 1
    50   22   46 1
    51   24   47 1
    52   24   48 1
    53   24   49 1
    54   50   51 1
@<TRIPOS>MOLECULE
ZINC19205187
   44    46     0     0     0
SMALL
USER_CHARGES
(3R)-6-bromo-7,8-dimethyl-3-[(2R)-2-methyl-1-piperidyl]chroman-4-one
@<TRIPOS>ATOM
      1 C1          1.8302    5.2084    0.2467 C.3       1 <0>        -0.1463
      2 C2          0.7366    4.1738    0.1775 C.ar      1 <0>         0.0268
      3 C3         -0.5845    4.5750    0.1823 C.ar      1 <0>        -0.1032
      4 C4         -1.5991    3.6300    0.1201 C.ar      1 <0>         0.1696
      5 C5         -1.2634    2.2681    0.0520 C.ar      1 <0>        -0.2607
      6 C6          0.0752    1.8728    0.0505 C.ar      1 <0>         0.0077
      7 C7          1.0678    2.8290    0.1102 C.ar      1 <0>        -0.1275
      8 Br1         2.8846    2.3044    0.1008 Br        1 <0>        -0.0091
      9 C8         -2.3440    1.2670    0.0074 C.2       1 <0>         0.3925
     10 O1         -2.1270    0.0848    0.1707 O.2       1 <0>        -0.3797
     11 C9         -3.7432    1.7931   -0.2593 C.3       1 <0>        -0.0508
     12 H1         -4.5095    1.0503    0.0072 H         1 <0>         0.1782
     13 C10        -3.8954    3.0989    0.5345 C.3       1 <0>         0.0469
     14 O2         -2.8934    4.0258    0.1172 O.3       1 <0>        -0.2960
     15 N1         -3.9135    2.0570   -1.6943 N.4       1 <0>        -0.3838
     16 C11        -2.8009    2.8600   -2.2174 C.3       1 <0>        -0.0430
     17 C12        -2.9350    2.9918   -3.7361 C.3       1 <0>        -0.1416
     18 C13        -4.2720    3.6596   -4.0695 C.3       1 <0>        -0.1393
     19 C14        -5.4113    2.8293   -3.4721 C.3       1 <0>        -0.1376
     20 C15        -5.2054    2.7022   -1.9610 C.3       1 <0>         0.0284
     21 H2         -5.1765    3.6960   -1.4904 H         1 <0>         0.1369
     22 C16        -6.3310    1.8562   -1.3625 C.3       1 <0>        -0.1899
     23 C17        -0.9252    6.0412    0.2557 C.3       1 <0>        -0.1196
     24 H3          1.3828    6.2122    0.2943 H         1 <0>         0.0881
     25 H4          2.4646    5.1318   -0.6487 H         1 <0>         0.0952
     26 H5          2.4414    5.0363    1.1449 H         1 <0>         0.0955
     27 H6          0.3323    0.8251   -0.0016 H         1 <0>         0.1547
     28 H7         -4.8918    3.5265    0.3494 H         1 <0>         0.1500
     29 H8         -3.7795    2.8908    1.6084 H         1 <0>         0.1209
     30 H9         -2.8235    3.8600   -1.7596 H         1 <0>         0.1519
     31 H10        -1.8476    2.3674   -1.9753 H         1 <0>         0.1299
     32 H11        -2.1094    3.6058   -4.1252 H         1 <0>         0.1131
     33 H12        -2.8973    1.9931   -4.1956 H         1 <0>         0.0870
     34 H13        -4.2915    4.6738   -3.6440 H         1 <0>         0.0831
     35 H14        -4.3906    3.7178   -5.1615 H         1 <0>         0.0970
     36 H15        -6.3717    3.3268   -3.6725 H         1 <0>         0.1158
     37 H16        -5.4144    1.8287   -3.9289 H         1 <0>         0.0909
     38 H17        -7.2988    2.3394   -1.5622 H         1 <0>         0.1122
     39 H18        -6.1837    1.7656   -0.2762 H         1 <0>         0.0801
     40 H19        -6.3198    0.8554   -1.8188 H         1 <0>         0.0867
     41 H20        -2.0183    6.1644    0.2486 H         1 <0>         0.0796
     42 H21        -0.4918    6.5621   -0.6108 H         1 <0>         0.0831
     43 H22        -0.5142    6.4672    1.1829 H         1 <0>         0.0844
     44 H23        -3.9062    1.0911   -2.2205 H         1 <0>         0.4416
@<TRIPOS>BOND
     1    1    2 1
     2    1   24 1
     3    1   25 1
     4    1   26 1
     5    2    7 ar
     6    2    3 ar
     7    3    4 ar
     8    3   23 1
     9    4   14 1
    10    4    5 ar
    11    5    6 ar
    12    5    9 1
    13    6    7 ar
    14    6   27 1
    15    7    8 1
    16    9   10 2
    17    9   11 1
    18   11   12 1
    19   11   13 1
    20   11   15 1
    21   13   14 1
    22   13   28 1
    23   13   29 1
    24   15   20 1
    25   15   16 1
    26   15   44 1
    27   16   17 1
    28   16   30 1
    29   16   31 1
    30   17   18 1
    31   17   32 1
    32   17   33 1
    33   18   19 1
    34   18   34 1
    35   18   35 1
    36   19   20 1
    37   19   36 1
    38   19   37 1
    39   20   21 1
    40   20   22 1
    41   22   38 1
    42   22   39 1
    43   22   40 1
    44   23   41 1
    45   23   42 1
    46   23   43 1
@<TRIPOS>MOLECULE
ZINC37520155
   57    59     0     0     0
SMALL
USER_CHARGES

@<TRIPOS>ATOM
      1 C1         -0.4477    0.3693   -0.3674 C.3       1 <0>        -0.1290
      2 C2         -0.1770   -1.0086    0.1794 C.ar      1 <0>        -0.0612
      3 C3         -0.1363   -2.0954   -0.6744 C.ar      1 <0>        -0.1127
      4 C4          0.1120   -3.3592   -0.1729 C.ar      1 <0>        -0.0778
      5 C5          0.3201   -3.5366    1.1823 C.ar      1 <0>        -0.1174
      6 C6          0.2803   -2.4501    2.0357 C.ar      1 <0>        -0.0891
      7 C7          0.0362   -1.1853    1.5335 C.ar      1 <0>        -0.1641
      8 C8         -0.0020    0.0001    2.4632 C.3       1 <0>         0.0385
      9 N1         -1.3987    0.3411    2.7649 N.4       1 <0>        -0.3865
     10 C9         -2.0198   -0.7539    3.5262 C.3       1 <0>        -0.0235
     11 C10        -3.5263   -0.5017    3.6126 C.3       1 <0>         0.0875
     12 N2         -3.7765    0.8569    4.0874 N.am      1 <0>        -0.5619
     13 C11        -2.8407    1.8127    4.0636 C.2       1 <0>         0.5026
     14 O1         -3.1329    2.9230    4.4544 O.2       1 <0>        -0.4687
     15 C12        -1.4423    1.5663    3.5727 C.3       1 <0>         0.0199
     16 H1         -0.7731    1.4602    4.4265 H         1 <0>         0.1692
     17 C13        -0.9878    2.7525    2.7200 C.3       1 <0>        -0.1747
     18 C14        -5.0453    1.1712    4.5866 C.ar      1 <0>         0.0991
     19 C15        -6.0354    1.6335    3.7295 C.ar      1 <0>        -0.0975
     20 C16        -7.2868    1.9429    4.2253 C.ar      1 <0>        -0.1049
     21 C17        -7.5542    1.7933    5.5737 C.ar      1 <0>        -0.0430
     22 C18        -6.5704    1.3336    6.4299 C.ar      1 <0>        -0.1104
     23 C19        -5.3190    1.0162    5.9392 C.ar      1 <0>        -0.0974
     24 C20        -8.9206    2.1323    6.1114 C.3       1 <0>        -0.0354
     25 C21        -9.9704    1.2555    5.4258 C.3       1 <0>        -0.1408
     26 C22        -8.9519    1.8801    7.6201 C.3       1 <0>        -0.1487
     27 C23        -9.2266    3.6055    5.8341 C.3       1 <0>        -0.1418
     28 H2          0.4951    0.8440   -0.6393 H         1 <0>         0.0918
     29 H3         -1.0832    0.2918   -1.2495 H         1 <0>         0.0872
     30 H4         -0.9508    0.9689    0.3913 H         1 <0>         0.0458
     31 H5         -0.2988   -1.9568   -1.7330 H         1 <0>         0.1366
     32 H6          0.1431   -4.2082   -0.8397 H         1 <0>         0.1371
     33 H7          0.5134   -4.5242    1.5742 H         1 <0>         0.1372
     34 H8          0.4425   -2.5887    3.0944 H         1 <0>         0.1336
     35 H9          0.5196   -0.2464    3.3880 H         1 <0>         0.1416
     36 H10         0.4850    0.8511    1.9871 H         1 <0>         0.1426
     37 H11        -1.8365   -1.7013    3.0192 H         1 <0>         0.1552
     38 H12        -1.5967   -0.7867    4.5302 H         1 <0>         0.1425
     39 H13        -3.9718   -0.6282    2.6259 H         1 <0>         0.0990
     40 H14        -3.9737   -1.2153    4.3046 H         1 <0>         0.1285
     41 H15        -1.6511    2.8583    1.8616 H         1 <0>         0.0852
     42 H16        -1.0195    3.6632    3.3180 H         1 <0>         0.1225
     43 H17         0.0312    2.5811    2.3728 H         1 <0>         0.0954
     44 H18        -5.8269    1.7512    2.6763 H         1 <0>         0.1228
     45 H19        -8.0571    2.3024    3.5592 H         1 <0>         0.1322
     46 H20        -6.7822    1.2185    7.4827 H         1 <0>         0.1380
     47 H21        -4.5525    0.6527    6.6076 H         1 <0>         0.1242
     48 H22        -9.7524    0.2059    5.6234 H         1 <0>         0.0576
     49 H23       -10.9587    1.5007    5.8147 H         1 <0>         0.0651
     50 H24        -9.9481    1.4352    4.3510 H         1 <0>         0.0579
     51 H25        -8.2040    2.5047    8.1086 H         1 <0>         0.0602
     52 H26        -9.9402    2.1253    8.0090 H         1 <0>         0.0650
     53 H27        -8.7339    0.8306    7.8177 H         1 <0>         0.0599
     54 H28        -9.2043    3.7852    4.7592 H         1 <0>         0.0579
     55 H29       -10.2149    3.8507    6.2230 H         1 <0>         0.0652
     56 H30        -8.4787    4.2301    6.3225 H         1 <0>         0.0582
     57 H31        -1.9047    0.4857    1.9040 H         1 <0>         0.4236
@<TRIPOS>BOND
     1    1    2 1
     2    1   28 1
     3    1   29 1
     4    1   30 1
     5    2    7 ar
     6    2    3 ar
     7    3    4 ar
     8    3   31 1
     9    4    5 ar
    10    4   32 1
    11    5    6 ar
    12    5   33 1
    13    6    7 ar
    14    6   34 1
    15    7    8 1
    16    8    9 1
    17    8   35 1
    18    8   36 1
    19    9   15 1
    20    9   10 1
    21    9   57 1
    22   10   11 1
    23   10   37 1
    24   10   38 1
    25   11   12 1
    26   11   39 1
    27   11   40 1
    28   12   13 am
    29   12   18 1
    30   13   14 2
    31   13   15 1
    32   15   16 1
    33   15   17 1
    34   17   41 1
    35   17   42 1
    36   17   43 1
    37   18   23 ar
    38   18   19 ar
    39   19   20 ar
    40   19   44 1
    41   20   21 ar
    42   20   45 1
    43   21   22 ar
    44   21   24 1
    45   22   23 ar
    46   22   46 1
    47   23   47 1
    48   24   25 1
    49   24   26 1
    50   24   27 1
    51   25   48 1
    52   25   49 1
    53   25   50 1
    54   26   51 1
    55   26   52 1
    56   26   53 1
    57   27   54 1
    58   27   55 1
    59   27   56 1
@<TRIPOS>MOLECULE
ZINC43611724
   58    62     0     0     0
SMALL
USER_CHARGES

@<TRIPOS>ATOM
      1 C1         -0.0187    1.5255    0.0104 C.3       1 <0>        -0.1372
      2 C2          1.4263    2.0354   -0.0006 C.3       1 <0>        -0.1461
      3 C3          2.1352    1.4818   -1.2364 C.3       1 <0>        -0.0069
      4 N1          2.1461    0.0119   -1.1985 N.4       1 <0>        -0.3758
      5 C4          2.8903   -0.4676   -2.3727 C.3       1 <0>        -0.0095
      6 C5          2.9872   -1.9927   -2.3481 C.3       1 <0>        -0.1443
      7 C6          1.5718   -2.5789   -2.3802 C.3       1 <0>        -0.1328
      8 C7          0.7902   -2.0373   -1.1820 C.3       1 <0>        -0.1032
      9 H1          1.2649   -2.3704   -0.2591 H         1 <0>         0.1068
     10 C8          0.7745   -0.5055   -1.2227 C.3       1 <0>         0.0368
     11 H2          0.2753   -0.1708   -2.1320 H         1 <0>         0.1389
     12 C9          0.0021   -0.0041    0.0020 C.3       1 <0>        -0.1476
     13 C10        -0.6464   -2.5610   -1.2330 C.3       1 <0>         0.0675
     14 O1         -0.6418   -3.9809   -1.0715 O.3       1 <0>        -0.3456
     15 C11        -1.8323   -4.6005   -1.0927 C.2       1 <0>         0.4772
     16 O2         -2.8449   -3.9586   -1.2433 O.2       1 <0>        -0.4907
     17 C12        -1.9061   -6.0967   -0.9286 C.3       1 <0>        -0.0376
     18 C13        -1.3079   -6.4917    0.4231 C.3       1 <0>        -0.1041
     19 C14        -1.3828   -8.0107    0.5896 C.3       1 <0>        -0.0824
     20 H3         -0.9566   -8.2921    1.5526 H         1 <0>         0.0899
     21 C15        -2.8443   -8.4591    0.5282 C.3       1 <0>        -0.1179
     22 C16        -3.4425   -8.0641   -0.8235 C.3       1 <0>        -0.0836
     23 H4         -4.4838   -8.3835   -0.8672 H         1 <0>         0.0914
     24 C17        -3.3677   -6.5451   -0.9900 C.3       1 <0>        -0.0987
     25 C18        -2.6541   -8.7399   -1.9471 C.3       1 <0>        -0.1164
     26 C19        -1.1926   -8.2915   -1.8857 C.3       1 <0>         0.0364
     27 C20        -0.5944   -8.6865   -0.5340 C.3       1 <0>        -0.1135
     28 C21        -1.1177   -6.7725   -2.0523 C.3       1 <0>        -0.1024
     29 Cl1        -0.2635   -9.0879   -3.2099 Cl        1 <0>        -0.1717
     30 H5         -0.5246    1.8794    0.9087 H         1 <0>         0.0967
     31 H6         -0.5416    1.8890   -0.8741 H         1 <0>         0.0828
     32 H7          1.4289    3.1249   -0.0354 H         1 <0>         0.1137
     33 H8          1.9405    1.6956    0.8984 H         1 <0>         0.0884
     34 H9          1.6129    1.8162   -2.1327 H         1 <0>         0.1281
     35 H10         3.1608    1.8502   -1.2598 H         1 <0>         0.1323
     36 H11         2.3751   -0.1529   -3.2802 H         1 <0>         0.1282
     37 H12         3.8936   -0.0416   -2.3632 H         1 <0>         0.1327
     38 H13         3.5451   -2.3374   -3.2187 H         1 <0>         0.1157
     39 H14         3.4941   -2.3118   -1.4374 H         1 <0>         0.0895
     40 H15         1.0749   -2.2842   -3.3045 H         1 <0>         0.0827
     41 H16         1.6248   -3.6660   -2.3212 H         1 <0>         0.1031
     42 H17         0.4870   -0.3649    0.9090 H         1 <0>         0.0908
     43 H18        -1.0203   -0.3802   -0.0354 H         1 <0>         0.1122
     44 H19        -1.2277   -2.1061   -0.4309 H         1 <0>         0.0810
     45 H20        -1.0922   -2.3061   -2.1944 H         1 <0>         0.0784
     46 H21        -0.2666   -6.1723    0.4668 H         1 <0>         0.0787
     47 H22        -1.8695   -6.0102    1.2236 H         1 <0>         0.0746
     48 H23        -2.8977   -9.5413    0.6469 H         1 <0>         0.0747
     49 H24        -3.4060   -7.9776    1.3287 H         1 <0>         0.0721
     50 H25        -3.9293   -6.0636   -0.1895 H         1 <0>         0.0794
     51 H26        -3.7939   -6.2637   -1.9530 H         1 <0>         0.0772
     52 H27        -2.7075   -9.8221   -1.8285 H         1 <0>         0.0831
     53 H28        -3.0803   -8.4585   -2.9101 H         1 <0>         0.0782
     54 H29         0.4469   -8.3671   -0.4903 H         1 <0>         0.0774
     55 H30        -0.6477   -9.7687   -0.4154 H         1 <0>         0.0828
     56 H31        -1.5439   -6.4911   -3.0153 H         1 <0>         0.0804
     57 H32        -0.0765   -6.4531   -2.0085 H         1 <0>         0.0866
     58 H33         2.6082   -0.2995   -0.3573 H         1 <0>         0.4213
@<TRIPOS>BOND
     1    1   12 1
     2    1    2 1
     3    1   30 1
     4    1   31 1
     5    2    3 1
     6    2   32 1
     7    2   33 1
     8    3    4 1
     9    3   34 1
    10    3   35 1
    11    4   10 1
    12    4    5 1
    13    4   58 1
    14    5    6 1
    15    5   36 1
    16    5   37 1
    17    6    7 1
    18    6   38 1
    19    6   39 1
    20    7    8 1
    21    7   40 1
    22    7   41 1
    23    8    9 1
    24    8   10 1
    25    8   13 1
    26   10   11 1
    27   10   12 1
    28   12   42 1
    29   12   43 1
    30   13   14 1
    31   13   44 1
    32   13   45 1
    33   14   15 1
    34   15   16 2
    35   15   17 1
    36   17   24 1
    37   17   28 1
    38   17   18 1
    39   18   19 1
    40   18   46 1
    41   18   47 1
    42   19   20 1
    43   19   27 1
    44   19   21 1
    45   21   22 1
    46   21   48 1
    47   21   49 1
    48   22   23 1
    49   22   24 1
    50   22   25 1
    51   24   50 1
    52   24   51 1
    53   25   26 1
    54   25   52 1
    55   25   53 1
    56   26   27 1
    57   26   28 1
    58   26   29 1
    59   27   54 1
    60   27   55 1
    61   28   56 1
    62   28   57 1
@<TRIPOS>MOLECULE
ZINC63339779
   50    53     0     0     0
SMALL
USER_CHARGES

@<TRIPOS>ATOM
      1 C1         -0.0187    1.5258    0.0104 C.3       1 <0>        -0.1529
      2 C2          0.0021   -0.0041    0.0020 C.3       1 <0>        -0.1332
      3 C3         -1.4333   -0.5336    0.0129 C.3       1 <0>        -0.1040
      4 C4         -1.4126   -2.0635    0.0045 C.3       1 <0>        -0.1058
      5 H1         -0.8262   -2.4139   -0.8450 H         1 <0>         0.1183
      6 C5         -2.8460   -2.5926   -0.1119 C.3       1 <0>        -0.1208
      7 C6         -3.5551   -2.2875    1.2130 C.3       1 <0>        -0.1369
      8 C7         -2.9382   -3.1436    2.3175 C.3       1 <0>         0.1872
      9 C8         -3.4870   -2.6815    3.6674 C.3       1 <0>         0.0848
     10 H2         -3.4586   -3.4976    4.3893 H         1 <0>         0.1725
     11 C9         -2.6752   -1.5047    4.1661 C.2       1 <0>         0.0946
     12 C10        -3.5228   -0.4714    4.2359 C.ar      1 <0>        -0.1838
     13 C11        -3.3149    0.9261    4.6451 C.ar      1 <0>         0.0060
     14 C12        -4.4116    1.7292    4.6054 C.ar      1 <0>        -0.1630
     15 C13        -5.6750    1.2850    4.2030 C.ar      1 <0>         0.0562
     16 C14        -5.9544    0.0169    3.8088 C.ar      1 <0>        -0.2077
     17 C15        -4.8799   -0.9207    3.8089 C.ar      1 <0>         0.3346
     18 N1         -4.8661   -2.1975    3.4913 N.pl3     1 <0>        -0.5881
     19 C16        -1.2179   -1.5311    4.5195 C.3       1 <0>        -0.0872
     20 C17        -0.7287   -2.9599    4.6745 C.3       1 <0>        -0.1399
     21 C18        -0.7058   -3.7242    3.3812 C.3       1 <0>         0.0896
     22 N2         -1.4883   -3.1049    2.2968 N.am      1 <0>        -0.6049
     23 C19        -0.7960   -2.5606    1.2747 C.2       1 <0>         0.5239
     24 O1          0.4074   -2.4680    1.3933 O.2       1 <0>        -0.5109
     25 C20        -3.3828   -4.5921    2.1056 C.3       1 <0>        -0.1763
     26 H3          1.0039    1.9031    0.0027 H         1 <0>         0.0597
     27 H4         -0.5459    1.8868   -0.8726 H         1 <0>         0.0553
     28 H5         -0.5289    1.8773    0.9072 H         1 <0>         0.0482
     29 H6          0.5123   -0.3556   -0.8948 H         1 <0>         0.0684
     30 H7          0.5293   -0.3651    0.8851 H         1 <0>         0.0753
     31 H8         -1.9435   -0.1821    0.9097 H         1 <0>         0.0566
     32 H9         -1.9605   -0.1726   -0.8702 H         1 <0>         0.0814
     33 H10        -3.3607   -2.0915   -0.9318 H         1 <0>         0.0927
     34 H11        -2.8310   -3.6687   -0.2851 H         1 <0>         0.0839
     35 H12        -3.4320   -1.2325    1.4578 H         1 <0>         0.0770
     36 H13        -4.6159   -2.5203    1.1208 H         1 <0>         0.0904
     37 H14        -2.3486    1.2925    4.9589 H         1 <0>         0.1683
     38 H15        -4.3013    2.7624    4.8999 H         1 <0>         0.1545
     39 H16        -6.4842    2.0002    4.2065 H         1 <0>         0.1573
     40 H17        -6.9505   -0.2706    3.5065 H         1 <0>         0.1683
     41 H18        -0.6482   -1.0402    3.7305 H         1 <0>         0.1246
     42 H19        -1.0662   -0.9961    5.4570 H         1 <0>         0.1213
     43 H20         0.2798   -2.9414    5.0877 H         1 <0>         0.1033
     44 H21        -1.3818   -3.4791    5.3760 H         1 <0>         0.0742
     45 H22         0.3290   -3.8096    3.0497 H         1 <0>         0.1111
     46 H23        -1.0880   -4.7279    3.5673 H         1 <0>         0.0822
     47 H24        -3.0418   -4.9378    1.1297 H         1 <0>         0.0878
     48 H25        -2.9530   -5.2218    2.8846 H         1 <0>         0.0770
     49 H26        -4.4704   -4.6488    2.1515 H         1 <0>         0.0726
     50 H27        -5.6195   -2.7293    3.1905 H         1 <0>         0.4560
@<TRIPOS>BOND
     1    1    2 1
     2    1   26 1
     3    1   27 1
     4    1   28 1
     5    2    3 1
     6    2   29 1
     7    2   30 1
     8    3    4 1
     9    3   31 1
    10    3   32 1
    11    4    5 1
    12    4   23 1
    13    4    6 1
    14    6    7 1
    15    6   33 1
    16    6   34 1
    17    7    8 1
    18    7   35 1
    19    7   36 1
    20    8   22 1
    21    8    9 1
    22    8   25 1
    23    9   10 1
    24    9   18 1
    25    9   11 1
    26   11   12 2
    27   11   19 1
    28   12   17 ar
    29   12   13 ar
    30   13   14 ar
    31   13   37 1
    32   14   15 ar
    33   14   38 1
    34   15   16 ar
    35   15   39 1
    36   16   17 ar
    37   16   40 1
    38   17   18 2
    39   18   50 1
    40   19   20 1
    41   19   41 1
    42   19   42 1
    43   20   21 1
    44   20   43 1
    45   20   44 1
    46   21   22 1
    47   21   45 1
    48   21   46 1
    49   22   23 am
    50   23   24 2
    51   25   47 1
    52   25   48 1
    53   25   49 1
@<TRIPOS>MOLECULE
ZINC01452612
   39    40     0     0     0
SMALL
USER_CHARGES
3-methyl-N-[2,2,2-trichloro-1-(3-nitrophenyl)amino-ethyl]-benzamide
@<TRIPOS>ATOM
      1 C1          5.0068    6.4271   -6.2181 C.3       1 <0>        -0.1183
      2 C2          3.9417    6.9663   -5.2985 C.ar      1 <0>        -0.0911
      3 C3          3.2245    8.0936   -5.6587 C.ar      1 <0>        -0.0877
      4 C4          2.2454    8.5953   -4.8201 C.ar      1 <0>        -0.1207
      5 C5          1.9780    7.9739   -3.6175 C.ar      1 <0>        -0.0896
      6 C6          2.6976    6.8366   -3.2482 C.ar      1 <0>        -0.1375
      7 C7          3.6876    6.3384   -4.0969 C.ar      1 <0>        -0.0551
      8 C8          2.4168    6.1659   -1.9609 C.2       1 <0>         0.5787
      9 O1          3.0451    5.1755   -1.6418 O.2       1 <0>        -0.5213
     10 N1          1.4641    6.6527   -1.1412 N.am      1 <0>        -0.7316
     11 C9          1.1858    5.9881    0.1344 C.3       1 <0>         0.3707
     12 H1          1.9995    5.3029    0.3722 H         1 <0>         0.1580
     13 C10         1.0636    7.0381    1.2405 C.3       1 <0>         0.1067
     14 Cl1         0.7211    6.2203    2.8104 Cl        1 <0>        -0.0555
     15 Cl2         2.6079    7.9599    1.3674 Cl        1 <0>        -0.0583
     16 Cl3        -0.2823    8.1716    0.8472 Cl        1 <0>        -0.0797
     17 N2         -0.0690    5.2392    0.0313 N.pl3     1 <0>        -0.7356
     18 C11        -0.0445    3.8465   -0.0733 C.ar      1 <0>         0.2115
     19 C12         1.1669    3.1796   -0.2070 C.ar      1 <0>        -0.1356
     20 C13         1.1875    1.8027   -0.3097 C.ar      1 <0>        -0.0679
     21 C14         0.0040    1.0876   -0.2796 C.ar      1 <0>        -0.0996
     22 C15        -1.2037    1.7486   -0.1524 C.ar      1 <0>        -0.0001
     23 C16        -1.2311    3.1253   -0.0434 C.ar      1 <0>        -0.1219
     24 N3         -2.4681    0.9798   -0.1273 N.pl3     1 <0>         0.0263
     25 O2         -2.4443   -0.2346   -0.2186 O.2       1 <0>        -0.1538
     26 O3         -3.5324    1.5614   -0.0152 O.3       1 <0>        -0.1584
     27 H2          5.9636    6.8903   -5.9769 H         1 <0>         0.0752
     28 H3          5.0837    5.3472   -6.0913 H         1 <0>         0.0708
     29 H4          4.7436    6.6538   -7.2513 H         1 <0>         0.0707
     30 H5          3.4304    8.5842   -6.5986 H         1 <0>         0.1303
     31 H6          1.6893    9.4755   -5.1072 H         1 <0>         0.1322
     32 H7          1.2138    8.3669   -2.9634 H         1 <0>         0.1233
     33 H8          4.2511    5.4612   -3.8149 H         1 <0>         0.1382
     34 H9          0.9627    7.4431   -1.3958 H         1 <0>         0.4066
     35 H10        -0.9169    5.7104    0.0357 H         1 <0>         0.4101
     36 H11         2.0914    3.7373   -0.2302 H         1 <0>         0.1529
     37 H12         2.1289    1.2836   -0.4133 H         1 <0>         0.1509
     38 H13         0.0230    0.0108   -0.3601 H         1 <0>         0.1534
     39 H14        -2.1745    3.6407    0.0604 H         1 <0>         0.1530
@<TRIPOS>BOND
     1    1    2 1
     2    1   27 1
     3    1   28 1
     4    1   29 1
     5    2    7 ar
     6    2    3 ar
     7    3    4 ar
     8    3   30 1
     9    4    5 ar
    10    4   31 1
    11    5    6 ar
    12    5   32 1
    13    6    7 ar
    14    6    8 1
    15    7   33 1
    16    8    9 2
    17    8   10 am
    18   10   11 1
    19   10   34 1
    20   11   12 1
    21   11   13 1
    22   11   17 1
    23   13   14 1
    24   13   15 1
    25   13   16 1
    26   17   18 1
    27   17   35 1
    28   18   23 ar
    29   18   19 ar
    30   19   20 ar
    31   19   36 1
    32   20   21 ar
    33   20   37 1
    34   21   22 ar
    35   21   38 1
    36   22   23 ar
    37   22   24 1
    38   23   39 1
    39   24   25 2
    40   24   26 1
@<TRIPOS>MOLECULE
ZINC01246122
   40    42     0     0     0
SMALL
USER_CHARGES
4-[(5-bromo-2-hydroxy-phenyl)methyleneamino]-5-(3-ethoxyphenyl)-2H-1,2,4-triazole-3-thione
@<TRIPOS>ATOM
      1 C1          3.7281   -0.8784   -0.0369 C.3       1 <0>        -0.1545
      2 C2          2.3078   -0.3098   -0.0207 C.3       1 <0>         0.0528
      3 O1          2.3663    1.1180   -0.0141 O.3       1 <0>        -0.3104
      4 C3          1.1818    1.7840    0.0004 C.ar      1 <0>         0.1359
      5 C4         -0.0126    1.0758    0.0080 C.ar      1 <0>        -0.1796
      6 C5         -1.2203    1.7483    0.0174 C.ar      1 <0>        -0.0746
      7 C6         -1.2464    3.1282    0.0308 C.ar      1 <0>        -0.1297
      8 C7         -0.0514    3.8480    0.0232 C.ar      1 <0>        -0.0075
      9 C8          1.1663    3.1685    0.0079 C.ar      1 <0>        -0.1006
     10 C9         -0.0758    5.3275    0.0319 C.2       1 <0>         0.3275
     11 N1          0.9311    6.1077   -0.2475 N.2       1 <0>        -0.2562
     12 N2          0.4983    7.4352   -0.1259 N.pl3     1 <0>        -0.4668
     13 H1          1.0354    8.2292   -0.2740 H         1 <0>         0.4731
     14 C10        -0.8009    7.4075    0.2355 C.2       1 <0>         0.4717
     15 S1         -1.8013    8.7685    0.5146 S.2       1 <0>        -0.5506
     16 N3         -1.1711    6.1150    0.3316 N.pl3     1 <0>        -0.3660
     17 N4         -2.4461    5.6499    0.6790 N.2       1 <0>        -0.2092
     18 C11        -2.7410    5.4333    1.9249 C.2       1 <0>         0.2079
     19 C12        -4.0819    4.9441    2.2903 C.ar      1 <0>        -0.1074
     20 C13        -4.4033    4.7098    3.6295 C.ar      1 <0>        -0.0257
     21 C14        -5.6609    4.2522    3.9647 C.ar      1 <0>        -0.1120
     22 C15        -6.6066    4.0238    2.9784 C.ar      1 <0>        -0.0387
     23 C16        -6.3005    4.2524    1.6503 C.ar      1 <0>        -0.1478
     24 C17        -5.0441    4.7169    1.2967 C.ar      1 <0>         0.1844
     25 O2         -4.7443    4.9463   -0.0079 O.3       1 <0>        -0.4680
     26 Br1        -6.0954    3.9352    5.7776 Br        1 <0>        -0.0311
     27 H2          4.2481   -0.5319   -0.9300 H         1 <0>         0.0684
     28 H3          4.2647   -0.5409    0.8498 H         1 <0>         0.0681
     29 H4          3.6835   -1.9675   -0.0420 H         1 <0>         0.0816
     30 H5          1.7879   -0.6563    0.8724 H         1 <0>         0.0653
     31 H6          1.7712   -0.6473   -0.9074 H         1 <0>         0.0656
     32 H7          0.0021   -0.0041    0.0020 H         1 <0>         0.1380
     33 H8         -2.1461    1.1922    0.0184 H         1 <0>         0.1383
     34 H9         -2.1917    3.6505    0.0426 H         1 <0>         0.1362
     35 H10         2.0946    3.7206    0.0017 H         1 <0>         0.1469
     36 H11        -2.0033    5.6116    2.6933 H         1 <0>         0.1361
     37 H12        -3.6684    4.8861    4.4010 H         1 <0>         0.1473
     38 H13        -7.5888    3.6652    3.2489 H         1 <0>         0.1458
     39 H14        -7.0432    4.0726    0.8872 H         1 <0>         0.1494
     40 H15        -4.3762    4.1793   -0.4675 H         1 <0>         0.3963
@<TRIPOS>BOND
     1    1    2 1
     2    1   27 1
     3    1   28 1
     4    1   29 1
     5    2    3 1
     6    2   30 1
     7    2   31 1
     8    3    4 1
     9    4    9 ar
    10    4    5 ar
    11    5    6 ar
    12    5   32 1
    13    6    7 ar
    14    6   33 1
    15    7    8 ar
    16    7   34 1
    17    8    9 ar
    18    8   10 1
    19    9   35 1
    20   10   16 1
    21   10   11 2
    22   11   12 1
    23   12   13 1
    24   12   14 1
    25   14   15 2
    26   14   16 1
    27   16   17 1
    28   17   18 2
    29   18   19 1
    30   18   36 1
    31   19   24 ar
    32   19   20 ar
    33   20   21 ar
    34   20   37 1
    35   21   22 ar
    36   21   26 1
    37   22   23 ar
    38   22   38 1
    39   23   24 ar
    40   23   39 1
    41   24   25 1
    42   25   40 1
@<TRIPOS>MOLECULE
ZINC20571079
   50    53     0     0     0
SMALL
USER_CHARGES
4-(benzenesulfonamido)-N-[(6S)-6-methyl-4,5,6,7-tetrahydro-1,3-benzothiazol-2-yl]benzamide
@<TRIPOS>ATOM
      1 C1          1.1521    0.2964    1.7422 C.3       1 <0>        -0.1494
      2 C2          0.1705    0.6003    0.6086 C.3       1 <0>        -0.0862
      3 H1         -0.7489    0.0177    0.7680 H         1 <0>         0.0780
      4 C3         -0.1573    2.0963    0.5990 C.3       1 <0>        -0.1164
      5 C4         -1.3146    2.3760   -0.3614 C.3       1 <0>        -0.0429
      6 C5         -0.9798    1.7737   -1.7210 C.2       1 <0>         0.0928
      7 C6         -0.0212    0.8171   -1.8285 C.2       1 <0>        -0.2058
      8 S1         -0.0160    0.4647   -3.5656 S.3       1 <0>         0.0509
      9 C7         -1.2629    1.5900   -4.0144 C.2       1 <0>         0.3135
     10 N1         -1.5783    2.1295   -2.8550 N.2       1 <0>        -0.5153
     11 N2         -1.7909    1.8523   -5.2720 N.am      1 <0>        -0.6312
     12 C8         -2.7648    2.7728   -5.4154 C.2       1 <0>         0.5567
     13 O1         -3.1813    3.3738   -4.4437 O.2       1 <0>        -0.4644
     14 C9         -3.3255    3.0514   -6.7507 C.ar      1 <0>        -0.1252
     15 C10        -2.8437    2.3655   -7.8697 C.ar      1 <0>        -0.0800
     16 C11        -3.3723    2.6242   -9.1136 C.ar      1 <0>        -0.1184
     17 C12        -4.3783    3.5754   -9.2600 C.ar      1 <0>         0.1592
     18 C13        -4.8565    4.2639   -8.1484 C.ar      1 <0>        -0.1113
     19 C14        -4.3359    4.0060   -6.9011 C.ar      1 <0>        -0.0445
     20 N3         -4.9069    3.8380  -10.5190 N.pl3     1 <0>        -1.0792
     21 S2         -4.5000    5.2329  -11.3134 S.o2      1 <0>         2.6905
     22 O2         -5.1467    5.1837  -12.5777 O.2       1 <0>        -0.9501
     23 O3         -4.7033    6.2976  -10.3946 O.2       1 <0>        -0.9459
     24 C15        -2.7681    5.1654  -11.6307 C.ar      1 <0>        -0.6772
     25 C16        -1.8732    5.6244  -10.6822 C.ar      1 <0>        -0.0168
     26 C17        -0.5143    5.5666  -10.9290 C.ar      1 <0>        -0.1391
     27 C18        -0.0507    5.0599  -12.1287 C.ar      1 <0>        -0.0601
     28 C19        -0.9457    4.6062  -13.0794 C.ar      1 <0>        -0.1402
     29 C20        -2.3044    4.6587  -12.8303 C.ar      1 <0>        -0.0193
     30 C21         0.8078    0.2263   -0.7392 C.3       1 <0>        -0.0261
     31 H2          0.6941    0.5648    2.7056 H         1 <0>         0.0606
     32 H3          2.0719    0.8822    1.5977 H         1 <0>         0.0576
     33 H4          1.3960   -0.7762    1.7383 H         1 <0>         0.0582
     34 H5         -0.4442    2.4153    1.6119 H         1 <0>         0.0768
     35 H6          0.7270    2.6634    0.2728 H         1 <0>         0.0680
     36 H7         -2.2355    1.9207    0.0318 H         1 <0>         0.0830
     37 H8         -1.4555    3.4625   -0.4592 H         1 <0>         0.0851
     38 H9         -1.4142    1.3087   -6.1510 H         1 <0>         0.4496
     39 H10        -2.0605    1.6304   -7.7574 H         1 <0>         0.1308
     40 H11        -3.0037    2.0915   -9.9778 H         1 <0>         0.1383
     41 H12        -5.6368    5.0014   -8.2653 H         1 <0>         0.1463
     42 H13        -4.7075    4.5402   -6.0392 H         1 <0>         0.1468
     43 H14        -5.5954    3.1192  -10.9873 H         1 <0>         0.4568
     44 H15        -2.2357    6.0243   -9.7468 H         1 <0>         0.1379
     45 H16         0.1850    5.9207  -10.1861 H         1 <0>         0.1336
     46 H17         1.0109    5.0182  -12.3230 H         1 <0>         0.1323
     47 H18        -0.5835    4.2103  -14.0167 H         1 <0>         0.1345
     48 H19        -3.0037    4.3043  -13.5731 H         1 <0>         0.1414
     49 H20         1.8313    0.6267   -0.7845 H         1 <0>         0.0843
     50 H21         0.8377   -0.8687   -0.8394 H         1 <0>         0.0814
@<TRIPOS>BOND
     1    1    2 1
     2    1   31 1
     3    1   32 1
     4    1   33 1
     5    2    3 1
     6    2   30 1
     7    2    4 1
     8    4    5 1
     9    4   34 1
    10    4   35 1
    11    5    6 1
    12    5   36 1
    13    5   37 1
    14    6   10 1
    15    6    7 2
    16    7    8 1
    17    7   30 1
    18    8    9 1
    19    9   10 2
    20    9   11 1
    21   11   12 am
    22   11   38 1
    23   12   13 2
    24   12   14 1
    25   14   19 ar
    26   14   15 ar
    27   15   16 ar
    28   15   39 1
    29   16   17 ar
    30   16   40 1
    31   17   18 ar
    32   17   20 1
    33   18   19 ar
    34   18   41 1
    35   19   42 1
    36   20   21 1
    37   20   43 1
    38   21   22 2
    39   21   23 2
    40   21   24 1
    41   24   29 ar
    42   24   25 ar
    43   25   26 ar
    44   25   44 1
    45   26   27 ar
    46   26   45 1
    47   27   28 ar
    48   27   46 1
    49   28   29 ar
    50   28   47 1
    51   29   48 1
    52   30   49 1
    53   30   50 1
@<TRIPOS>MOLECULE
ZINC39920717
   53    56     0     0     0
SMALL
USER_CHARGES

@<TRIPOS>ATOM
      1 C1         -0.4337    1.4974   -0.0843 C.3       1 <0>        -0.1192
      2 C2         -0.4688   -0.0091   -0.1000 C.ar      1 <0>        -0.0730
      3 C3         -0.7010   -0.6828   -1.2846 C.ar      1 <0>        -0.1196
      4 C4         -0.7332   -2.0647   -1.2990 C.ar      1 <0>        -0.0814
      5 C5         -0.5328   -2.7729   -0.1289 C.ar      1 <0>        -0.1342
      6 C6         -0.2998   -2.0993    1.0555 C.ar      1 <0>        -0.0932
      7 C7         -0.2633   -0.7175    1.0691 C.ar      1 <0>        -0.1193
      8 C8         -0.5689   -4.2794   -0.1444 C.3       1 <0>         0.4332
      9 H1         -1.5887   -4.6179    0.0386 H         1 <0>         0.1170
     10 N1         -0.1246   -4.7627   -1.4574 N.pl3     1 <0>        -0.7395
     11 C9          1.2338   -4.7317   -1.7515 C.ar      1 <0>         0.2352
     12 C10         1.7002   -4.5737   -3.0451 C.ar      1 <0>        -0.1786
     13 C11         3.0612   -4.5467   -3.2825 C.ar      1 <0>        -0.0502
     14 C12         3.9617   -4.6760   -2.2366 C.ar      1 <0>        -0.1675
     15 C13         3.5133   -4.8354   -0.9417 C.ar      1 <0>        -0.0190
     16 C14         2.1444   -4.8662   -0.6884 C.ar      1 <0>        -0.1891
     17 C15         1.6109   -5.0432    0.6744 C.2       1 <0>         0.5827
     18 O1          2.3392   -5.4079    1.5773 O.2       1 <0>        -0.5133
     19 N2          0.3085   -4.7957    0.9060 N.am      1 <0>        -0.4148
     20 N3         -0.2156   -5.0372    2.1827 N.am      1 <0>        -0.5171
     21 C16        -0.4520   -6.3013    2.5860 C.2       1 <0>         0.5221
     22 O2         -0.2112   -7.2297    1.8438 O.2       1 <0>        -0.4874
     23 C17        -1.0157   -6.5610    3.9593 C.3       1 <0>         0.0787
     24 H2         -0.3789   -6.0905    4.7084 H         1 <0>         0.1051
     25 C18        -2.4270   -5.9770    4.0501 C.3       1 <0>        -0.1784
     26 O3         -1.0671   -7.9696    4.1945 O.3       1 <0>        -0.2843
     27 C19        -1.0422   -8.3801    5.4898 C.ar      1 <0>         0.1274
     28 C20        -0.9709   -9.7330    5.7886 C.ar      1 <0>        -0.1464
     29 C21        -0.9453  -10.1477    7.1061 C.ar      1 <0>        -0.0786
     30 C22        -0.9912   -9.2158    8.1265 C.ar      1 <0>        -0.1559
     31 C23        -1.0628   -7.8669    7.8313 C.ar      1 <0>        -0.0794
     32 C24        -1.0824   -7.4467    6.5154 C.ar      1 <0>        -0.2122
     33 H3          0.5843    1.8390   -0.2711 H         1 <0>         0.0734
     34 H4         -1.0949    1.8843   -0.8598 H         1 <0>         0.0687
     35 H5         -0.7653    1.8584    0.8892 H         1 <0>         0.0683
     36 H6         -0.8575   -0.1295   -2.1988 H         1 <0>         0.1257
     37 H7         -0.9153   -2.5910   -2.2243 H         1 <0>         0.1261
     38 H8         -0.1435   -2.6526    1.9697 H         1 <0>         0.1134
     39 H9         -0.0775   -0.1913    1.9938 H         1 <0>         0.1253
     40 H10        -0.7646   -5.0967   -2.1053 H         1 <0>         0.4183
     41 H11         1.0041   -4.4724   -3.8646 H         1 <0>         0.1319
     42 H12         3.4264   -4.4241   -4.2914 H         1 <0>         0.1309
     43 H13         5.0226   -4.6522   -2.4371 H         1 <0>         0.1308
     44 H14         4.2190   -4.9359   -0.1303 H         1 <0>         0.1358
     45 H15        -0.4082   -4.2946    2.7763 H         1 <0>         0.4154
     46 H16        -2.8347   -6.1649    5.0434 H         1 <0>         0.0830
     47 H17        -2.3878   -4.9026    3.8707 H         1 <0>         0.0800
     48 H18        -3.0638   -6.4475    3.3010 H         1 <0>         0.0785
     49 H19        -0.9357  -10.4613    4.9920 H         1 <0>         0.1325
     50 H20        -0.8897  -11.2008    7.3393 H         1 <0>         0.1313
     51 H21        -0.9715   -9.5420    9.1558 H         1 <0>         0.1253
     52 H22        -1.0989   -7.1409    8.6300 H         1 <0>         0.1264
     53 H23        -1.1339   -6.3928    6.2853 H         1 <0>         0.1290
@<TRIPOS>BOND
     1    1    2 1
     2    1   33 1
     3    1   34 1
     4    1   35 1
     5    2    7 ar
     6    2    3 ar
     7    3    4 ar
     8    3   36 1
     9    4    5 ar
    10    4   37 1
    11    5    6 ar
    12    5    8 1
    13    6    7 ar
    14    6   38 1
    15    7   39 1
    16    8    9 1
    17    8   19 1
    18    8   10 1
    19   10   11 1
    20   10   40 1
    21   11   16 ar
    22   11   12 ar
    23   12   13 ar
    24   12   41 1
    25   13   14 ar
    26   13   42 1
    27   14   15 ar
    28   14   43 1
    29   15   16 ar
    30   15   44 1
    31   16   17 1
    32   17   18 2
    33   17   19 am
    34   19   20 1
    35   20   21 am
    36   20   45 1
    37   21   22 2
    38   21   23 1
    39   23   24 1
    40   23   25 1
    41   23   26 1
    42   25   46 1
    43   25   47 1
    44   25   48 1
    45   26   27 1
    46   27   32 ar
    47   27   28 ar
    48   28   29 ar
    49   28   49 1
    50   29   30 ar
    51   29   50 1
    52   30   31 ar
    53   30   51 1
    54   31   32 ar
    55   31   52 1
    56   32   53 1
@<TRIPOS>MOLECULE
ZINC19640173
   50    52     0     0     0
SMALL
USER_CHARGES

@<TRIPOS>ATOM
      1 C1          0.0056    1.5031    0.0090 C.3       1 <0>        -0.1157
      2 C2          0.0196   -0.0039    0.0010 C.ar      1 <0>        -0.0943
      3 C3         -0.7242   -0.6957   -0.9374 C.ar      1 <0>        -0.1009
      4 C4         -0.7136   -2.0766   -0.9476 C.ar      1 <0>        -0.1323
      5 C5          0.0454   -2.7708   -0.0138 C.ar      1 <0>         0.1305
      6 C6          0.7915   -2.0725    0.9275 C.ar      1 <0>        -0.1137
      7 C7          0.7808   -0.6916    0.9284 C.ar      1 <0>        -0.1010
      8 N1          0.0581   -4.1680   -0.0209 N.am      1 <0>        -0.6394
      9 C8          0.1745   -4.8468    1.1376 C.2       1 <0>         0.5151
     10 O1          0.1719   -4.2490    2.1944 O.2       1 <0>        -0.4967
     11 C9          0.3064   -6.3313    1.1215 C.2       1 <0>         0.5296
     12 O2          0.3090   -6.9295    0.0642 O.2       1 <0>        -0.4829
     13 N2          0.4228   -7.0101    2.2800 N.am      1 <0>        -0.5573
     14 N3          0.5468   -8.4055    2.2649 N.2       1 <0>        -0.2581
     15 C10         0.6591   -9.0601    3.3822 C.2       1 <0>         0.1764
     16 C11         0.7894  -10.5270    3.3663 C.2       1 <0>        -0.1544
     17 C12         0.9179  -11.4115    4.5287 C.2       1 <0>        -0.1575
     18 C13         1.0087  -12.6653    4.0492 C.2       1 <0>         0.0267
     19 N4          0.9463  -12.6228    2.6853 N.pl3     1 <0>        -0.4051
     20 C14         0.8088  -11.3368    2.2653 C.2       1 <0>         0.1027
     21 C15         0.6996  -10.8823    0.8326 C.3       1 <0>        -0.0937
     22 C16         1.0093  -13.7409    1.8427 C.ar      1 <0>         0.1267
     23 C17         2.0835  -13.8998    0.9770 C.ar      1 <0>        -0.1035
     24 C18         2.1438  -15.0027    0.1480 C.ar      1 <0>        -0.0919
     25 C19         1.1356  -15.9486    0.1785 C.ar      1 <0>        -0.1003
     26 C20         0.0637  -15.7936    1.0398 C.ar      1 <0>        -0.0244
     27 C21         0.0012  -14.6943    1.8760 C.ar      1 <0>        -0.1010
     28 Cl1        -1.1999  -16.9834    1.0751 Cl        1 <0>        -0.0539
     29 C22         1.1552  -13.9133    4.8812 C.3       1 <0>        -0.0879
     30 H1          0.8005    1.8772   -0.6362 H         1 <0>         0.0717
     31 H2         -0.9574    1.8594   -0.3569 H         1 <0>         0.0674
     32 H3          0.1634    1.8625    1.0258 H         1 <0>         0.0674
     33 H4         -1.3144   -0.1555   -1.6628 H         1 <0>         0.1293
     34 H5         -1.2950   -2.6163   -1.6805 H         1 <0>         0.1295
     35 H6          1.3826   -2.6091    1.6549 H         1 <0>         0.1345
     36 H7          1.3643   -0.1481    1.6568 H         1 <0>         0.1281
     37 H8         -0.0169   -4.6494   -0.8597 H         1 <0>         0.4246
     38 H9          0.4208   -6.5325    3.1243 H         1 <0>         0.3973
     39 H10         0.6568   -8.5284    4.3222 H         1 <0>         0.1241
     40 H11         0.9362  -11.1146    5.5669 H         1 <0>         0.1513
     41 H12         1.6958  -10.6820    0.4381 H         1 <0>         0.0771
     42 H13         0.2239  -11.6630    0.2391 H         1 <0>         0.0614
     43 H14         0.1002   -9.9732    0.7845 H         1 <0>         0.1064
     44 H15         2.8711  -13.1613    0.9519 H         1 <0>         0.1371
     45 H16         2.9792  -15.1263   -0.5253 H         1 <0>         0.1445
     46 H17         1.1847  -16.8098   -0.4714 H         1 <0>         0.1424
     47 H18        -0.8333  -14.5754    2.5512 H         1 <0>         0.1408
     48 H19         0.1679  -14.3052    5.1254 H         1 <0>         0.0738
     49 H20         1.7142  -14.6613    4.3189 H         1 <0>         0.0647
     50 H21         1.6897  -13.6760    5.8011 H         1 <0>         0.0846
@<TRIPOS>BOND
     1    1    2 1
     2    1   30 1
     3    1   31 1
     4    1   32 1
     5    2    7 ar
     6    2    3 ar
     7    3    4 ar
     8    3   33 1
     9    4    5 ar
    10    4   34 1
    11    5    6 ar
    12    5    8 1
    13    6    7 ar
    14    6   35 1
    15    7   36 1
    16    8    9 am
    17    8   37 1
    18    9   10 2
    19    9   11 1
    20   11   12 2
    21   11   13 am
    22   13   14 1
    23   13   38 1
    24   14   15 2
    25   15   16 1
    26   15   39 1
    27   16   20 2
    28   16   17 1
    29   17   18 2
    30   17   40 1
    31   18   19 1
    32   18   29 1
    33   19   20 1
    34   19   22 1
    35   20   21 1
    36   21   41 1
    37   21   42 1
    38   21   43 1
    39   22   27 ar
    40   22   23 ar
    41   23   24 ar
    42   23   44 1
    43   24   25 ar
    44   24   45 1
    45   25   26 ar
    46   25   46 1
    47   26   27 ar
    48   26   28 1
    49   27   47 1
    50   29   48 1
    51   29   49 1
    52   29   50 1
@<TRIPOS>MOLECULE
ZINC02430986
   42    45     0     0     0
SMALL
USER_CHARGES
methyl-N-sec-butyl-BLAHcarboxamide
@<TRIPOS>ATOM
      1 C1         -1.4157   -2.0577   -0.1212 C.3       1 <0>        -0.1560
      2 C2         -1.4333   -0.5336    0.0129 C.3       1 <0>        -0.1316
      3 C3          0.0021   -0.0041    0.0020 C.3       1 <0>         0.1407
      4 H1          0.5123   -0.3556   -0.8948 H         1 <0>         0.0949
      5 C4         -0.0187    1.5258    0.0104 C.3       1 <0>        -0.1670
      6 N1          0.7106   -0.4894    1.1889 N.am      1 <0>        -0.7037
      7 C5          2.0538   -0.5998    1.1737 C.2       1 <0>         0.6116
      8 O1          2.6771   -0.2968    0.1754 O.2       1 <0>        -0.4924
      9 C6          2.7699   -1.0903    2.3732 C.2       1 <0>         0.2316
     10 N2          4.0949   -1.2462    2.4739 N.2       1 <0>        -0.4768
     11 C7          4.3943   -1.6945    3.6735 C.2       1 <0>         0.3375
     12 C8          5.6665   -2.0408    4.3397 C.2       1 <0>        -0.0938
     13 C9          6.9880   -1.9653    3.8081 C.2       1 <0>        -0.1005
     14 C10         8.0047   -2.3340    4.6109 C.2       1 <0>        -0.1711
     15 S1          7.2207   -2.8112    6.1347 S.3       1 <0>         0.2217
     16 C11         5.5400   -2.5001    5.6583 C.2       1 <0>         0.0554
     17 N3          4.3614   -2.6141    6.2583 N.2       1 <0>        -0.4372
     18 C12         3.2461   -2.3057    5.6569 C.2       1 <0>         0.4066
     19 N4          3.2298   -1.8458    4.3753 N.pl3     1 <0>        -0.3332
     20 N5          2.2010   -1.4477    3.5092 N.2       1 <0>        -0.2792
     21 C13         1.9436   -2.4604    6.3990 C.3       1 <0>        -0.1005
     22 C14         9.3412   -2.2028    3.9343 C.3       1 <0>        -0.0359
     23 C15         9.0724   -1.2873    2.7196 C.3       1 <0>        -0.1167
     24 C16         7.5755   -1.5442    2.4575 C.3       1 <0>        -0.0627
     25 H2         -0.9334   -2.3344   -1.0587 H         1 <0>         0.0572
     26 H3         -0.8628   -2.4894    0.7131 H         1 <0>         0.0543
     27 H4         -2.4383   -2.4349   -0.1135 H         1 <0>         0.0593
     28 H5         -1.9156   -0.2570    0.9504 H         1 <0>         0.0708
     29 H6         -1.9862   -0.1019   -0.8214 H         1 <0>         0.0841
     30 H7          1.0039    1.9031    0.0027 H         1 <0>         0.0628
     31 H8         -0.5459    1.8868   -0.8726 H         1 <0>         0.0715
     32 H9         -0.5289    1.8773    0.9072 H         1 <0>         0.0595
     33 H10         0.2131   -0.7312    1.9857 H         1 <0>         0.4083
     34 H11         1.5475   -3.4622    6.2329 H         1 <0>         0.1047
     35 H12         2.1126   -2.3088    7.4651 H         1 <0>         0.1085
     36 H13         1.2286   -1.7222    6.0359 H         1 <0>         0.0983
     37 H14        10.0641   -1.7406    4.6064 H         1 <0>         0.0873
     38 H15         9.6976   -3.1785    3.6037 H         1 <0>         0.0939
     39 H16         9.2505   -0.2420    2.9720 H         1 <0>         0.0795
     40 H17         9.6760   -1.5880    1.8633 H         1 <0>         0.0891
     41 H18         7.4524   -2.3440    1.7272 H         1 <0>         0.0856
     42 H19         7.0930   -0.6329    2.1044 H         1 <0>         0.0836
@<TRIPOS>BOND
     1    1    2 1
     2    1   25 1
     3    1   26 1
     4    1   27 1
     5    2    3 1
     6    2   28 1
     7    2   29 1
     8    3    4 1
     9    3    5 1
    10    3    6 1
    11    5   30 1
    12    5   31 1
    13    5   32 1
    14    6    7 am
    15    6   33 1
    16    7    8 2
    17    7    9 1
    18    9   20 2
    19    9   10 1
    20   10   11 2
    21   11   19 1
    22   11   12 1
    23   12   16 2
    24   12   13 1
    25   13   24 1
    26   13   14 2
    27   14   15 1
    28   14   22 1
    29   15   16 1
    30   16   17 1
    31   17   18 2
    32   18   19 1
    33   18   21 1
    34   19   20 1
    35   21   34 1
    36   21   35 1
    37   21   36 1
    38   22   23 1
    39   22   37 1
    40   22   38 1
    41   23   24 1
    42   23   39 1
    43   23   40 1
    44   24   41 1
    45   24   42 1
@<TRIPOS>MOLECULE
ZINC15512664
   50    52     0     0     0
SMALL
USER_CHARGES
2-[3-(4-methyl-1-piperidyl)-3-oxo-propyl]-2,4-diazaspiro[4.5]decane-1,3-dione
@<TRIPOS>ATOM
      1 C1         -3.7528    6.4514    5.8122 C.3       1 <0>        -0.1482
      2 C2         -3.9641    5.2213    4.9272 C.3       1 <0>        -0.0934
      3 C3         -4.4548    5.6643    3.5470 C.3       1 <0>        -0.1303
      4 C4         -4.6983    4.4285    2.6751 C.3       1 <0>         0.1099
      5 N1         -3.4721    3.6195    2.6485 N.am      1 <0>        -0.6115
      6 C5         -2.8678    3.2105    3.9238 C.3       1 <0>         0.1045
      7 C6         -2.6417    4.4647    4.7817 C.3       1 <0>        -0.1316
      8 C7         -2.9154    3.2547    1.4766 C.2       1 <0>         0.5248
      9 O1         -3.4267    3.5944    0.4306 O.2       1 <0>        -0.5370
     10 C8         -1.6576    2.4247    1.4659 C.3       1 <0>        -0.1576
     11 C9         -1.2390    2.1517    0.0198 C.3       1 <0>         0.1341
     12 N2         -0.0162    1.3449    0.0094 N.am      1 <0>        -0.5779
     13 C10         0.0021   -0.0041    0.0020 C.2       1 <0>         0.5297
     14 O2         -0.9528   -0.7510    0.0068 O.2       1 <0>        -0.4570
     15 C11         1.4640   -0.3879   -0.0140 C.3       1 <0>         0.1255
     16 C12         1.7919   -1.1780   -1.2762 C.3       1 <0>        -0.1150
     17 C13         3.2811   -1.5325   -1.2872 C.3       1 <0>        -0.1174
     18 C14         3.6160   -2.3612   -0.0453 C.3       1 <0>        -0.1256
     19 C15         3.3049   -1.5462    1.2118 C.3       1 <0>        -0.1173
     20 C16         1.8159   -1.1915    1.2330 C.3       1 <0>        -0.1137
     21 N3          2.1706    0.8992   -0.0138 N.am      1 <0>        -0.7155
     22 C17         1.2215    1.8547    0.0004 C.2       1 <0>         0.7010
     23 O3          1.4618    3.0461    0.0036 O.2       1 <0>        -0.5373
     24 H1         -4.6947    6.9897    5.9169 H         1 <0>         0.0567
     25 H2         -3.4032    6.1360    6.7953 H         1 <0>         0.0561
     26 H3         -3.0098    7.1047    5.3548 H         1 <0>         0.0549
     27 H4         -4.7075    4.5685    5.3847 H         1 <0>         0.0728
     28 H5         -3.7009    6.2972    3.0787 H         1 <0>         0.0678
     29 H6         -5.3845    6.2233    3.6536 H         1 <0>         0.0771
     30 H7         -4.9523    4.7403    1.6620 H         1 <0>         0.0946
     31 H8         -5.5149    3.8407    3.0943 H         1 <0>         0.0686
     32 H9         -3.5382    2.5254    4.4427 H         1 <0>         0.0734
     33 H10        -1.9137    2.7185    3.7349 H         1 <0>         0.0847
     34 H11        -1.9049    5.1088    4.3018 H         1 <0>         0.0692
     35 H12        -2.2807    4.1703    5.7671 H         1 <0>         0.0774
     36 H13        -1.8420    1.4790    1.9755 H         1 <0>         0.0993
     37 H14        -0.8616    2.9647    1.9788 H         1 <0>         0.1023
     38 H15        -1.0546    3.0974   -0.4898 H         1 <0>         0.1072
     39 H16        -2.0349    1.6118   -0.4930 H         1 <0>         0.1049
     40 H17         1.2007   -2.0935   -1.2952 H         1 <0>         0.0908
     41 H18         1.5557   -0.5755   -2.1532 H         1 <0>         0.0752
     42 H19         3.8727   -0.6171   -1.2838 H         1 <0>         0.0648
     43 H20         3.5107   -2.1104   -2.1825 H         1 <0>         0.0754
     44 H21         4.6744   -2.6214   -0.0568 H         1 <0>         0.0697
     45 H22         3.0179   -3.2724   -0.0446 H         1 <0>         0.0690
     46 H23         3.8965   -0.6307    1.2071 H         1 <0>         0.0648
     47 H24         3.5512   -2.1338    2.0961 H         1 <0>         0.0752
     48 H25         1.5967   -0.5985    2.1209 H         1 <0>         0.0742
     49 H26         1.2252   -2.1074    1.2533 H         1 <0>         0.0907
     50 H27         3.1310    1.0346   -0.0226 H         1 <0>         0.4397
@<TRIPOS>BOND
     1    1    2 1
     2    1   24 1
     3    1   25 1
     4    1   26 1
     5    2    7 1
     6    2    3 1
     7    2   27 1
     8    3    4 1
     9    3   28 1
    10    3   29 1
    11    4    5 1
    12    4   30 1
    13    4   31 1
    14    5    6 1
    15    5    8 am
    16    6    7 1
    17    6   32 1
    18    6   33 1
    19    7   34 1
    20    7   35 1
    21    8    9 2
    22    8   10 1
    23   10   11 1
    24   10   36 1
    25   10   37 1
    26   11   12 1
    27   11   38 1
    28   11   39 1
    29   12   22 am
    30   12   13 am
    31   13   14 2
    32   13   15 1
    33   15   20 1
    34   15   16 1
    35   15   21 1
    36   16   17 1
    37   16   40 1
    38   16   41 1
    39   17   18 1
    40   17   42 1
    41   17   43 1
    42   18   19 1
    43   18   44 1
    44   18   45 1
    45   19   20 1
    46   19   46 1
    47   19   47 1
    48   20   48 1
    49   20   49 1
    50   21   22 am
    51   21   50 1
    52   22   23 2
@<TRIPOS>MOLECULE
ZINC41096431
   43    45     0     0     0
SMALL
USER_CHARGES

@<TRIPOS>ATOM
      1 C1         -0.0187    1.5258    0.0104 C.3       1 <0>        -0.1374
      2 C2          0.0021   -0.0041    0.0020 C.3       1 <0>        -0.1358
      3 H1         -1.0140   -0.3982    0.0221 H         1 <0>         0.1250
      4 C3          0.7574   -0.5254   -1.2344 C.3       1 <0>         0.1207
      5 N1          1.8891   -1.2818   -0.6810 N.pl3     1 <0>        -0.4346
      6 N2          1.8394   -1.2340    0.7106 N.am      1 <0>        -0.5241
      7 C4          0.7958   -0.5284    1.1771 C.2       1 <0>         0.5318
      8 O1          0.5330   -0.3412    2.3463 O.2       1 <0>        -0.5048
      9 C5          2.8620   -1.9452   -1.4323 C.ar      1 <0>         0.2849
     10 C6          2.8088   -1.9172   -2.8202 C.ar      1 <0>        -0.2033
     11 C7          3.7725   -2.5737   -3.5600 C.ar      1 <0>         0.0342
     12 C8          4.7895   -3.2588   -2.9207 C.ar      1 <0>        -0.7288
     13 C9          4.8452   -3.2891   -1.5393 C.ar      1 <0>         0.0339
     14 C10         3.8882   -2.6295   -0.7934 C.ar      1 <0>        -0.2139
     15 S1          6.0168   -4.0956   -3.8685 S.o2      1 <0>         2.6941
     16 O2          6.5482   -5.1160   -3.0345 O.2       1 <0>        -0.9576
     17 O3          5.4333   -4.3730   -5.1341 O.2       1 <0>        -0.9572
     18 N3          7.2450   -3.0184   -4.1394 N.pl3     1 <0>        -0.9971
     19 C11         7.2312   -2.1500   -5.3246 C.3       1 <0>         0.1194
     20 C12         7.3924   -0.6954   -4.8719 C.3       1 <0>        -0.1363
     21 C13         8.6538   -0.5689   -4.0146 C.3       1 <0>        -0.1184
     22 C14         8.5176   -1.4497   -2.7705 C.3       1 <0>        -0.1367
     23 C15         8.3661   -2.9085   -3.1962 C.3       1 <0>         0.1196
     24 H2          1.0039    1.9031    0.0027 H         1 <0>         0.0617
     25 H3         -0.5459    1.8868   -0.8726 H         1 <0>         0.0762
     26 H4         -0.5289    1.8773    0.9072 H         1 <0>         0.0751
     27 H5          0.1154   -1.1789   -1.8251 H         1 <0>         0.0929
     28 H6          1.1158    0.3067   -1.8404 H         1 <0>         0.0940
     29 H7          2.4910   -1.6668    1.2843 H         1 <0>         0.4265
     30 H8          2.0144   -1.3828   -3.3200 H         1 <0>         0.1364
     31 H9          3.7318   -2.5523   -4.6390 H         1 <0>         0.1439
     32 H10         5.6406   -3.8254   -1.0432 H         1 <0>         0.1415
     33 H11         3.9350   -2.6495    0.2854 H         1 <0>         0.1266
     34 H12         8.0549   -2.4205   -5.9853 H         1 <0>         0.0760
     35 H13         6.2841   -2.2659   -5.8515 H         1 <0>         0.0904
     36 H14         7.4803   -0.0500   -5.7459 H         1 <0>         0.0759
     37 H15         6.5228   -0.3983   -4.2856 H         1 <0>         0.0669
     38 H16         9.5200   -0.8896   -4.5935 H         1 <0>         0.0657
     39 H17         8.7843    0.4700   -3.7116 H         1 <0>         0.0645
     40 H18         9.4063   -1.3411   -2.1488 H         1 <0>         0.0761
     41 H19         7.6374   -1.1455   -2.2040 H         1 <0>         0.0663
     42 H20         8.1675   -3.5248   -2.3193 H         1 <0>         0.0900
     43 H21         9.2843   -3.2422   -3.6795 H         1 <0>         0.0758
@<TRIPOS>BOND
     1    1    2 1
     2    1   24 1
     3    1   25 1
     4    1   26 1
     5    2    3 1
     6    2    7 1
     7    2    4 1
     8    4    5 1
     9    4   27 1
    10    4   28 1
    11    5    6 1
    12    5    9 1
    13    6    7 am
    14    6   29 1
    15    7    8 2
    16    9   14 ar
    17    9   10 ar
    18   10   11 ar
    19   10   30 1
    20   11   12 ar
    21   11   31 1
    22   12   13 ar
    23   12   15 1
    24   13   14 ar
    25   13   32 1
    26   14   33 1
    27   15   16 2
    28   15   17 2
    29   15   18 1
    30   18   23 1
    31   18   19 1
    32   19   20 1
    33   19   34 1
    34   19   35 1
    35   20   21 1
    36   20   36 1
    37   20   37 1
    38   21   22 1
    39   21   38 1
    40   21   39 1
    41   22   23 1
    42   22   40 1
    43   22   41 1
    44   23   42 1
    45   23   43 1
@<TRIPOS>MOLECULE
ZINC06016790
   47    49     0     0     0
SMALL
USER_CHARGES

@<TRIPOS>ATOM
      1 C1         -0.0127    1.0858    0.0080 C.3       1 <0>        -0.0876
      2 C2         -0.7416    1.5850   -1.2129 C.2       1 <0>         0.0574
      3 C3         -0.8989    3.0224   -1.4506 C.2       1 <0>         0.4957
      4 O1         -0.4391    3.8314   -0.6594 O.2       1 <0>        -0.4727
      5 N1         -1.5501    3.4414   -2.5418 N.2       1 <0>        -0.6041
      6 H1         -2.2911    0.6144   -3.8477 H         1 <0>         0.4508
      7 C4         -2.0485    2.5724   -3.4000 C.2       1 <0>         0.3822
      8 N2         -1.9164    1.2348   -3.2030 N.pl3     1 <0>        -0.5070
      9 N3         -1.2387    0.7441   -2.0792 N.2       1 <0>        -0.1972
     10 S1         -2.9011    3.1569   -4.8269 S.3       1 <0>         0.0849
     11 C5         -2.8303    4.9629   -4.6713 C.3       1 <0>        -0.1370
     12 C6         -3.5331    5.5961   -5.8444 C.2       1 <0>         0.5507
     13 O2         -4.0325    4.8978   -6.7011 O.2       1 <0>        -0.5236
     14 N4         -3.6066    6.9388   -5.9415 N.am      1 <0>        -0.6006
     15 C7         -3.0367    7.9033   -4.9882 C.3       1 <0>         0.1013
     16 C8         -3.4273    9.3080   -5.5030 C.3       1 <0>        -0.0669
     17 C9         -3.5509    9.0739   -7.0324 C.3       1 <0>        -0.1240
     18 C10        -4.2593    7.6964   -7.0278 C.3       1 <0>         0.1422
     19 H2         -4.1545    7.1841   -7.9929 H         1 <0>         0.0998
     20 C11        -5.7208    7.9402   -6.6615 C.3       1 <0>        -0.1185
     21 C12        -5.9116    8.6832   -5.3518 C.3       1 <0>        -0.0526
     22 C13        -4.8162    9.6623   -4.9771 C.3       1 <0>        -0.0982
     23 C14        -7.2276    9.4916   -5.4730 C.3       1 <0>        -0.1474
     24 C15        -6.1266    7.6757   -4.2123 C.3       1 <0>        -0.1438
     25 C16        -2.3721   10.3698   -5.1564 C.3       1 <0>        -0.1319
     26 H3          0.0021   -0.0041    0.0020 H         1 <0>         0.0862
     27 H4          1.0099    1.4631    0.0003 H         1 <0>         0.0966
     28 H5         -0.5229    1.4373    0.9048 H         1 <0>         0.0967
     29 H6         -3.3204    5.2673   -3.7465 H         1 <0>         0.1316
     30 H7         -1.7893    5.2855   -4.6540 H         1 <0>         0.1326
     31 H8         -3.4224    7.7364   -3.9879 H         1 <0>         0.0788
     32 H9         -1.9472    7.8065   -4.9801 H         1 <0>         0.0705
     33 H10        -4.1684    9.8384   -7.5034 H         1 <0>         0.0900
     34 H11        -2.5705    9.0154   -7.5056 H         1 <0>         0.0776
     35 H12        -6.2000    8.5148   -7.4691 H         1 <0>         0.0733
     36 H13        -6.2463    6.9762   -6.6076 H         1 <0>         0.0678
     37 H14        -4.7708    9.7445   -3.8792 H         1 <0>         0.0654
     38 H15        -5.0914   10.6630   -5.3486 H         1 <0>         0.0663
     39 H16        -8.0583    8.8088   -5.6515 H         1 <0>         0.0547
     40 H17        -7.4021   10.0422   -4.5487 H         1 <0>         0.0550
     41 H18        -7.1483   10.1924   -6.3040 H         1 <0>         0.0550
     42 H19        -5.2565    7.0237   -4.1348 H         1 <0>         0.0520
     43 H20        -6.2632    8.2126   -3.2736 H         1 <0>         0.0547
     44 H21        -7.0127    7.0759   -4.4201 H         1 <0>         0.0539
     45 H22        -1.4163   10.0904   -5.5997 H         1 <0>         0.0624
     46 H23        -2.6864   11.3365   -5.5500 H         1 <0>         0.0648
     47 H24        -2.2650   10.4358   -4.0737 H         1 <0>         0.0621
@<TRIPOS>BOND
     1    1   26 1
     2    1   27 1
     3    1   28 1
     4    1    2 1
     5    2    9 2
     6    2    3 1
     7    3    4 2
     8    3    5 1
     9    5    7 2
    10    6    8 1
    11    7   10 1
    12    7    8 1
    13    8    9 1
    14   10   11 1
    15   11   12 1
    16   11   29 1
    17   11   30 1
    18   12   13 2
    19   12   14 am
    20   14   18 1
    21   14   15 1
    22   15   16 1
    23   15   31 1
    24   15   32 1
    25   16   22 1
    26   16   17 1
    27   16   25 1
    28   17   18 1
    29   17   33 1
    30   17   34 1
    31   18   19 1
    32   18   20 1
    33   20   21 1
    34   20   35 1
    35   20   36 1
    36   21   22 1
    37   21   23 1
    38   21   24 1
    39   22   37 1
    40   22   38 1
    41   23   39 1
    42   23   40 1
    43   23   41 1
    44   24   42 1
    45   24   43 1
    46   24   44 1
    47   25   45 1
    48   25   46 1
    49   25   47 1
@<TRIPOS>MOLECULE
ZINC52829498
   42    45     0     0     0
SMALL
USER_CHARGES

@<TRIPOS>ATOM
      1 C1          0.0247    1.4596    0.0089 C.3       1 <0>         0.1032
      2 N1          0.0399   -0.0053    0.0004 N.pl3     1 <0>        -0.3511
      3 C2          0.0334   -0.7943   -1.1052 C.2       1 <0>         0.3359
      4 C3          0.0542   -2.1221   -0.6501 C.2       1 <0>        -0.3495
      5 C4          0.0731   -2.0815    0.7565 C.2       1 <0>         0.1292
      6 N2          0.0697   -0.8318    1.1307 N.2       1 <0>        -0.2717
      7 C5          0.0523   -3.1925   -1.6472 C.2       1 <0>         0.5802
      8 O1          0.0693   -4.3648   -1.3159 O.2       1 <0>        -0.5167
      9 N3          0.0305   -2.8318   -2.9517 N.am      1 <0>        -0.6488
     10 H1          0.0285   -3.5138   -3.6415 H         1 <0>         0.4211
     11 C6          0.0109   -1.5201   -3.2986 C.2       1 <0>         0.4324
     12 N4          0.0127   -0.5554   -2.4259 N.2       1 <0>        -0.4966
     13 C7         -0.0136   -1.1644   -4.7628 C.3       1 <0>         0.0890
     14 N5         -0.0321    0.2970   -4.9114 N.3       1 <0>        -0.4890
     15 C8         -1.3661    0.8456   -4.5870 C.3       1 <0>         0.0445
     16 C9         -1.5354    2.0599   -5.5339 C.3       1 <0>        -0.1303
     17 C10        -0.8510    1.5461   -6.8279 C.3       1 <0>        -0.1363
     18 C11         0.3160    0.6925   -6.2885 C.3       1 <0>         0.1123
     19 H2          1.2342    1.2798   -6.2847 H         1 <0>         0.1040
     20 C12         0.4923   -0.5347   -7.1453 C.ar      1 <0>        -0.0920
     21 C13        -0.5866   -1.3613   -7.3991 C.ar      1 <0>        -0.1184
     22 C14        -0.4256   -2.4870   -8.1848 C.ar      1 <0>        -0.1026
     23 C15         0.8144   -2.7873   -8.7170 C.ar      1 <0>        -0.1081
     24 C16         1.8941   -1.9607   -8.4634 C.ar      1 <0>        -0.0311
     25 C17         1.7310   -0.8305   -7.6817 C.ar      1 <0>        -0.0990
     26 Cl1         3.4516   -2.3371   -9.1314 Cl        1 <0>        -0.0633
     27 H3          1.0483    1.8337   -0.0077 H         1 <0>         0.0795
     28 H4         -0.5091    1.8226   -0.8694 H         1 <0>         0.0949
     29 H5         -0.4765    1.8125    0.9103 H         1 <0>         0.0932
     30 H6          0.0909   -2.9383    1.4137 H         1 <0>         0.1986
     31 H7          0.8743   -1.5679   -5.2496 H         1 <0>         0.1160
     32 H8         -0.9054   -1.5879   -5.2247 H         1 <0>         0.0834
     33 H9         -2.1395    0.1025   -4.7810 H         1 <0>         0.0438
     34 H10        -1.4010    1.1681   -3.5464 H         1 <0>         0.0943
     35 H11        -2.5896    2.2748   -5.7086 H         1 <0>         0.0772
     36 H12        -1.0197    2.9362   -5.1410 H         1 <0>         0.0802
     37 H13        -1.5391    0.9338   -7.4107 H         1 <0>         0.0740
     38 H14        -0.4764    2.3791   -7.4226 H         1 <0>         0.0815
     39 H15        -1.5554   -1.1275   -6.9830 H         1 <0>         0.1279
     40 H16        -1.2687   -3.1323   -8.3828 H         1 <0>         0.1351
     41 H17         0.9402   -3.6673   -9.3303 H         1 <0>         0.1356
     42 H18         2.5727   -0.1824   -7.4870 H         1 <0>         0.1374
@<TRIPOS>BOND
     1    1    2 1
     2    1   27 1
     3    1   28 1
     4    1   29 1
     5    2    6 1
     6    2    3 1
     7    3   12 1
     8    3    4 2
     9    4    5 1
    10    4    7 1
    11    5    6 2
    12    5   30 1
    13    7    8 2
    14    7    9 am
    15    9   10 1
    16    9   11 1
    17   11   12 2
    18   11   13 1
    19   13   14 1
    20   13   31 1
    21   13   32 1
    22   14   18 1
    23   14   15 1
    24   15   16 1
    25   15   33 1
    26   15   34 1
    27   16   17 1
    28   16   35 1
    29   16   36 1
    30   17   18 1
    31   17   37 1
    32   17   38 1
    33   18   19 1
    34   18   20 1
    35   20   25 ar
    36   20   21 ar
    37   21   22 ar
    38   21   39 1
    39   22   23 ar
    40   22   40 1
    41   23   24 ar
    42   23   41 1
    43   24   25 ar
    44   24   26 1
    45   25   42 1
@<TRIPOS>MOLECULE
ZINC06336722
   34    36     0     0     0
SMALL
USER_CHARGES
5-[(2-chlorophenyl)methylsulfanyl]-N-(2-furylmethyleneamino)-4H-1,2,4-triazol-3-amine
@<TRIPOS>ATOM
      1 C1          2.3961    0.0287   -0.0207 C.ar      1 <0>        -0.1146
      2 C2          2.3780    1.4112   -0.0131 C.ar      1 <0>        -0.0954
      3 C3          1.1725    2.0866    0.0021 C.ar      1 <0>        -0.1106
      4 C4         -0.0167    1.3791    0.0096 C.ar      1 <0>        -0.0176
      5 C5          0.0021   -0.0041    0.0020 C.ar      1 <0>        -0.0762
      6 C6          1.2086   -0.6786   -0.0131 C.ar      1 <0>        -0.0846
      7 C7         -1.2925   -0.7754    0.0097 C.3       1 <0>        -0.0640
      8 S1         -1.8277   -1.0757   -1.6973 S.3       1 <0>         0.0109
      9 C8         -3.3329   -1.9743   -1.5204 C.2       1 <0>         0.2049
     10 N1         -4.1194   -2.4318   -2.5393 N.pl3     1 <0>        -0.6086
     11 H1         -3.9474   -2.3188   -3.4872 H         1 <0>         0.4238
     12 C9         -5.1920   -3.0767   -1.9884 C.2       1 <0>         0.4967
     13 N2         -5.0726   -3.0198   -0.6839 N.2       1 <0>        -0.3145
     14 N3         -3.8920   -2.3263   -0.3872 N.2       1 <0>        -0.3009
     15 N4         -6.2250   -3.6838   -2.6868 N.pl3     1 <0>        -0.5499
     16 N5         -7.2665   -4.3119   -1.9914 N.2       1 <0>        -0.1857
     17 C10        -8.2359   -4.8815   -2.6468 C.2       1 <0>         0.1277
     18 C11        -9.3258   -5.5388   -1.9190 C.2       1 <0>         0.0189
     19 C12       -10.3977   -6.1705   -2.4797 C.2       1 <0>        -0.1597
     20 C13       -11.1854   -6.6517   -1.4169 C.2       1 <0>        -0.2189
     21 C14       -10.5670   -6.2967   -0.2728 C.2       1 <0>        -0.0135
     22 O1         -9.4415   -5.6299   -0.5790 O.3       1 <0>        -0.1560
     23 Cl1        -1.5315    2.2269    0.0214 Cl        1 <0>        -0.0552
     24 H2          3.3385   -0.4987   -0.0329 H         1 <0>         0.1346
     25 H3          3.3061    1.9634   -0.0190 H         1 <0>         0.1361
     26 H4          1.1584    3.1665    0.0084 H         1 <0>         0.1382
     27 H5          1.2234   -1.7585   -0.0194 H         1 <0>         0.1379
     28 H6         -1.1445   -1.7287    0.5171 H         1 <0>         0.1129
     29 H7         -2.0554   -0.1996    0.5337 H         1 <0>         0.1136
     30 H8         -6.2264   -3.6735   -3.6567 H         1 <0>         0.3994
     31 H9         -8.2375   -4.8700   -3.7267 H         1 <0>         0.1496
     32 H10       -10.6018   -6.2806   -3.5346 H         1 <0>         0.1570
     33 H11       -12.1111   -7.2015   -1.5021 H         1 <0>         0.1554
     34 H12       -10.9163   -6.5161    0.7254 H         1 <0>         0.2082
@<TRIPOS>BOND
     1    1    6 ar
     2    1    2 ar
     3    1   24 1
     4    2    3 ar
     5    2   25 1
     6    3    4 ar
     7    3   26 1
     8    4    5 ar
     9    4   23 1
    10    5    6 ar
    11    5    7 1
    12    6   27 1
    13    7    8 1
    14    7   28 1
    15    7   29 1
    16    8    9 1
    17    9   14 2
    18    9   10 1
    19   10   11 1
    20   10   12 1
    21   12   13 2
    22   12   15 1
    23   13   14 1
    24   15   16 1
    25   15   30 1
    26   16   17 2
    27   17   18 1
    28   17   31 1
    29   18   22 1
    30   18   19 2
    31   19   20 1
    32   19   32 1
    33   20   21 2
    34   20   33 1
    35   21   22 1
    36   21   34 1
@<TRIPOS>MOLECULE
ZINC32754069
   48    49     0     0     0
SMALL
USER_CHARGES
(E)-N-(4-acetamido-3-methyl-phenyl)-3-(3,5-dimethoxyphenyl)prop-2-enamide
@<TRIPOS>ATOM
      1 C1         -3.5366    3.0396    1.0921 C.3       1 <0>        -0.1135
      2 C2         -3.5605    1.6908    0.4203 C.ar      1 <0>        -0.1020
      3 C3         -4.7465    0.9917    0.3177 C.ar      1 <0>        -0.1248
      4 C4         -4.7674   -0.2538   -0.2964 C.ar      1 <0>         0.1323
      5 C5         -3.5959   -0.7934   -0.8124 C.ar      1 <0>        -0.1042
      6 C6         -2.4115   -0.0917   -0.7148 C.ar      1 <0>        -0.1124
      7 C7         -2.3907    1.1539   -0.1006 C.ar      1 <0>         0.1367
      8 N1         -1.1885    1.8659   -0.0016 N.am      1 <0>        -0.6827
      9 C8         -0.0122    1.2082   -0.0200 C.2       1 <0>         0.5086
     10 O1          0.0045   -0.0046   -0.0208 O.2       1 <0>        -0.5256
     11 C9          1.2821    1.9796   -0.0459 C.3       1 <0>        -0.1760
     12 N2         -5.9688   -0.9651   -0.3958 N.am      1 <0>        -0.6797
     13 C10        -5.9655   -2.3096   -0.3026 C.2       1 <0>         0.5482
     14 O2         -4.9108   -2.9114   -0.2192 O.2       1 <0>        -0.5257
     15 C11        -7.2306   -3.0464   -0.3017 C.2       1 <0>        -0.2050
     16 C12        -7.2273   -4.3913   -0.2085 C.2       1 <0>        -0.0174
     17 C13        -8.4995   -5.1322   -0.2076 C.ar      1 <0>         0.0017
     18 C14        -9.7124   -4.4433   -0.2976 C.ar      1 <0>        -0.1716
     19 C15       -10.9056   -5.1453   -0.3021 C.ar      1 <0>         0.1654
     20 C16       -10.8994   -6.5298   -0.2065 C.ar      1 <0>        -0.2878
     21 C17        -9.6982   -7.2184   -0.1108 C.ar      1 <0>         0.1658
     22 C18        -8.4991   -6.5267   -0.1111 C.ar      1 <0>        -0.1633
     23 O3         -9.6992   -8.5742   -0.0170 O.3       1 <0>        -0.3111
     24 C19       -10.9719   -9.2240   -0.0225 C.3       1 <0>         0.0221
     25 O4        -12.0854   -4.4772   -0.3956 O.3       1 <0>        -0.3122
     26 C20       -13.2786   -5.2635   -0.3894 C.3       1 <0>         0.0221
     27 H1         -4.5491    3.2950    1.4379 H         1 <0>         0.0710
     28 H2         -3.1911    3.7998    0.3760 H         1 <0>         0.0681
     29 H3         -2.8522    3.0085    1.9527 H         1 <0>         0.0694
     30 H4         -5.6572    1.4111    0.7192 H         1 <0>         0.1284
     31 H5         -3.6121   -1.7618   -1.2903 H         1 <0>         0.1408
     32 H6         -1.5006   -0.5114   -1.1157 H         1 <0>         0.1464
     33 H7         -1.2044    2.9619    0.0912 H         1 <0>         0.4324
     34 H8          2.1279    1.2764   -0.0583 H         1 <0>         0.0969
     35 H9          1.3475    2.6161    0.8488 H         1 <0>         0.0912
     36 H10         1.3156    2.6093   -0.9472 H         1 <0>         0.0925
     37 H11        -6.9156   -0.4267   -0.5500 H         1 <0>         0.4346
     38 H12        -8.1838   -2.5026   -0.3771 H         1 <0>         0.1379
     39 H13        -6.2741   -4.9351   -0.1331 H         1 <0>         0.1463
     40 H14        -9.7186   -3.3656   -0.3678 H         1 <0>         0.1382
     41 H15       -11.8327   -7.0734   -0.2063 H         1 <0>         0.1372
     42 H16        -7.5649   -7.0635   -0.0366 H         1 <0>         0.1399
     43 H17       -10.8286  -10.3116    0.0585 H         1 <0>         0.1060
     44 H18       -11.4978   -8.9922   -0.9604 H         1 <0>         0.0572
     45 H19       -11.5689   -8.8683    0.8302 H         1 <0>         0.0571
     46 H20       -14.1539   -4.6022   -0.4702 H         1 <0>         0.1058
     47 H21       -13.3362   -5.8351    0.5487 H         1 <0>         0.0572
     48 H22       -13.2642   -5.9585   -1.2419 H         1 <0>         0.0573
@<TRIPOS>BOND
     1    1    2 1
     2    1   27 1
     3    1   28 1
     4    1   29 1
     5    2    7 ar
     6    2    3 ar
     7    3    4 ar
     8    3   30 1
     9    4    5 ar
    10    4   12 1
    11    5    6 ar
    12    5   31 1
    13    6    7 ar
    14    6   32 1
    15    7    8 1
    16    8    9 am
    17    8   33 1
    18    9   10 2
    19    9   11 1
    20   11   34 1
    21   11   35 1
    22   11   36 1
    23   12   13 am
    24   12   37 1
    25   13   14 2
    26   13   15 1
    27   15   16 2
    28   15   38 1
    29   16   17 1
    30   16   39 1
    31   17   22 ar
    32   17   18 ar
    33   18   19 ar
    34   18   40 1
    35   19   20 ar
    36   19   25 1
    37   20   21 ar
    38   20   41 1
    39   21   22 ar
    40   21   23 1
    41   22   42 1
    42   23   24 1
    43   24   43 1
    44   24   44 1
    45   24   45 1
    46   25   26 1
    47   26   46 1
    48   26   47 1
    49   26   48 1
@<TRIPOS>MOLECULE
ZINC42742050
   48    49     0     0     0
SMALL
USER_CHARGES

@<TRIPOS>ATOM
      1 C1          0.9934   -0.4814    0.9197 C.3       1 <0>        -0.1941
      2 C2          0.1685    0.1341   -0.2123 C.3       1 <0>         0.0377
      3 N1         -1.2072   -0.3770   -0.1496 N.3       1 <0>        -0.5110
      4 C3         -1.2259   -1.8452   -0.1939 C.3       1 <0>         0.0253
      5 C4         -0.7304   -2.3135   -1.5379 C.2       1 <0>         0.5163
      6 O1         -0.3949   -1.5042   -2.3759 O.2       1 <0>        -0.4405
      7 N2         -0.6602   -3.6320   -1.8083 N.am      1 <0>        -0.6914
      8 C5         -0.2171   -4.0508   -3.0103 C.2       1 <0>         0.6944
      9 O2          0.1192   -3.2394   -3.8504 O.2       1 <0>        -0.5092
     10 N3         -0.1470   -5.3693   -3.2806 N.am      1 <0>        -0.6793
     11 C6          0.2357   -5.8028   -4.5549 C.ar      1 <0>         0.1532
     12 C7         -0.3381   -6.9421   -5.1037 C.ar      1 <0>        -0.1430
     13 C8          0.0418   -7.3674   -6.3616 C.ar      1 <0>        -0.1019
     14 C9          0.9925   -6.6601   -7.0744 C.ar      1 <0>        -0.1318
     15 C10         1.5661   -5.5255   -6.5305 C.ar      1 <0>        -0.1010
     16 C11         1.1860   -5.0915   -5.2756 C.ar      1 <0>        -0.1180
     17 C12        -1.9004    0.1224    1.0455 C.3       1 <0>         0.1153
     18 H1         -1.3282   -0.1424    1.9346 H         1 <0>         0.0614
     19 C13        -3.2922   -0.5075    1.1284 C.3       1 <0>        -0.1521
     20 C14        -2.0316    1.6213    0.9605 C.ar      1 <0>        -0.0505
     21 C15        -2.4476    2.2102   -0.2203 C.ar      1 <0>        -0.0889
     22 C16        -2.5699    3.5817   -0.3051 C.ar      1 <0>        -0.0722
     23 C17        -2.2731    4.3757    0.8045 C.ar      1 <0>        -0.0280
     24 C18        -1.8543    3.7746    1.9932 C.ar      1 <0>        -0.0714
     25 C19        -1.7409    2.4017    2.0655 C.ar      1 <0>        -0.1153
     26 C20        -2.3974    5.8000    0.7236 C.1       1 <0>         0.2507
     27 N4         -2.4959    6.9299    0.6594 N.1       1 <0>        -0.4144
     28 H2          2.0306   -0.1582    0.8307 H         1 <0>         0.0660
     29 H3          0.5926   -0.1560    1.8797 H         1 <0>         0.0572
     30 H4          0.9447   -1.5684    0.8553 H         1 <0>         0.0539
     31 H5          0.1583    1.2189   -0.1061 H         1 <0>         0.0823
     32 H6          0.6119   -0.1329   -1.1716 H         1 <0>         0.0971
     33 H7         -0.5794   -2.2406    0.5895 H         1 <0>         0.0796
     34 H8         -2.2445   -2.2005   -0.0383 H         1 <0>         0.1186
     35 H9         -0.9287   -4.2795   -1.1378 H         1 <0>         0.4100
     36 H10        -0.3617   -6.0177   -2.5919 H         1 <0>         0.4088
     37 H11        -1.0804   -7.4952   -4.5474 H         1 <0>         0.1257
     38 H12        -0.4038   -8.2536   -6.7889 H         1 <0>         0.1275
     39 H13         1.2879   -6.9947   -8.0579 H         1 <0>         0.1245
     40 H14         2.3086   -4.9754   -7.0896 H         1 <0>         0.1269
     41 H15         1.6306   -4.2024   -4.8535 H         1 <0>         0.1391
     42 H16        -3.8065   -0.1370    2.0151 H         1 <0>         0.0689
     43 H17        -3.8644   -0.2427    0.2392 H         1 <0>         0.0714
     44 H18        -3.1973   -1.5916    1.1898 H         1 <0>         0.0628
     45 H19        -2.6768    1.5949   -1.0778 H         1 <0>         0.1426
     46 H20        -2.8940    4.0402   -1.2276 H         1 <0>         0.1332
     47 H21        -1.6231    4.3829    2.8551 H         1 <0>         0.1327
     48 H22        -1.4210    1.9352    2.9855 H         1 <0>         0.1312
@<TRIPOS>BOND
     1    1    2 1
     2    1   28 1
     3    1   29 1
     4    1   30 1
     5    2    3 1
     6    2   31 1
     7    2   32 1
     8    3    4 1
     9    3   17 1
    10    4    5 1
    11    4   33 1
    12    4   34 1
    13    5    6 2
    14    5    7 am
    15    7    8 am
    16    7   35 1
    17    8    9 2
    18    8   10 am
    19   10   11 1
    20   10   36 1
    21   11   16 ar
    22   11   12 ar
    23   12   13 ar
    24   12   37 1
    25   13   14 ar
    26   13   38 1
    27   14   15 ar
    28   14   39 1
    29   15   16 ar
    30   15   40 1
    31   16   41 1
    32   17   18 1
    33   17   19 1
    34   17   20 1
    35   19   42 1
    36   19   43 1
    37   19   44 1
    38   20   25 ar
    39   20   21 ar
    40   21   22 ar
    41   21   45 1
    42   22   23 ar
    43   22   46 1
    44   23   24 ar
    45   23   26 1
    46   24   25 ar
    47   24   47 1
    48   25   48 1
    49   26   27 3
@<TRIPOS>MOLECULE
ZINC60063940
   46    48     0     0     0
SMALL
USER_CHARGES

@<TRIPOS>ATOM
      1 C1          2.2735    1.4287   -0.3024 C.ar      1 <0>        -0.1317
      2 C2          1.0968    2.0844    0.0102 C.ar      1 <0>        -0.0993
      3 C3         -0.0393    1.3599    0.3139 C.ar      1 <0>        -0.1525
      4 C4          0.0007   -0.0271    0.3046 C.ar      1 <0>         0.1182
      5 C5          1.1821   -0.6824   -0.0098 C.ar      1 <0>        -0.1327
      6 C6          2.3159    0.0469   -0.3123 C.ar      1 <0>        -0.0765
      7 C7          1.2292   -2.1886   -0.0204 C.3       1 <0>         0.1805
      8 N1          1.3690   -2.6825    1.3518 N.am      1 <0>        -0.6138
      9 C8          0.1788   -3.0507    2.1226 C.3       1 <0>         0.1864
     10 C9         -0.1340   -4.5077    1.8982 C.2       1 <0>        -0.0411
     11 C10         0.3304   -5.5342    2.6330 C.2       1 <0>        -0.1888
     12 C11        -0.2113   -6.7151    2.0755 C.2       1 <0>        -0.2140
     13 C12        -0.9743   -6.3397    1.0334 C.2       1 <0>        -0.0361
     14 O1         -0.9284   -5.0011    0.9343 O.3       1 <0>        -0.1716
     15 C13         2.5925   -2.7980    1.9051 C.2       1 <0>         0.7108
     16 O2          3.5848   -2.5793    1.2373 O.2       1 <0>        -0.5838
     17 N2          2.7161   -3.1560    3.1985 N.am      1 <0>        -0.7392
     18 C14         4.0461   -3.2816    3.7999 C.3       1 <0>         0.1293
     19 C15         3.9058   -3.6964    5.2659 C.3       1 <0>         0.0674
     20 H1          3.2506   -2.9981    5.7866 H         1 <0>         0.0872
     21 C16         5.2943   -3.7140    5.9404 C.3       1 <0>        -0.1474
     22 C17         5.2037   -4.9704    6.8488 C.3       1 <0>        -0.1562
     23 C18         4.3145   -5.8968    5.9815 C.3       1 <0>         0.0494
     24 O3          3.3666   -5.0210    5.3467 O.3       1 <0>        -0.3759
     25 O4         -1.1156   -0.7422    0.6034 O.3       1 <0>        -0.4970
     26 H2          3.1596    1.9970   -0.5436 H         1 <0>         0.1252
     27 H3          1.0662    3.1640    0.0173 H         1 <0>         0.1258
     28 H4         -0.9578    1.8724    0.5587 H         1 <0>         0.1279
     29 H5          3.2361   -0.4628   -0.5568 H         1 <0>         0.1317
     30 H6          0.3084   -2.5779   -0.4546 H         1 <0>         0.0873
     31 H7          2.0802   -2.5214   -0.6147 H         1 <0>         0.0920
     32 H8          0.3647   -2.8780    3.1826 H         1 <0>         0.0988
     33 H9         -0.6663   -2.4435    1.7982 H         1 <0>         0.1190
     34 H10         0.9909   -5.4689    3.4850 H         1 <0>         0.1497
     35 H11        -0.0441   -7.7250    2.4201 H         1 <0>         0.1476
     36 H12        -1.5325   -7.0020    0.3882 H         1 <0>         0.2025
     37 H13         1.9245   -3.3305    3.7312 H         1 <0>         0.3971
     38 H14         4.6183   -4.0373    3.2617 H         1 <0>         0.0712
     39 H15         4.5633   -2.3240    3.7412 H         1 <0>         0.0769
     40 H16         6.0846   -3.8279    5.1984 H         1 <0>         0.0832
     41 H17         5.4474   -2.8145    6.5367 H         1 <0>         0.0873
     42 H18         6.1879   -5.4099    7.0109 H         1 <0>         0.0859
     43 H19         4.7193   -4.7358    7.7966 H         1 <0>         0.0801
     44 H20         4.9188   -6.4082    5.2323 H         1 <0>         0.0619
     45 H21         3.7969   -6.6213    6.6102 H         1 <0>         0.0870
     46 H22        -1.7051   -0.8842   -0.1498 H         1 <0>         0.3904
@<TRIPOS>BOND
     1    1    6 ar
     2    1    2 ar
     3    1   26 1
     4    2    3 ar
     5    2   27 1
     6    3    4 ar
     7    3   28 1
     8    4    5 ar
     9    4   25 1
    10    5    6 ar
    11    5    7 1
    12    6   29 1
    13    7    8 1
    14    7   30 1
    15    7   31 1
    16    8    9 1
    17    8   15 am
    18    9   10 1
    19    9   32 1
    20    9   33 1
    21   10   14 1
    22   10   11 2
    23   11   12 1
    24   11   34 1
    25   12   13 2
    26   12   35 1
    27   13   14 1
    28   13   36 1
    29   15   16 2
    30   15   17 am
    31   17   18 1
    32   17   37 1
    33   18   19 1
    34   18   38 1
    35   18   39 1
    36   19   20 1
    37   19   24 1
    38   19   21 1
    39   21   22 1
    40   21   40 1
    41   21   41 1
    42   22   23 1
    43   22   42 1
    44   22   43 1
    45   23   24 1
    46   23   44 1
    47   23   45 1
    48   25   46 1
@<TRIPOS>MOLECULE
ZINC66825721
   44    45     0     0     0
SMALL
USER_CHARGES

@<TRIPOS>ATOM
      1 C1         -0.0700    1.5627   -0.3368 C.3       1 <0>        -0.1547
      2 C2         -0.0373    0.0337   -0.3814 C.3       1 <0>        -0.0939
      3 C3          0.8544   -0.4905    0.7460 C.3       1 <0>        -0.1520
      4 C4         -1.4557   -0.5121   -0.2055 C.3       1 <0>         0.2848
      5 C5         -1.9684   -0.1589    1.1921 C.3       1 <0>        -0.1691
      6 C6         -2.3407    0.0858   -1.2185 C.1       1 <0>         0.1988
      7 N1         -3.0236    0.5472   -2.0002 N.1       1 <0>        -0.4043
      8 N2         -1.4422   -1.9681   -0.3671 N.am      1 <0>        -0.7170
      9 C7         -2.5876   -2.6694   -0.2536 C.2       1 <0>         0.5119
     10 O1         -3.6294   -2.0951   -0.0177 O.2       1 <0>        -0.5160
     11 C8         -2.5737   -4.1671   -0.4198 C.3       1 <0>         0.1046
     12 N3         -3.9319   -4.6898   -0.2514 N.pl3     1 <0>        -0.7294
     13 C9         -4.1712   -6.0626   -0.3619 C.ar      1 <0>         0.2372
     14 C10        -3.1201   -6.9321   -0.6258 C.ar      1 <0>        -0.1807
     15 C11        -3.3562   -8.2876   -0.7350 C.ar      1 <0>        -0.0566
     16 C12        -4.6440   -8.7830   -0.5812 C.ar      1 <0>         0.0932
     17 C13        -5.6958   -7.9143   -0.3177 C.ar      1 <0>         0.0246
     18 C14        -5.4588   -6.5581   -0.2022 C.ar      1 <0>        -0.1728
     19 Cl1        -7.3061   -8.5337   -0.1259 Cl        1 <0>        -0.0374
     20 N4         -4.8834  -10.1614   -0.6923 N.pl3     1 <0>        -0.3220
     21 C15        -4.1737  -11.1431   -0.0923 C.2       1 <0>         0.0549
     22 C16        -4.7223  -12.3270   -0.4524 C.2       1 <0>        -0.2647
     23 C17        -5.8026  -12.0610   -1.3002 C.2       1 <0>         0.0459
     24 N5         -5.9039  -10.7633   -1.4399 N.2       1 <0>        -0.2759
     25 H1          0.9405    1.9515   -0.4621 H         1 <0>         0.0721
     26 H2         -0.7052    1.9361   -1.1401 H         1 <0>         0.0570
     27 H3         -0.4686    1.8897    0.6235 H         1 <0>         0.0682
     28 H4          0.3614   -0.2933   -1.3418 H         1 <0>         0.0880
     29 H5          1.8649   -0.1016    0.6207 H         1 <0>         0.0694
     30 H6          0.4557   -0.1634    1.7064 H         1 <0>         0.0692
     31 H7          0.8777   -1.5797    0.7143 H         1 <0>         0.0601
     32 H8         -1.9785    0.9244    1.3123 H         1 <0>         0.0789
     33 H9         -2.9790   -0.5477    1.3174 H         1 <0>         0.0857
     34 H10        -1.3131   -0.6016    1.9421 H         1 <0>         0.0841
     35 H11        -0.6090   -2.4275   -0.5558 H         1 <0>         0.4128
     36 H12        -2.2084   -4.4188   -1.4155 H         1 <0>         0.0974
     37 H13        -1.9184   -4.6099    0.3302 H         1 <0>         0.1003
     38 H14        -4.6651   -4.0832   -0.0632 H         1 <0>         0.4160
     39 H15        -2.1182   -6.5471   -0.7459 H         1 <0>         0.1376
     40 H16        -2.5389   -8.9631   -0.9406 H         1 <0>         0.1397
     41 H17        -6.2752   -5.8830    0.0077 H         1 <0>         0.1421
     42 H18        -3.3217  -11.0072    0.5573 H         1 <0>         0.1743
     43 H19        -4.3852  -13.3044   -0.1404 H         1 <0>         0.1513
     44 H20        -6.4455  -12.7989   -1.7569 H         1 <0>         0.1861
@<TRIPOS>BOND
     1    1    2 1
     2    1   25 1
     3    1   26 1
     4    1   27 1
     5    2    3 1
     6    2    4 1
     7    2   28 1
     8    3   29 1
     9    3   30 1
    10    3   31 1
    11    4    5 1
    12    4    6 1
    13    4    8 1
    14    5   32 1
    15    5   33 1
    16    5   34 1
    17    6    7 3
    18    8    9 am
    19    8   35 1
    20    9   10 2
    21    9   11 1
    22   11   12 1
    23   11   36 1
    24   11   37 1
    25   12   13 1
    26   12   38 1
    27   13   18 ar
    28   13   14 ar
    29   14   15 ar
    30   14   39 1
    31   15   16 ar
    32   15   40 1
    33   16   17 ar
    34   16   20 1
    35   17   18 ar
    36   17   19 1
    37   18   41 1
    38   20   24 1
    39   20   21 1
    40   21   22 2
    41   21   42 1
    42   22   23 1
    43   22   43 1
    44   23   24 2
    45   23   44 1
@<TRIPOS>MOLECULE
ZINC08875107
   61    65     0     0     0
SMALL
USER_CHARGES
9-[3-chloro-4-(p-tolylsulfonyloxy)phenyl]-10-methyl-3,4,5,6,7,9-hexahydro-2H-acridine-1,8-dione
@<TRIPOS>ATOM
      1 C1         -1.4658    1.6191    7.7430 C.3       1 <0>        -0.1248
      2 C2         -0.0434    1.8660    7.3107 C.ar      1 <0>        -0.0237
      3 C3          1.0044    1.4284    8.0990 C.ar      1 <0>        -0.1439
      4 C4          2.3092    1.6549    7.7025 C.ar      1 <0>        -0.0060
      5 C5          2.5661    2.3181    6.5171 C.ar      1 <0>        -0.6961
      6 C6          1.5182    2.7598    5.7311 C.ar      1 <0>        -0.0044
      7 C7          0.2135    2.5295    6.1255 C.ar      1 <0>        -0.1386
      8 S1          4.2292    2.6067    6.0116 S.o2      1 <0>         2.6691
      9 O1          5.0221    2.5820    7.1905 O.2       1 <0>        -0.9269
     10 O2          4.1993    3.7262    5.1369 O.2       1 <0>        -0.9477
     11 O3          4.6586    1.4111    5.1734 O.3       1 <0>        -0.6516
     12 C8          4.1289    1.3945    3.9217 C.ar      1 <0>         0.0653
     13 C9          4.8000    2.0096    2.8751 C.ar      1 <0>        -0.0765
     14 C10         4.2599    1.9911    1.6036 C.ar      1 <0>        -0.0694
     15 C11         3.0512    1.3602    1.3733 C.ar      1 <0>        -0.0306
     16 C12         2.3771    0.7507    2.4151 C.ar      1 <0>        -0.0894
     17 C13         2.9157    0.7617    3.6884 C.ar      1 <0>        -0.0444
     18 Cl1         2.0725   -0.0098    4.9952 Cl        1 <0>        -0.0415
     19 C14         2.4647    1.3423   -0.0148 C.3       1 <0>         0.0786
     20 C15         1.1402    2.0586    0.0022 C.2       1 <0>        -0.2726
     21 C16        -0.0165    1.3633    0.0095 C.2       1 <0>         0.2141
     22 C17        -1.3488    2.0705    0.0198 C.3       1 <0>        -0.0996
     23 C18        -1.2142    3.4025    0.7652 C.3       1 <0>        -0.1129
     24 C19        -0.1446    4.2445    0.0618 C.3       1 <0>        -0.1597
     25 C20         1.1412    3.4649    0.0165 C.2       1 <0>         0.3981
     26 O4          2.1997    4.0609   -0.0087 O.2       1 <0>        -0.4591
     27 N1          0.0021   -0.0041    0.0020 N.pl3     1 <0>        -0.5255
     28 C21         1.1035   -0.6909   -0.4288 C.2       1 <0>         0.2160
     29 C22         2.3094   -0.0862   -0.4660 C.2       1 <0>        -0.2740
     30 C23         3.4505   -0.7712   -0.9202 C.2       1 <0>         0.3992
     31 O5          4.5223   -0.1992   -0.9375 O.2       1 <0>        -0.4618
     32 C24         3.3680   -2.1998   -1.3846 C.3       1 <0>        -0.1597
     33 C25         1.9646   -2.4640   -1.9397 C.3       1 <0>        -0.1113
     34 C26         0.9407   -2.1293   -0.8526 C.3       1 <0>        -0.0976
     35 C27        -1.1752   -0.7442    0.4628 C.3       1 <0>         0.0609
     36 H1         -1.8118    2.4564    8.3491 H         1 <0>         0.0801
     37 H2         -2.1012    1.5206    6.8628 H         1 <0>         0.0717
     38 H3         -1.5132    0.7017    8.3298 H         1 <0>         0.0720
     39 H4          0.8037    0.9100    9.0249 H         1 <0>         0.1321
     40 H5          3.1278    1.3134    8.3186 H         1 <0>         0.1401
     41 H6          1.7189    3.2818    4.8072 H         1 <0>         0.1360
     42 H7         -0.6052    2.8710    5.5094 H         1 <0>         0.1305
     43 H8          5.7439    2.5029    3.0541 H         1 <0>         0.1509
     44 H9          4.7825    2.4697    0.7886 H         1 <0>         0.1488
     45 H10         1.4312    0.2622    2.2333 H         1 <0>         0.1363
     46 H11         3.1415    1.8597   -0.6947 H         1 <0>         0.1018
     47 H12        -1.6690    2.2564   -1.0054 H         1 <0>         0.1027
     48 H13        -2.0872    1.4464    0.5230 H         1 <0>         0.0928
     49 H14        -0.9154    3.2184    1.7972 H         1 <0>         0.0756
     50 H15        -2.1668    3.9321    0.7487 H         1 <0>         0.0884
     51 H16        -0.0058    5.0965    0.5666 H         1 <0>         0.0886
     52 H17        -0.4691    4.4721   -0.9536 H         1 <0>         0.1008
     53 H18         4.0494   -2.3579   -2.0992 H         1 <0>         0.0884
     54 H19         3.5598   -2.8678   -0.5450 H         1 <0>         0.1007
     55 H20         1.7914   -1.8341   -2.8123 H         1 <0>         0.0754
     56 H21         1.8738   -3.5130   -2.2216 H         1 <0>         0.0888
     57 H22         1.0980   -2.7808    0.0069 H         1 <0>         0.1004
     58 H23        -0.0656   -2.2809   -1.2430 H         1 <0>         0.0926
     59 H24        -1.8419   -0.9276   -0.3799 H         1 <0>         0.0747
     60 H25        -0.8613   -1.6959    0.8915 H         1 <0>         0.0880
     61 H26        -1.6986   -0.1598    1.2196 H         1 <0>         0.0895
@<TRIPOS>BOND
     1    1    2 1
     2    1   36 1
     3    1   37 1
     4    1   38 1
     5    2    7 ar
     6    2    3 ar
     7    3    4 ar
     8    3   39 1
     9    4    5 ar
    10    4   40 1
    11    5    6 ar
    12    5    8 1
    13    6    7 ar
    14    6   41 1
    15    7   42 1
    16    8    9 2
    17    8   10 2
    18    8   11 1
    19   11   12 1
    20   12   17 ar
    21   12   13 ar
    22   13   14 ar
    23   13   43 1
    24   14   15 ar
    25   14   44 1
    26   15   16 ar
    27   15   19 1
    28   16   17 ar
    29   16   45 1
    30   17   18 1
    31   19   29 1
    32   19   20 1
    33   19   46 1
    34   20   25 1
    35   20   21 2
    36   21   22 1
    37   21   27 1
    38   22   23 1
    39   22   47 1
    40   22   48 1
    41   23   24 1
    42   23   49 1
    43   23   50 1
    44   24   25 1
    45   24   51 1
    46   24   52 1
    47   25   26 2
    48   27   28 1
    49   27   35 1
    50   28   34 1
    51   28   29 2
    52   29   30 1
    53   30   31 2
    54   30   32 1
    55   32   33 1
    56   32   53 1
    57   32   54 1
    58   33   34 1
    59   33   55 1
    60   33   56 1
    61   34   57 1
    62   34   58 1
    63   35   59 1
    64   35   60 1
    65   35   61 1
@<TRIPOS>MOLECULE
ZINC16528960
   63    66     0     0     0
SMALL
USER_CHARGES
N-[2-[(4S)-4-(2,4-dichlorophenyl)-6,7-dihydro-4H-thieno[3,2-c]pyridin-5-yl]-2-oxo-ethyl]-3-methyl-N-[[(2S)-tetrahydrofuran-2-yl]methyl]butanamide
@<TRIPOS>ATOM
      1 C1         -6.4601    5.0250   -3.5757 C.3       1 <0>        -0.1526
      2 C2         -6.6408    4.6076   -2.1149 C.3       1 <0>        -0.0795
      3 C3         -8.0750    4.9054   -1.6730 C.3       1 <0>        -0.1465
      4 C4         -6.3647    3.1092   -1.9747 C.3       1 <0>        -0.1425
      5 C5         -4.9176    2.8333   -2.2921 C.2       1 <0>         0.5363
      6 O1         -4.1798    3.7452   -2.6001 O.2       1 <0>        -0.5358
      7 N1         -4.4434    1.5730   -2.2338 N.am      1 <0>        -0.5955
      8 C6         -5.3347    0.4715   -1.8617 C.3       1 <0>         0.0998
      9 C7         -5.3037    0.2807   -0.3440 C.3       1 <0>         0.0640
     10 H1         -4.2750    0.1479   -0.0090 H         1 <0>         0.0983
     11 C8         -6.1450   -0.9536    0.0460 C.3       1 <0>        -0.1515
     12 C9         -6.8443   -0.4756    1.3495 C.3       1 <0>        -0.1525
     13 C10        -7.0485    1.0289    1.0404 C.3       1 <0>         0.0454
     14 O2         -5.8813    1.4218    0.3010 O.3       1 <0>        -0.3561
     15 C11        -3.0366    1.3047   -2.5423 C.3       1 <0>         0.0964
     16 C12        -2.2181    1.4026   -1.2807 C.2       1 <0>         0.4947
     17 O3         -2.7569    1.6700   -0.2276 O.2       1 <0>        -0.4788
     18 N2         -0.8875    1.1928   -1.3228 N.am      1 <0>        -0.6112
     19 C13        -0.1979    1.0370   -2.6121 C.3       1 <0>         0.1147
     20 C14         0.7719    2.2160   -2.7861 C.3       1 <0>        -0.0603
     21 C15         1.4773    2.4512   -1.4902 C.2       1 <0>        -0.1368
     22 C16         1.1339    1.9927   -0.2559 C.2       1 <0>        -0.1359
     23 C17         1.9627    2.3628    0.8021 C.2       1 <0>        -0.1411
     24 C18         3.0471    3.1382    0.5727 C.2       1 <0>        -0.1701
     25 S1          2.9504    3.3930   -1.1929 S.3       1 <0>         0.0520
     26 C19        -0.1056    1.1171   -0.0813 C.3       1 <0>         0.2480
     27 H2          0.1942    0.0856    0.1038 H         1 <0>         0.0998
     28 C20        -0.9299    1.6239    1.0740 C.ar      1 <0>        -0.0234
     29 C21        -1.0105    2.9814    1.3225 C.ar      1 <0>        -0.0700
     30 C22        -1.7662    3.4469    2.3818 C.ar      1 <0>        -0.0958
     31 C23        -2.4431    2.5543    3.1942 C.ar      1 <0>        -0.0208
     32 C24        -2.3628    1.1960    2.9461 C.ar      1 <0>        -0.0928
     33 C25        -1.6103    0.7309    1.8823 C.ar      1 <0>        -0.0044
     34 Cl1        -1.5152   -0.9733    1.5655 Cl        1 <0>        -0.0682
     35 Cl2        -3.3932    3.1393    4.5241 Cl        1 <0>        -0.0664
     36 H3         -7.1564    4.4672   -4.2018 H         1 <0>         0.0453
     37 H4         -6.6568    6.0925   -3.6755 H         1 <0>         0.0506
     38 H5         -5.4384    4.8128   -3.8904 H         1 <0>         0.0713
     39 H6         -5.9445    5.1655   -1.4888 H         1 <0>         0.0751
     40 H7         -8.2038    4.6080   -0.6323 H         1 <0>         0.0542
     41 H8         -8.2717    5.9729   -1.7729 H         1 <0>         0.0563
     42 H9         -8.7714    4.3475   -2.2991 H         1 <0>         0.0526
     43 H10        -7.0003    2.5564   -2.6665 H         1 <0>         0.0824
     44 H11        -6.5792    2.7942   -0.9535 H         1 <0>         0.1199
     45 H12        -6.3515    0.7042   -2.1780 H         1 <0>         0.0864
     46 H13        -5.0031   -0.4449   -2.3499 H         1 <0>         0.0866
     47 H14        -6.8793   -1.1824   -0.7264 H         1 <0>         0.0766
     48 H15        -5.5045   -1.8138    0.2408 H         1 <0>         0.0806
     49 H16        -6.1964   -0.6144    2.2150 H         1 <0>         0.0773
     50 H17        -7.7996   -0.9806    1.4919 H         1 <0>         0.0812
     51 H18        -7.1194    1.5992    1.9666 H         1 <0>         0.0828
     52 H19        -7.9449    1.1746    0.4377 H         1 <0>         0.0574
     53 H20        -2.6775    2.0364   -3.2661 H         1 <0>         0.1122
     54 H21        -2.9411    0.3027   -2.9606 H         1 <0>         0.1042
     55 H22        -0.9276    1.0389   -3.4218 H         1 <0>         0.0980
     56 H23         0.3582    0.0995   -2.6208 H         1 <0>         0.0834
     57 H24         0.2144    3.1097   -3.0664 H         1 <0>         0.0921
     58 H25         1.5006    1.9787   -3.5612 H         1 <0>         0.0970
     59 H26         1.7388    2.0306    1.8050 H         1 <0>         0.1318
     60 H27         3.7802    3.5077    1.2744 H         1 <0>         0.1883
     61 H28        -0.4829    3.6785    0.6883 H         1 <0>         0.1280
     62 H29        -1.8288    4.5076    2.5754 H         1 <0>         0.1318
     63 H30        -2.8912    0.4990    3.5797 H         1 <0>         0.1355
@<TRIPOS>BOND
     1    1    2 1
     2    1   36 1
     3    1   37 1
     4    1   38 1
     5    2    3 1
     6    2    4 1
     7    2   39 1
     8    3   40 1
     9    3   41 1
    10    3   42 1
    11    4    5 1
    12    4   43 1
    13    4   44 1
    14    5    6 2
    15    5    7 am
    16    7    8 1
    17    7   15 1
    18    8    9 1
    19    8   45 1
    20    8   46 1
    21    9   10 1
    22    9   14 1
    23    9   11 1
    24   11   12 1
    25   11   47 1
    26   11   48 1
    27   12   13 1
    28   12   49 1
    29   12   50 1
    30   13   14 1
    31   13   51 1
    32   13   52 1
    33   15   16 1
    34   15   53 1
    35   15   54 1
    36   16   17 2
    37   16   18 am
    38   18   26 1
    39   18   19 1
    40   19   20 1
    41   19   55 1
    42   19   56 1
    43   20   21 1
    44   20   57 1
    45   20   58 1
    46   21   25 1
    47   21   22 2
    48   22   23 1
    49   22   26 1
    50   23   24 2
    51   23   59 1
    52   24   25 1
    53   24   60 1
    54   26   27 1
    55   26   28 1
    56   28   33 ar
    57   28   29 ar
    58   29   30 ar
    59   29   61 1
    60   30   31 ar
    61   30   62 1
    62   31   32 ar
    63   31   35 1
    64   32   33 ar
    65   32   63 1
    66   33   34 1
@<TRIPOS>MOLECULE
ZINC33469973
   60    64     0     0     0
SMALL
USER_CHARGES
(5E)-5-[[2-(azepan-1-yl)-7-methyl-4-oxo-pyrido[1,2-a]pyrimidin-3-yl]methylene]-3-[(2-chlorophenyl)methyl]-2-thioxo-thiazolidin-4-one
@<TRIPOS>ATOM
      1 C1         -6.2093   -1.0953    1.7460 C.3       1 <0>        -0.1107
      2 C2         -6.0552   -1.6105    0.3382 C.2       1 <0>        -0.1361
      3 C3         -7.1562   -1.6164   -0.5292 C.2       1 <0>        -0.0152
      4 C4         -7.0078   -2.0847   -1.8009 C.2       1 <0>        -0.1431
      5 C5         -5.7520   -2.5554   -2.2247 C.2       1 <0>         0.4231
      6 N1         -5.6167   -3.0115   -3.4702 N.2       1 <0>        -0.5711
      7 C6         -4.4553   -3.4600   -3.9241 C.2       1 <0>         0.4418
      8 C7         -3.3293   -3.4717   -3.0675 C.2       1 <0>        -0.3446
      9 C8         -3.4847   -2.9860   -1.7472 C.2       1 <0>         0.5531
     10 O1         -2.5404   -2.9731   -0.9764 O.2       1 <0>        -0.5136
     11 N2         -4.6968   -2.5375   -1.3555 N.am      1 <0>        -0.4240
     12 C9         -4.8557   -2.0679   -0.0856 C.2       1 <0>         0.1069
     13 C10        -2.0784   -3.9513   -3.5210 C.2       1 <0>         0.1700
     14 C11        -1.0175   -3.0988   -3.6247 C.2       1 <0>        -0.2531
     15 C12        -0.9355   -1.7123   -3.3100 C.2       1 <0>         0.5370
     16 O2         -1.9025   -1.1095   -2.8785 O.2       1 <0>        -0.4376
     17 N3          0.2180   -1.0969   -3.5034 N.am      1 <0>        -0.5154
     18 C13         1.2924   -1.7670   -3.9765 C.2       1 <0>         0.2906
     19 S1          2.8690   -1.1804   -4.2945 S.2       1 <0>        -0.3536
     20 S2          0.6488   -3.4203   -4.1862 S.3       1 <0>         0.0581
     21 C14         0.3356    0.3305   -3.1950 C.3       1 <0>         0.1252
     22 C15         0.1748    1.1327   -4.4606 C.ar      1 <0>        -0.1142
     23 C16         1.2898    1.5194   -5.1803 C.ar      1 <0>        -0.0759
     24 C17         1.1425    2.2552   -6.3411 C.ar      1 <0>        -0.1194
     25 C18        -0.1201    2.6042   -6.7835 C.ar      1 <0>        -0.0934
     26 C19        -1.2355    2.2182   -6.0648 C.ar      1 <0>        -0.1207
     27 C20        -1.0887    1.4819   -4.9025 C.ar      1 <0>        -0.0245
     28 Cl1        -2.4894    0.9971   -3.9988 Cl        1 <0>        -0.0410
     29 N4         -4.3467   -3.9180   -5.2189 N.pl3     1 <0>        -0.4796
     30 C21        -3.3667   -3.1158   -5.9848 C.3       1 <0>         0.0635
     31 C22        -3.4101   -3.3965   -7.4622 C.3       1 <0>        -0.1242
     32 C23        -4.3511   -2.3706   -8.1281 C.3       1 <0>        -0.1219
     33 C24        -5.7573   -2.7104   -7.9410 C.3       1 <0>        -0.1253
     34 C25        -6.1564   -2.7393   -6.4506 C.3       1 <0>        -0.1391
     35 C26        -5.6786   -4.0349   -5.8536 C.3       1 <0>         0.0617
     36 H1         -7.2477   -0.7693    1.9055 H         1 <0>         0.0795
     37 H2         -5.5298   -0.2443    1.9014 H         1 <0>         0.0791
     38 H3         -5.9629   -1.8962    2.4586 H         1 <0>         0.0797
     39 H4         -8.1155   -1.2520   -0.1925 H         1 <0>         0.1565
     40 H5         -7.8490   -2.0945   -2.4783 H         1 <0>         0.1693
     41 H6         -4.0130   -2.0606    0.5899 H         1 <0>         0.1823
     42 H7         -1.9605   -5.0113   -3.7901 H         1 <0>         0.1561
     43 H8         -0.4478    0.6164   -2.4776 H         1 <0>         0.1196
     44 H9          1.3246    0.5308   -2.7571 H         1 <0>         0.1181
     45 H10         2.2763    1.2468   -4.8354 H         1 <0>         0.1512
     46 H11         2.0140    2.5571   -6.9031 H         1 <0>         0.1336
     47 H12        -0.2346    3.1788   -7.6907 H         1 <0>         0.1335
     48 H13        -2.2219    2.4873   -6.4127 H         1 <0>         0.1323
     49 H14        -3.5759   -2.0456   -5.8401 H         1 <0>         0.0541
     50 H15        -2.3504   -3.3419   -5.6298 H         1 <0>         0.0848
     51 H16        -2.3977   -3.3054   -7.8826 H         1 <0>         0.0816
     52 H17        -3.7868   -4.4161   -7.6308 H         1 <0>         0.0825
     53 H18        -4.1786   -1.3765   -7.6900 H         1 <0>         0.0594
     54 H19        -4.1490   -2.3351   -9.2088 H         1 <0>         0.0671
     55 H20        -6.3856   -1.9637   -8.4486 H         1 <0>         0.0627
     56 H21        -5.9539   -3.7054   -8.3668 H         1 <0>         0.0649
     57 H22        -5.6891   -1.8908   -5.9294 H         1 <0>         0.0640
     58 H23        -7.2504   -2.6662   -6.3625 H         1 <0>         0.0761
     59 H24        -5.6359   -4.7809   -6.6609 H         1 <0>         0.0853
     60 H25        -6.4168   -4.3504   -5.1015 H         1 <0>         0.0928
@<TRIPOS>BOND
     1    1    2 1
     2    1   36 1
     3    1   37 1
     4    1   38 1
     5    2   12 2
     6    2    3 1
     7    3    4 2
     8    3   39 1
     9    4    5 1
    10    4   40 1
    11    5   11 1
    12    5    6 2
    13    6    7 1
    14    7    8 2
    15    7   29 1
    16    8    9 1
    17    8   13 1
    18    9   10 2
    19    9   11 am
    20   11   12 1
    21   12   41 1
    22   13   14 2
    23   13   42 1
    24   14   20 1
    25   14   15 1
    26   15   16 2
    27   15   17 am
    28   17   18 1
    29   17   21 1
    30   18   19 2
    31   18   20 1
    32   21   22 1
    33   21   43 1
    34   21   44 1
    35   22   27 ar
    36   22   23 ar
    37   23   24 ar
    38   23   45 1
    39   24   25 ar
    40   24   46 1
    41   25   26 ar
    42   25   47 1
    43   26   27 ar
    44   26   48 1
    45   27   28 1
    46   29   35 1
    47   29   30 1
    48   30   31 1
    49   30   49 1
    50   30   50 1
    51   31   32 1
    52   31   51 1
    53   31   52 1
    54   32   33 1
    55   32   53 1
    56   32   54 1
    57   33   34 1
    58   33   55 1
    59   33   56 1
    60   34   35 1
    61   34   57 1
    62   34   58 1
    63   35   59 1
    64   35   60 1
@<TRIPOS>MOLECULE
ZINC39716384
   63    67     0     0     0
SMALL
USER_CHARGES

@<TRIPOS>ATOM
      1 C1         -3.8730   -5.7738    0.3975 C.3       1 <0>        -0.1174
      2 C2         -2.5840   -6.5214    0.1725 C.ar      1 <0>        -0.0714
      3 C3         -2.0639   -6.6340   -1.1033 C.ar      1 <0>        -0.1268
      4 C4         -0.8815   -7.3198   -1.3097 C.ar      1 <0>        -0.0827
      5 C5         -0.2190   -7.8926   -0.2402 C.ar      1 <0>        -0.1290
      6 C6         -0.7386   -7.7793    1.0358 C.ar      1 <0>        -0.0882
      7 C7         -1.9188   -7.0898    1.2427 C.ar      1 <0>        -0.1264
      8 C8          1.0695   -8.6411   -0.4653 C.3       1 <0>         0.1316
      9 N1          2.1986   -7.7144   -0.3528 N.am      1 <0>        -0.5180
     10 C9          2.6288   -7.0781   -1.4284 C.2       1 <0>         0.5474
     11 O1          2.0994   -7.2510   -2.5122 O.2       1 <0>        -0.4572
     12 C10         3.7282   -6.1845   -1.2847 C.2       1 <0>        -0.2570
     13 C11         4.3524   -5.4177   -2.2256 C.2       1 <0>         0.1758
     14 C12         3.9254   -5.4648   -3.5731 C.2       1 <0>        -0.3804
     15 C13         4.7712   -5.9784   -4.5843 C.2       1 <0>         0.5137
     16 N2          4.3448   -6.0103   -5.8386 N.2       1 <0>        -0.5694
     17 C14         3.1330   -5.5692   -6.1770 C.2       1 <0>         0.4343
     18 C15         2.7350   -5.6284   -7.5248 C.2       1 <0>        -0.1116
     19 C16         1.4978   -5.1797   -7.8808 C.2       1 <0>        -0.0263
     20 C17         0.6398   -4.6658   -6.8989 C.2       1 <0>        -0.1680
     21 C18         1.0389   -4.6165   -5.6081 C.2       1 <0>         0.1065
     22 N3          2.2738   -5.0630   -5.2418 N.am      1 <0>        -0.4284
     23 C19         2.6390   -5.0047   -3.9429 C.2       1 <0>         0.5554
     24 O2          1.8754   -4.5588   -3.1039 O.2       1 <0>        -0.5149
     25 C20         3.6699   -6.1835   -8.5682 C.3       1 <0>        -0.0970
     26 N4          6.0294   -6.4416   -4.2673 N.pl3     1 <0>        -0.6068
     27 C21         7.1795   -6.1330   -5.1280 C.3       1 <0>         0.1288
     28 C22         7.8786   -7.4430   -5.5051 C.3       1 <0>        -0.1308
     29 C23         8.2355   -8.2113   -4.2305 C.3       1 <0>        -0.0915
     30 C24         6.9562   -8.5504   -3.4621 C.3       1 <0>        -0.1296
     31 C25         6.2476   -7.2483   -3.0589 C.3       1 <0>         0.1205
     32 C26         8.9648   -9.5040   -4.6020 C.3       1 <0>        -0.1477
     33 S1          4.0678   -6.3398    0.4634 S.3       1 <0>         0.0557
     34 C27         2.7821   -7.5181    0.8506 C.2       1 <0>         0.2902
     35 S2          2.3898   -8.2214    2.3613 S.2       1 <0>        -0.3481
     36 H1         -3.6551   -4.7225    0.5858 H         1 <0>         0.0721
     37 H2         -4.5031   -5.8615   -0.4875 H         1 <0>         0.0671
     38 H3         -4.3930   -6.1967    1.2571 H         1 <0>         0.0686
     39 H4         -2.5815   -6.1864   -1.9389 H         1 <0>         0.1216
     40 H5         -0.4756   -7.4083   -2.3065 H         1 <0>         0.1224
     41 H6         -0.2212   -8.2271    1.8713 H         1 <0>         0.1386
     42 H7         -2.3228   -6.9981    2.2401 H         1 <0>         0.1254
     43 H8          1.1686   -9.4272    0.2832 H         1 <0>         0.1175
     44 H9          1.0622   -9.0858   -1.4604 H         1 <0>         0.1079
     45 H10         5.1724   -4.7750   -1.9411 H         1 <0>         0.1471
     46 H11         1.1811   -5.2197   -8.9125 H         1 <0>         0.1552
     47 H12        -0.3415   -4.3082   -7.1739 H         1 <0>         0.1621
     48 H13         0.3714   -4.2185   -4.8581 H         1 <0>         0.1819
     49 H14         3.5102   -7.2574   -8.6647 H         1 <0>         0.0771
     50 H15         3.4748   -5.6997   -9.5252 H         1 <0>         0.0739
     51 H16         4.7011   -5.9950   -8.2693 H         1 <0>         0.0846
     52 H17         6.8352   -5.6294   -6.0313 H         1 <0>         0.0878
     53 H18         7.8756   -5.4889   -4.5907 H         1 <0>         0.0693
     54 H19         7.2115   -8.0475   -6.1196 H         1 <0>         0.0705
     55 H20         8.7882   -7.2222   -6.0636 H         1 <0>         0.0755
     56 H21         8.8826   -7.5964   -3.6051 H         1 <0>         0.0731
     57 H22         6.2978   -9.1445   -4.0958 H         1 <0>         0.0678
     58 H23         7.2093   -9.1178   -2.5665 H         1 <0>         0.0780
     59 H24         6.8692   -6.6932   -2.3563 H         1 <0>         0.0732
     60 H25         5.2883   -7.4807   -2.5966 H         1 <0>         0.0795
     61 H26         9.8766   -9.2626   -5.1482 H         1 <0>         0.0569
     62 H27         9.2191  -10.0513   -3.6943 H         1 <0>         0.0560
     63 H28         8.3182  -10.1189   -5.2280 H         1 <0>         0.0542
@<TRIPOS>BOND
     1    1    2 1
     2    1   36 1
     3    1   37 1
     4    1   38 1
     5    2    7 ar
     6    2    3 ar
     7    3    4 ar
     8    3   39 1
     9    4    5 ar
    10    4   40 1
    11    5    6 ar
    12    5    8 1
    13    6    7 ar
    14    6   41 1
    15    7   42 1
    16    8    9 1
    17    8   43 1
    18    8   44 1
    19    9   34 1
    20    9   10 am
    21   10   11 2
    22   10   12 1
    23   12   13 2
    24   12   33 1
    25   13   14 1
    26   13   45 1
    27   14   23 1
    28   14   15 2
    29   15   16 1
    30   15   26 1
    31   16   17 2
    32   17   22 1
    33   17   18 1
    34   18   19 2
    35   18   25 1
    36   19   20 1
    37   19   46 1
    38   20   21 2
    39   20   47 1
    40   21   22 1
    41   21   48 1
    42   22   23 am
    43   23   24 2
    44   25   49 1
    45   25   50 1
    46   25   51 1
    47   26   31 1
    48   26   27 1
    49   27   28 1
    50   27   52 1
    51   27   53 1
    52   28   29 1
    53   28   54 1
    54   28   55 1
    55   29   30 1
    56   29   32 1
    57   29   56 1
    58   30   31 1
    59   30   57 1
    60   30   58 1
    61   31   59 1
    62   31   60 1
    63   32   61 1
    64   32   62 1
    65   32   63 1
    66   33   34 1
    67   34   35 2
@<TRIPOS>MOLECULE
ZINC32639613
   46    48     0     0     0
SMALL
USER_CHARGES

@<TRIPOS>ATOM
      1 C1          4.2556   -1.1183    4.4616 C.3       1 <0>        -0.1517
      2 C2          3.5994   -1.1827    3.0809 C.3       1 <0>        -0.1148
      3 C3          2.4191   -2.1554    3.1221 C.3       1 <0>        -0.1185
      4 C4          1.3439   -1.6129    4.0657 C.3       1 <0>        -0.1085
      5 C5          0.8729   -0.2445    3.5693 C.3       1 <0>        -0.1605
      6 C6          1.8432   -2.3053    1.7376 C.2       1 <0>         0.5122
      7 O1          0.6505   -2.1566    1.5560 O.2       1 <0>        -0.4767
      8 N1          2.6404   -2.6005    0.7138 N.2       1 <0>        -0.5764
      9 C7          2.8585   -3.8689    0.3863 C.2       1 <0>         0.4010
     10 N2          2.2288   -4.9482    0.9079 N.pl3     1 <0>        -0.5798
     11 C8          2.6056   -6.2840    0.4784 C.3       1 <0>         0.1406
     12 H1          1.7200   -6.7593    0.0566 H         1 <0>         0.1263
     13 C9          3.0440   -7.1093    1.7104 C.3       1 <0>        -0.5956
     14 S1          4.4030   -8.1402    1.0084 S.o2      1 <0>         2.3768
     15 O2          3.8455   -9.2719    0.3543 O.2       1 <0>        -0.9100
     16 O3          5.4129   -8.3206    1.9917 O.2       1 <0>        -0.9135
     17 C10         4.9884   -6.9298   -0.2566 C.3       1 <0>        -0.5581
     18 C11         3.6771   -6.2277   -0.6178 C.3       1 <0>        -0.1010
     19 H2          3.2876   -6.6216   -1.5565 H         1 <0>         0.1631
     20 S2          3.9579   -4.4212   -0.7525 S.3       1 <0>         0.0722
     21 C12         1.2169   -4.7774    1.8583 C.ar      1 <0>         0.0868
     22 C13        -0.0702   -4.4475    1.4530 C.ar      1 <0>        -0.0400
     23 C14        -1.0672   -4.2795    2.3936 C.ar      1 <0>        -0.0953
     24 C15        -0.7856   -4.4391    3.7381 C.ar      1 <0>        -0.0595
     25 C16         0.4948   -4.7675    4.1453 C.ar      1 <0>        -0.1025
     26 C17         1.4955   -4.9427    3.2085 C.ar      1 <0>        -0.0757
     27 I1          0.9155   -5.0081    6.1835 I         1 <0>        -0.0255
     28 H3          4.5285   -2.1239    4.7814 H         1 <0>         0.0530
     29 H4          5.1504   -0.4980    4.4100 H         1 <0>         0.0584
     30 H5          3.5553   -0.6870    5.1769 H         1 <0>         0.0583
     31 H6          3.2435   -0.1911    2.8012 H         1 <0>         0.0718
     32 H7          4.3287   -1.5272    2.3478 H         1 <0>         0.0700
     33 H8          2.7609   -3.1264    3.4806 H         1 <0>         0.0921
     34 H9          0.4993   -2.3016    4.0884 H         1 <0>         0.0685
     35 H10         1.7580   -1.5126    5.0690 H         1 <0>         0.0688
     36 H11         1.7325    0.4157    3.4537 H         1 <0>         0.0534
     37 H12         0.3713   -0.3595    2.6084 H         1 <0>         0.0686
     38 H13         0.1794    0.1853    4.2921 H         1 <0>         0.0520
     39 H14         3.4165   -6.4598    2.5026 H         1 <0>         0.1484
     40 H15         2.2274   -7.7341    2.0720 H         1 <0>         0.1581
     41 H16         5.7001   -6.2254    0.1741 H         1 <0>         0.1601
     42 H17         5.4171   -7.4400   -1.1191 H         1 <0>         0.1647
     43 H18        -0.2908   -4.3223    0.4032 H         1 <0>         0.1309
     44 H19        -2.0679   -4.0227    2.0788 H         1 <0>         0.1388
     45 H20        -1.5671   -4.3067    4.4717 H         1 <0>         0.1359
     46 H21         2.4941   -5.2038    3.5265 H         1 <0>         0.1325
@<TRIPOS>BOND
     1    1    2 1
     2    1   28 1
     3    1   29 1
     4    1   30 1
     5    2    3 1
     6    2   31 1
     7    2   32 1
     8    3    4 1
     9    3    6 1
    10    3   33 1
    11    4    5 1
    12    4   34 1
    13    4   35 1
    14    5   36 1
    15    5   37 1
    16    5   38 1
    17    6    7 2
    18    6    8 1
    19    8    9 2
    20    9   20 1
    21    9   10 1
    22   10   11 1
    23   10   21 1
    24   11   12 1
    25   11   18 1
    26   11   13 1
    27   13   14 1
    28   13   39 1
    29   13   40 1
    30   14   15 2
    31   14   16 2
    32   14   17 1
    33   17   18 1
    34   17   41 1
    35   17   42 1
    36   18   19 1
    37   18   20 1
    38   21   26 ar
    39   21   22 ar
    40   22   23 ar
    41   22   43 1
    42   23   24 ar
    43   23   44 1
    44   24   25 ar
    45   24   45 1
    46   25   26 ar
    47   25   27 1
    48   26   46 1
@<TRIPOS>MOLECULE
ZINC08722505
   38    39     0     0     0
SMALL
USER_CHARGES
3-(3,4-dimethyl-2-thioxo-thiazol-5-yl)-1-(3,4-dimethyl-2-thioxo-thiazol-5-yl)carbonylamino-urea
@<TRIPOS>ATOM
      1 C1         -6.2865   -5.7590    0.0410 C.3       1 <0>        -0.1231
      2 C2         -4.8025   -6.0202    0.0187 C.2       1 <0>         0.1890
      3 C3         -3.9134   -4.9925    0.0106 C.2       1 <0>        -0.2807
      4 S1         -2.3573   -5.8673   -0.0085 S.3       1 <0>         0.1555
      5 C4         -2.9871   -7.4842   -0.0111 C.2       1 <0>         0.2161
      6 S2         -2.1325   -8.9676   -0.0260 S.2       1 <0>        -0.4005
      7 N1         -4.3227   -7.2769    0.0025 N.pl3     1 <0>        -0.4578
      8 C5         -5.2439   -8.4160    0.0052 C.3       1 <0>         0.0412
      9 C6         -4.1653   -3.5480    0.0212 C.2       1 <0>         0.6283
     10 O1         -5.3081   -3.1296    0.0344 O.2       1 <0>        -0.5034
     11 N2         -3.1312   -2.6835    0.0164 N.am      1 <0>        -0.5266
     12 N3         -3.3719   -1.3034    0.0265 N.am      1 <0>        -0.5091
     13 C7         -2.3379   -0.4390    0.0217 C.2       1 <0>         0.7155
     14 O2         -2.5468    0.7589    0.0305 O.2       1 <0>        -0.5265
     15 N4         -1.0723   -0.9023    0.0071 N.am      1 <0>        -0.6283
     16 C8          0.0021   -0.0041    0.0020 C.2       1 <0>         0.0588
     17 C9          1.3196   -0.2599   -0.0119 C.2       1 <0>         0.0167
     18 N5          2.2100    0.7760   -0.0149 N.pl3     1 <0>        -0.4440
     19 C10         1.7439    2.0483   -0.0036 C.2       1 <0>         0.2229
     20 S3          2.6167    3.5211   -0.0040 S.2       1 <0>        -0.4507
     21 S4         -0.0221    1.7817    0.0118 S.3       1 <0>         0.1997
     22 C11         3.6514    0.5146   -0.0305 C.3       1 <0>         0.0488
     23 C12         1.8143   -1.6834   -0.0248 C.3       1 <0>        -0.1035
     24 H1         -6.6590   -5.6919   -0.9812 H         1 <0>         0.1034
     25 H2         -6.7912   -6.5745    0.5589 H         1 <0>         0.0866
     26 H3         -6.4826   -4.8215    0.5614 H         1 <0>         0.1198
     27 H4         -5.4624   -8.7042    1.0334 H         1 <0>         0.0964
     28 H5         -6.1693   -8.1361   -0.4982 H         1 <0>         0.1024
     29 H6         -4.7854   -9.2553   -0.5178 H         1 <0>         0.1143
     30 H7         -2.2204   -3.0170    0.0059 H         1 <0>         0.4189
     31 H8         -4.2828   -0.9700    0.0371 H         1 <0>         0.4561
     32 H9         -0.9057   -1.8578    0.0000 H         1 <0>         0.4102
     33 H10         3.9988    0.4555   -1.0620 H         1 <0>         0.0898
     34 H11         4.1728    1.3226    0.4828 H         1 <0>         0.1090
     35 H12         3.8551   -0.4288    0.4760 H         1 <0>         0.0961
     36 H13         1.9234   -2.0208   -1.0555 H         1 <0>         0.0896
     37 H14         2.7793   -1.7372    0.4792 H         1 <0>         0.0877
     38 H15         1.0980   -2.3216    0.4926 H         1 <0>         0.0813
@<TRIPOS>BOND
     1    1    2 1
     2    1   24 1
     3    1   25 1
     4    1   26 1
     5    2    7 1
     6    2    3 2
     7    3    4 1
     8    3    9 1
     9    4    5 1
    10    5    6 2
    11    5    7 1
    12    7    8 1
    13    8   27 1
    14    8   28 1
    15    8   29 1
    16    9   10 2
    17    9   11 am
    18   11   12 1
    19   11   30 1
    20   12   13 am
    21   12   31 1
    22   13   14 2
    23   13   15 am
    24   15   16 1
    25   15   32 1
    26   16   21 1
    27   16   17 2
    28   17   18 1
    29   17   23 1
    30   18   19 1
    31   18   22 1
    32   19   20 2
    33   19   21 1
    34   22   33 1
    35   22   34 1
    36   22   35 1
    37   23   36 1
    38   23   37 1
    39   23   38 1
@<TRIPOS>MOLECULE
ZINC22907626
   46    48     0     0     0
SMALL
USER_CHARGES
N-(8-methyl-2,4-dioxo-1,3-diazaspiro[4.5]decan-3-yl)-2-[(2,3,4-trifluorophenyl)amino]acetamide
@<TRIPOS>ATOM
      1 C1          5.0079    4.2046   -0.0230 C.3       1 <0>        -0.1509
      2 C2          3.5326    3.7993   -0.0111 C.3       1 <0>        -0.0980
      3 C3          3.2199    2.9760   -1.2622 C.3       1 <0>        -0.1121
      4 C4          1.7409    2.5811   -1.2554 C.3       1 <0>        -0.1167
      5 C5          1.4348    1.7684   -0.0021 C.3       1 <0>         0.1279
      6 C6          1.7649    2.5674    1.2538 C.3       1 <0>        -0.1152
      7 C7          3.2439    2.9621    1.2368 C.3       1 <0>        -0.1124
      8 C8         -0.0162    1.3449    0.0094 C.2       1 <0>         0.5314
      9 O1         -0.9911    2.0656    0.0182 O.2       1 <0>        -0.4499
     10 N1          0.0021   -0.0041    0.0020 N.am      1 <0>        -0.3752
     11 C9          1.2532   -0.4801   -0.0125 C.2       1 <0>         0.7165
     12 O2          1.5257   -1.6645   -0.0209 O.2       1 <0>        -0.5276
     13 N2          2.1760    0.5009   -0.0161 N.am      1 <0>        -0.7193
     14 N3         -1.1459   -0.8072    0.0091 N.am      1 <0>        -0.5141
     15 C10        -1.5361   -1.4349   -1.1178 C.2       1 <0>         0.5211
     16 O3         -0.8935   -1.3046   -2.1381 O.2       1 <0>        -0.5086
     17 C11        -2.7709   -2.2988   -1.1102 C.3       1 <0>         0.1198
     18 N4         -2.9795   -2.8644   -2.4454 N.pl3     1 <0>        -0.7384
     19 C12        -4.0717   -3.7063   -2.6861 C.ar      1 <0>         0.2186
     20 C13        -4.9546   -4.0103   -1.6589 C.ar      1 <0>        -0.1634
     21 C14        -6.0356   -4.8371   -1.8986 C.ar      1 <0>        -0.0772
     22 C15        -6.2342   -5.3720   -3.1597 C.ar      1 <0>         0.0330
     23 C16        -5.3519   -5.0758   -4.1873 C.ar      1 <0>         0.0873
     24 C17        -4.2704   -4.2435   -3.9526 C.ar      1 <0>         0.0149
     25 F1         -3.4101   -3.9537   -4.9531 F         1 <0>        -0.1218
     26 F2         -5.5469   -5.5996   -5.4173 F         1 <0>        -0.1146
     27 F3         -7.2892   -6.1842   -3.3894 F         1 <0>        -0.1251
     28 H1          5.2156    4.8064   -0.9200 H         1 <0>         0.0579
     29 H2          5.6361    3.3017   -0.0337 H         1 <0>         0.0563
     30 H3          5.2326    4.7970    0.8762 H         1 <0>         0.0578
     31 H4          2.9041    4.7020   -0.0002 H         1 <0>         0.0780
     32 H5          3.4357    3.5754   -2.1589 H         1 <0>         0.0784
     33 H6          3.8420    2.0688   -1.2692 H         1 <0>         0.0664
     34 H7          1.1191    3.4885   -1.2638 H         1 <0>         0.0913
     35 H8          1.5188    1.9761   -2.1469 H         1 <0>         0.0778
     36 H9          1.1445    3.4752    1.2844 H         1 <0>         0.0920
     37 H10         1.5605    1.9534    2.1433 H         1 <0>         0.0770
     38 H11         3.8659    2.0550    1.2217 H         1 <0>         0.0665
     39 H12         3.4770    3.5515    2.1358 H         1 <0>         0.0785
     40 H13         3.2759    0.5071   -0.0267 H         1 <0>         0.4722
     41 H14        -1.7287   -0.9254    0.9345 H         1 <0>         0.4567
     42 H15        -2.6437   -3.1139   -0.3825 H         1 <0>         0.1072
     43 H16        -3.6429   -1.6897   -0.8297 H         1 <0>         0.1068
     44 H17        -2.2779   -2.6275   -3.2588 H         1 <0>         0.4455
     45 H18        -4.7990   -3.5972   -0.6732 H         1 <0>         0.1489
     46 H19        -6.7239   -5.0699   -1.0996 H         1 <0>         0.1546
@<TRIPOS>BOND
     1    1    2 1
     2    1   28 1
     3    1   29 1
     4    1   30 1
     5    2    7 1
     6    2    3 1
     7    2   31 1
     8    3    4 1
     9    3   32 1
    10    3   33 1
    11    4    5 1
    12    4   34 1
    13    4   35 1
    14    5   13 1
    15    5    6 1
    16    5    8 1
    17    6    7 1
    18    6   36 1
    19    6   37 1
    20    7   38 1
    21    7   39 1
    22    8    9 2
    23    8   10 am
    24   10   11 am
    25   10   14 1
    26   11   12 2
    27   11   13 am
    28   13   40 1
    29   14   15 am
    30   14   41 1
    31   15   16 2
    32   15   17 1
    33   17   18 1
    34   17   42 1
    35   17   43 1
    36   18   19 1
    37   18   44 1
    38   19   24 ar
    39   19   20 ar
    40   20   21 ar
    41   20   45 1
    42   21   22 ar
    43   21   46 1
    44   22   23 ar
    45   22   27 1
    46   23   24 ar
    47   23   26 1
    48   24   25 1
@<TRIPOS>MOLECULE
ZINC43511121
   61    64     0     0     0
SMALL
USER_CHARGES

@<TRIPOS>ATOM
      1 C1         -0.0187    1.5267    0.0104 C.3       1 <0>        -0.1482
      2 C2          0.0021   -0.0041    0.0020 C.3       1 <0>        -0.0616
      3 H1          0.5186   -0.3384   -0.9063 H         1 <0>         0.0881
      4 C3         -1.4342   -0.5268   -0.0373 C.3       1 <0>         0.0933
      5 H2         -1.4283   -1.6090   -0.1532 H         1 <0>         0.0854
      6 C4         -2.1761   -0.1259    1.2388 C.3       1 <0>        -0.1233
      7 C5         -1.4860   -0.7405    2.4586 C.3       1 <0>        -0.0148
      8 C6         -0.0222   -0.3367    2.5032 C.3       1 <0>        -0.0647
      9 H3          0.0174    0.7577    2.7094 H         1 <0>         0.0762
     10 C7          0.7457   -0.5402    1.2150 C.3       1 <0>        -0.0429
     11 C8          1.1925   -1.9937    0.9799 C.3       1 <0>        -0.1416
     12 C9          2.5107   -2.1003    1.7869 C.3       1 <0>         0.1567
     13 H4          2.3225   -2.6083    2.7413 H         1 <0>         0.0943
     14 O1          2.9709   -0.7609    2.0203 O.3       1 <0>        -0.3802
     15 C10         2.1208    0.1679    1.3279 C.3       1 <0>         0.2547
     16 H5          2.0205    1.0870    1.8925 H         1 <0>         0.1006
     17 O2          2.6572    0.4145    0.0283 O.3       1 <0>        -0.5614
     18 C11         3.5359   -2.8834    1.0079 C.2       1 <0>        -0.1994
     19 C12         3.8010   -4.2677    1.1184 C.2       1 <0>        -0.2061
     20 C13         4.7850   -4.5470    0.2448 C.2       1 <0>        -0.0412
     21 O3          5.1279   -3.4117   -0.3854 O.3       1 <0>        -0.1780
     22 C14         4.3702   -2.4005    0.0697 C.2       1 <0>        -0.0126
     23 C15         0.6704   -1.0018    3.6936 C.3       1 <0>        -0.1276
     24 C16         0.0008   -0.5182    4.9831 C.3       1 <0>        -0.1495
     25 C17        -1.4872   -0.8499    4.9743 C.3       1 <0>         0.0816
     26 H6         -1.6202   -1.9328    5.0143 H         1 <0>         0.0644
     27 C18        -2.1896   -0.2811    3.7421 C.3       1 <0>         0.1575
     28 C19        -2.2440    1.2414    3.8380 C.3       1 <0>        -0.1769
     29 O4         -3.5360   -0.7844    3.7173 O.3       1 <0>        -0.5574
     30 O5         -2.0928   -0.2883    6.1485 O.3       1 <0>        -0.5715
     31 C20        -1.6625   -2.2645    2.3825 C.3       1 <0>        -0.1507
     32 O6         -2.1080    0.0471   -1.1658 O.3       1 <0>        -0.3468
     33 C21        -3.0794   -0.6856   -1.7328 C.2       1 <0>         0.4564
     34 O7         -3.3506   -1.7762   -1.2891 O.2       1 <0>        -0.5095
     35 C22        -3.8316   -0.1478   -2.9228 C.3       1 <0>        -0.1482
     36 H7          1.0039    1.9040    0.0027 H         1 <0>         0.0669
     37 H8         -0.5459    1.8878   -0.8726 H         1 <0>         0.0661
     38 H9         -0.5289    1.8783    0.9072 H         1 <0>         0.0523
     39 H10        -2.2228    0.9545    1.3130 H         1 <0>         0.0793
     40 H11        -3.2003   -0.5148    1.1821 H         1 <0>         0.0771
     41 H12         0.4788   -2.7344    1.3108 H         1 <0>         0.0934
     42 H13         1.4000   -2.1527   -0.0898 H         1 <0>         0.0816
     43 H14         3.5175    0.8561    0.0352 H         1 <0>         0.3834
     44 H15         3.3085   -4.9667    1.7782 H         1 <0>         0.1477
     45 H16         5.2250   -5.5192    0.0787 H         1 <0>         0.2022
     46 H17         4.4234   -1.3734   -0.2598 H         1 <0>         0.2014
     47 H18         0.6199   -2.0811    3.6274 H         1 <0>         0.0719
     48 H19         1.7196   -0.6930    3.7158 H         1 <0>         0.0883
     49 H20         0.4763   -1.0164    5.8337 H         1 <0>         0.0682
     50 H21         0.1482    0.5564    5.0862 H         1 <0>         0.0739
     51 H22        -2.7913    1.6399    2.9837 H         1 <0>         0.0644
     52 H23        -2.7493    1.5296    4.7598 H         1 <0>         0.0715
     53 H24        -1.2302    1.6418    3.8389 H         1 <0>         0.0642
     54 H25        -4.0605   -0.5429    4.4929 H         1 <0>         0.3806
     55 H26        -1.7247   -0.6213    6.9784 H         1 <0>         0.3806
     56 H27        -1.2086   -2.6374    1.4643 H         1 <0>         0.0586
     57 H28        -1.1792   -2.7296    3.2417 H         1 <0>         0.0567
     58 H29        -2.7250   -2.5079    2.3874 H         1 <0>         0.0740
     59 H30        -3.3227   -0.4460   -3.8394 H         1 <0>         0.1044
     60 H31        -4.8453   -0.5485   -2.9231 H         1 <0>         0.1024
     61 H32        -3.8709    0.9400   -2.8664 H         1 <0>         0.0938
@<TRIPOS>BOND
     1    1    2 1
     2    1   36 1
     3    1   37 1
     4    1   38 1
     5    2    3 1
     6    2   10 1
     7    2    4 1
     8    4    5 1
     9    4    6 1
    10    4   32 1
    11    6    7 1
    12    6   39 1
    13    6   40 1
    14    7   27 1
    15    7    8 1
    16    7   31 1
    17    8    9 1
    18    8   10 1
    19    8   23 1
    20   10   15 1
    21   10   11 1
    22   11   12 1
    23   11   41 1
    24   11   42 1
    25   12   13 1
    26   12   14 1
    27   12   18 1
    28   14   15 1
    29   15   16 1
    30   15   17 1
    31   17   43 1
    32   18   22 2
    33   18   19 1
    34   19   20 2
    35   19   44 1
    36   20   21 1
    37   20   45 1
    38   21   22 1
    39   22   46 1
    40   23   24 1
    41   23   47 1
    42   23   48 1
    43   24   25 1
    44   24   49 1
    45   24   50 1
    46   25   26 1
    47   25   27 1
    48   25   30 1
    49   27   28 1
    50   27   29 1
    51   28   51 1
    52   28   52 1
    53   28   53 1
    54   29   54 1
    55   30   55 1
    56   31   56 1
    57   31   57 1
    58   31   58 1
    59   32   33 1
    60   33   34 2
    61   33   35 1
    62   35   59 1
    63   35   60 1
    64   35   61 1
@<TRIPOS>MOLECULE
ZINC19731631
   42    44     0     0     0
SMALL
USER_CHARGES

@<TRIPOS>ATOM
      1 C1          0.2022    1.5535   -0.7584 C.ar      1 <0>        -0.1338
      2 C2          1.3296    2.3098   -1.0192 C.ar      1 <0>        -0.0181
      3 C3          2.5357    1.6859   -1.2781 C.ar      1 <0>        -0.6723
      4 C4          2.6145    0.3058   -1.2758 C.ar      1 <0>        -0.0180
      5 C5          1.4873   -0.4504   -1.0141 C.ar      1 <0>        -0.1149
      6 C6          0.2809    0.1734   -0.7566 C.ar      1 <0>        -0.0277
      7 C7         -0.9480   -0.6510   -0.4719 C.3       1 <0>         0.0848
      8 N1         -1.6479   -0.9378   -1.7312 N.3       1 <0>        -0.6640
      9 C8         -2.8539   -1.7417   -1.4920 C.3       1 <0>         0.0557
     10 H1         -3.3119   -1.4704   -0.5409 H         1 <0>         0.1090
     11 C9         -3.8599   -1.5682   -2.6481 C.3       1 <0>        -0.1562
     12 C10        -3.9939   -2.9651   -3.2143 C.2       1 <0>         0.5322
     13 O1         -4.6978   -3.2789   -4.1500 O.2       1 <0>        -0.4624
     14 N2         -3.2115   -3.7993   -2.5183 N.am      1 <0>        -0.5304
     15 C11        -2.5244   -3.2182   -1.5225 C.2       1 <0>         0.5416
     16 O2         -1.7612   -3.7831   -0.7687 O.2       1 <0>        -0.4562
     17 C12        -3.1187   -5.1689   -2.8046 C.ar      1 <0>         0.1234
     18 C13        -3.6115   -6.1026   -1.9032 C.ar      1 <0>        -0.0945
     19 C14        -3.5189   -7.4509   -2.1875 C.ar      1 <0>        -0.0786
     20 C15        -2.9355   -7.8714   -3.3695 C.ar      1 <0>        -0.0813
     21 C16        -2.4436   -6.9429   -4.2695 C.ar      1 <0>        -0.0781
     22 C17        -2.5390   -5.5931   -3.9925 C.ar      1 <0>        -0.0916
     23 Br1        -2.8097   -9.7184   -3.7553 Br        1 <0>        -0.0370
     24 S1          3.9724    2.6498   -1.6116 S.o2      1 <0>         2.7007
     25 O3          4.8524    1.8218   -2.3594 O.2       1 <0>        -0.9616
     26 O4          3.5157    3.9064   -2.0929 O.2       1 <0>        -0.9624
     27 N3          4.7149    2.9404   -0.1602 N.pl3     1 <0>        -1.2498
     28 H2         -0.7391    2.0410   -0.5517 H         1 <0>         0.1338
     29 H3          1.2680    3.3880   -1.0210 H         1 <0>         0.1447
     30 H4          3.5566   -0.1816   -1.4788 H         1 <0>         0.1450
     31 H5          1.5487   -1.5287   -1.0130 H         1 <0>         0.1373
     32 H6         -0.6553   -1.5877    0.0026 H         1 <0>         0.1001
     33 H7         -1.6104   -0.0979    0.1940 H         1 <0>         0.0566
     34 H8         -1.8729   -0.0855   -2.2221 H         1 <0>         0.3607
     35 H9         -4.8193   -1.2132   -2.2717 H         1 <0>         0.1314
     36 H10        -3.4655   -0.8855   -3.4006 H         1 <0>         0.1326
     37 H11        -4.0667   -5.7748   -0.9803 H         1 <0>         0.1360
     38 H12        -3.9018   -8.1777   -1.4864 H         1 <0>         0.1437
     39 H13        -1.9883   -7.2736   -5.1914 H         1 <0>         0.1440
     40 H14        -2.1591   -4.8685   -4.6976 H         1 <0>         0.1372
     41 H15         4.3319    2.5900    0.6592 H         1 <0>         0.4168
     42 H16         5.5328    3.4609   -0.1295 H         1 <0>         0.4219
@<TRIPOS>BOND
     1    1    6 ar
     2    1    2 ar
     3    1   28 1
     4    2    3 ar
     5    2   29 1
     6    3    4 ar
     7    3   24 1
     8    4    5 ar
     9    4   30 1
    10    5    6 ar
    11    5   31 1
    12    6    7 1
    13    7    8 1
    14    7   32 1
    15    7   33 1
    16    8    9 1
    17    8   34 1
    18    9   10 1
    19    9   15 1
    20    9   11 1
    21   11   12 1
    22   11   35 1
    23   11   36 1
    24   12   13 2
    25   12   14 am
    26   14   15 am
    27   14   17 1
    28   15   16 2
    29   17   22 ar
    30   17   18 ar
    31   18   19 ar
    32   18   37 1
    33   19   20 ar
    34   19   38 1
    35   20   21 ar
    36   20   23 1
    37   21   22 ar
    38   21   39 1
    39   22   40 1
    40   24   25 2
    41   24   26 2
    42   24   27 1
    43   27   41 1
    44   27   42 1
@<TRIPOS>MOLECULE
ZINC63456911
   37    38     0     0     0
SMALL
USER_CHARGES

@<TRIPOS>ATOM
      1 C1          0.0154    1.4821    0.0292 C.3       1 <0>        -0.0637
      2 C2          0.0278   -0.0248    0.0211 C.2       1 <0>         0.0588
      3 N1         -0.9918   -0.8468    0.0159 N.2       1 <0>        -0.4882
      4 C3         -0.8194   -2.1536    0.0090 C.2       1 <0>         0.0813
      5 C4          0.4609   -2.6052    0.0075 C.2       1 <0>        -0.2313
      6 S1          1.3551   -1.0596    0.0091 S.3       1 <0>         0.0953
      7 C5         -1.9898   -3.1028    0.0035 C.3       1 <0>         0.0125
      8 C6         -2.8940   -2.7921    1.1684 C.2       1 <0>         0.3770
      9 N2         -2.5973   -1.8299    1.9777 N.2       1 <0>        -0.3972
     10 O1         -3.4469   -1.5380    3.0723 O.3       1 <0>        -0.2357
     11 C7         -2.9972   -0.4508    3.8833 C.3       1 <0>         0.0741
     12 C8         -3.9714   -0.2293    5.0116 C.2       1 <0>         0.5177
     13 O2         -4.9541   -0.9331    5.1113 O.2       1 <0>        -0.4992
     14 N3         -3.7506    0.7510    5.9098 N.am      1 <0>        -0.6721
     15 C9         -4.7024    1.0202    6.9000 C.ar      1 <0>         0.1617
     16 C10        -4.9156    2.3255    7.3234 C.ar      1 <0>        -0.1383
     17 C11        -5.8557    2.5883    8.3003 C.ar      1 <0>        -0.0709
     18 C12        -6.5850    1.5526    8.8570 C.ar      1 <0>        -0.1057
     19 C13        -6.3746    0.2512    8.4370 C.ar      1 <0>        -0.0708
     20 C14        -5.4394   -0.0168    7.4567 C.ar      1 <0>        -0.1159
     21 Br1        -7.8710    1.9163   10.1948 Br        1 <0>        -0.0489
     22 N4         -4.0367   -3.5339    1.3701 N.pl3     1 <0>        -0.8721
     23 H1          1.0401    1.8538    0.0266 H         1 <0>         0.0832
     24 H2         -0.5053    1.8460   -0.8565 H         1 <0>         0.0896
     25 H3         -0.4974    1.8364    0.9234 H         1 <0>         0.0891
     26 H4          0.8349   -3.6184    0.0029 H         1 <0>         0.1950
     27 H5         -2.5450   -2.9897   -0.9276 H         1 <0>         0.1100
     28 H6         -1.6272   -4.1272    0.0882 H         1 <0>         0.1112
     29 H7         -2.0145   -0.6851    4.2926 H         1 <0>         0.0839
     30 H8         -2.9323    0.4524    3.2767 H         1 <0>         0.0870
     31 H9         -2.9320    1.2699    5.8700 H         1 <0>         0.4154
     32 H10        -4.3464    3.1342    6.8895 H         1 <0>         0.1366
     33 H11        -6.0217    3.6032    8.6303 H         1 <0>         0.1383
     34 H12        -6.9450   -0.5554    8.8734 H         1 <0>         0.1372
     35 H13        -5.2786   -1.0323    7.1262 H         1 <0>         0.1478
     36 H14        -4.2595   -4.2564    0.7624 H         1 <0>         0.3975
     37 H15        -4.6187   -3.3339    2.1199 H         1 <0>         0.4099
@<TRIPOS>BOND
     1    1    2 1
     2    1   23 1
     3    1   24 1
     4    1   25 1
     5    2    6 1
     6    2    3 2
     7    3    4 1
     8    4    5 2
     9    4    7 1
    10    5    6 1
    11    5   26 1
    12    7    8 1
    13    7   27 1
    14    7   28 1
    15    8    9 2
    16    8   22 1
    17    9   10 1
    18   10   11 1
    19   11   12 1
    20   11   29 1
    21   11   30 1
    22   12   13 2
    23   12   14 am
    24   14   15 1
    25   14   31 1
    26   15   20 ar
    27   15   16 ar
    28   16   17 ar
    29   16   32 1
    30   17   18 ar
    31   17   33 1
    32   18   19 ar
    33   18   21 1
    34   19   20 ar
    35   19   34 1
    36   20   35 1
    37   22   36 1
    38   22   37 1
@<TRIPOS>MOLECULE
ZINC67620798
   42    44     0     0     0
SMALL
USER_CHARGES

@<TRIPOS>ATOM
      1 C1          1.2731   -1.4190    2.3759 C.3       1 <0>        -0.1518
      2 C2          0.5655   -1.2886    1.0257 C.3       1 <0>         0.0550
      3 O1         -0.7364   -1.8715    1.1119 O.3       1 <0>        -0.3500
      4 C3         -1.4978   -1.8393   -0.0033 C.2       1 <0>         0.5470
      5 O2         -1.0654   -1.3290   -1.0215 O.2       1 <0>        -0.4947
      6 C4         -2.7858   -2.3932    0.0109 C.2       1 <0>        -0.4033
      7 C5         -2.9371   -3.7405   -0.0874 C.2       1 <0>         0.4544
      8 O3         -4.1551   -4.3055   -0.0768 O.3       1 <0>        -0.2039
      9 C6         -5.2494   -3.5602   -0.3684 C.2       1 <0>        -0.0442
     10 C7         -6.4492   -4.2158   -0.7679 C.2       1 <0>         0.4145
     11 O4         -6.5040   -5.4333   -0.8503 O.2       1 <0>        -0.4561
     12 C8         -7.5776   -3.4119   -1.0664 C.2       1 <0>        -0.2687
     13 C9         -7.4645   -2.0735   -0.9608 C.2       1 <0>         0.1242
     14 O5         -6.3254   -1.4926   -0.5854 O.3       1 <0>        -0.1843
     15 C10        -5.2324   -2.2139   -0.2897 C.2       1 <0>         0.0824
     16 C11        -3.9793   -1.4897    0.1410 C.3       1 <0>         0.1104
     17 H1         -3.8375   -0.6118   -0.4893 H         1 <0>         0.1210
     18 C12        -4.1191   -1.0515    1.5761 C.ar      1 <0>        -0.1653
     19 C13        -4.2948   -1.9944    2.5741 C.ar      1 <0>         0.1492
     20 C14        -4.4232   -1.5906    3.8925 C.ar      1 <0>        -0.1622
     21 C15        -4.3759   -0.2467    4.2119 C.ar      1 <0>        -0.0537
     22 C16        -4.2009    0.6956    3.2161 C.ar      1 <0>        -0.1627
     23 C17        -4.0661    0.2937    1.8978 C.ar      1 <0>         0.1443
     24 F1         -3.8890    1.2146    0.9253 F         1 <0>        -0.1251
     25 F2         -4.3415   -3.3080    2.2622 F         1 <0>        -0.1213
     26 C18        -8.6584   -1.2098   -1.2762 C.3       1 <0>         0.1308
     27 O6         -9.7595   -2.0387   -1.6537 O.3       1 <0>        -0.5583
     28 N1         -1.8277   -4.5355   -0.1989 N.pl3     1 <0>        -0.8197
     29 H2          2.2662   -0.9744    2.3101 H         1 <0>         0.0799
     30 H3          0.6937   -0.9024    3.1411 H         1 <0>         0.0665
     31 H4          1.3636   -2.4730    2.6384 H         1 <0>         0.0659
     32 H5          0.4750   -0.2346    0.7632 H         1 <0>         0.0682
     33 H6          1.1449   -1.8052    0.2605 H         1 <0>         0.0671
     34 H7         -8.5097   -3.8632   -1.3729 H         1 <0>         0.1832
     35 H8         -4.5607   -2.3260    4.6713 H         1 <0>         0.1458
     36 H9         -4.4761    0.0673    5.2403 H         1 <0>         0.1473
     37 H10        -4.1648    1.7455    3.4667 H         1 <0>         0.1469
     38 H11        -8.9278   -0.6267   -0.3955 H         1 <0>         0.0890
     39 H12        -8.4128   -0.5359   -2.0969 H         1 <0>         0.0897
     40 H13       -10.5643   -1.5486   -1.8712 H         1 <0>         0.4014
     41 H14        -0.9424   -4.1451   -0.1309 H         1 <0>         0.4252
     42 H15        -1.9273   -5.4891   -0.3458 H         1 <0>         0.4162
@<TRIPOS>BOND
     1    1    2 1
     2    1   29 1
     3    1   30 1
     4    1   31 1
     5    2    3 1
     6    2   32 1
     7    2   33 1
     8    3    4 1
     9    4    5 2
    10    4    6 1
    11    6   16 1
    12    6    7 2
    13    7    8 1
    14    7   28 1
    15    8    9 1
    16    9   15 2
    17    9   10 1
    18   10   11 2
    19   10   12 1
    20   12   13 2
    21   12   34 1
    22   13   14 1
    23   13   26 1
    24   14   15 1
    25   15   16 1
    26   16   17 1
    27   16   18 1
    28   18   23 ar
    29   18   19 ar
    30   19   20 ar
    31   19   25 1
    32   20   21 ar
    33   20   35 1
    34   21   22 ar
    35   21   36 1
    36   22   23 ar
    37   22   37 1
    38   23   24 1
    39   26   27 1
    40   26   38 1
    41   26   39 1
    42   27   40 1
    43   28   41 1
    44   28   42 1
@<TRIPOS>MOLECULE
ZINC09714802
   45    47     0     0     0
SMALL
USER_CHARGES
2-[3-(4-fluorophenyl)sulfonylaminobenzoyl]amino-N-methyl-thiophene-3-carboxamide
@<TRIPOS>ATOM
      1 C1          1.3286    1.8817   -0.2797 C.3       1 <0>         0.0869
      2 N1          0.0822    1.1125   -0.3133 N.am      1 <0>        -0.7286
      3 C2         -1.1044    1.7500   -0.2698 C.2       1 <0>         0.5860
      4 O1         -1.1405    2.9644   -0.1975 O.2       1 <0>        -0.5612
      5 C3         -2.3518    0.9806   -0.3096 C.2       1 <0>        -0.2604
      6 C4         -2.3503   -0.4600   -0.4013 C.2       1 <0>        -0.1064
      7 C5         -3.5464   -1.0750   -0.4269 C.2       1 <0>        -0.2361
      8 S1         -4.7037    0.2757   -0.3409 S.3       1 <0>         0.2300
      9 C6         -3.5942    1.6029   -0.2667 C.2       1 <0>         0.1182
     10 N2         -3.8762    2.9569   -0.1846 N.am      1 <0>        -0.6062
     11 C7         -5.1561    3.3780   -0.1536 C.2       1 <0>         0.5543
     12 O2         -6.0631    2.5698   -0.1977 O.2       1 <0>        -0.4943
     13 C8         -5.4570    4.8224   -0.0659 C.ar      1 <0>        -0.1207
     14 C9         -4.4169    5.7525   -0.0093 C.ar      1 <0>        -0.0869
     15 C10        -4.7003    7.1006    0.0681 C.ar      1 <0>        -0.0978
     16 C11        -6.0123    7.5353    0.0996 C.ar      1 <0>        -0.1187
     17 C12        -7.0549    6.6176    0.0491 C.ar      1 <0>         0.1349
     18 C13        -6.7807    5.2608   -0.0337 C.ar      1 <0>        -0.0613
     19 N3         -8.3790    7.0620    0.0822 N.pl3     1 <0>        -1.0547
     20 S2         -8.8423    8.2023    1.1900 S.o2      1 <0>         2.6939
     21 O3         -7.9331    9.2868    1.0611 O.2       1 <0>        -0.9433
     22 O4        -10.2464    8.3640    1.0436 O.2       1 <0>        -0.9425
     23 C14        -8.5790    7.5119    2.7896 C.ar      1 <0>        -0.6941
     24 C15        -9.5495    6.7135    3.3655 C.ar      1 <0>         0.0139
     25 C16        -9.3421    6.1674    4.6180 C.ar      1 <0>        -0.1741
     26 C17        -8.1661    6.4289    5.3005 C.ar      1 <0>         0.1624
     27 C18        -7.1970    7.2330    4.7249 C.ar      1 <0>        -0.1740
     28 C19        -7.4044    7.7736    3.4700 C.ar      1 <0>         0.0134
     29 F1         -7.9642    5.8995    6.5269 F         1 <0>        -0.1263
     30 H1          1.3762    2.4561    0.6455 H         1 <0>         0.0616
     31 H2          2.1777    1.1999   -0.3282 H         1 <0>         0.0770
     32 H3          1.3592    2.5613   -1.1313 H         1 <0>         0.0616
     33 H4          0.1110    0.1446   -0.3709 H         1 <0>         0.4028
     34 H5         -1.4281   -1.0204   -0.4434 H         1 <0>         0.1402
     35 H6         -3.7546   -2.1329   -0.4889 H         1 <0>         0.1906
     36 H7         -3.1525    3.6018   -0.1494 H         1 <0>         0.4340
     37 H8         -3.3906    5.4168   -0.0295 H         1 <0>         0.1350
     38 H9         -3.8945    7.8185    0.1084 H         1 <0>         0.1444
     39 H10        -6.2279    8.5917    0.1641 H         1 <0>         0.1652
     40 H11        -7.5893    4.5460   -0.0734 H         1 <0>         0.1475
     41 H12        -9.0270    6.7026   -0.5438 H         1 <0>         0.4316
     42 H13       -10.4685    6.5130    2.8347 H         1 <0>         0.1514
     43 H14       -10.0987    5.5404    5.0660 H         1 <0>         0.1493
     44 H15        -6.2791    7.4373    5.2561 H         1 <0>         0.1489
     45 H16        -6.6485    8.4005    3.0207 H         1 <0>         0.1529
@<TRIPOS>BOND
     1    1    2 1
     2    1   30 1
     3    1   31 1
     4    1   32 1
     5    2    3 am
     6    2   33 1
     7    3    4 2
     8    3    5 1
     9    5    9 2
    10    5    6 1
    11    6    7 2
    12    6   34 1
    13    7    8 1
    14    7   35 1
    15    8    9 1
    16    9   10 1
    17   10   11 am
    18   10   36 1
    19   11   12 2
    20   11   13 1
    21   13   18 ar
    22   13   14 ar
    23   14   15 ar
    24   14   37 1
    25   15   16 ar
    26   15   38 1
    27   16   17 ar
    28   16   39 1
    29   17   18 ar
    30   17   19 1
    31   18   40 1
    32   19   20 1
    33   19   41 1
    34   20   21 2
    35   20   22 2
    36   20   23 1
    37   23   28 ar
    38   23   24 ar
    39   24   25 ar
    40   24   42 1
    41   25   26 ar
    42   25   43 1
    43   26   27 ar
    44   26   29 1
    45   27   28 ar
    46   27   44 1
    47   28   45 1
@<TRIPOS>MOLECULE
ZINC08636388
   52    54     0     0     0
SMALL
USER_CHARGES
(3aR,4R,6R,7R,7aR)-N-allyl-6,7-dihydroxy-N-methyl-2-thioxo-3-[4-(trifluoromethoxy)phenyl]-3a,4,5,6,7,7a-hexahydro-1H-benzimidazole-4-carboxamide
@<TRIPOS>ATOM
      1 C1          1.6750   -2.7727   -2.0799 C.3       1 <0>         0.0415
      2 N1          1.2318   -2.3878   -3.4222 N.am      1 <0>        -0.5919
      3 C2          2.1589   -2.4765   -4.5531 C.3       1 <0>         0.1137
      4 C3          3.0400   -1.2542   -4.5774 C.2       1 <0>        -0.1680
      5 C4          4.3433   -1.3864   -4.5867 C.2       1 <0>        -0.1803
      6 C5         -0.0287   -1.9522   -3.6166 C.2       1 <0>         0.4633
      7 O1         -0.3635   -1.5300   -4.7031 O.2       1 <0>        -0.4759
      8 C6         -1.0221   -1.9899   -2.4840 C.3       1 <0>        -0.0815
      9 H1         -1.1360   -0.9766   -2.0989 H         1 <0>         0.1204
     10 C7         -0.4491   -2.8516   -1.3860 C.3       1 <0>        -0.1981
     11 C8         -1.4897   -3.2136   -0.3469 C.3       1 <0>         0.0821
     12 H2         -1.0402   -3.8869    0.3830 H         1 <0>         0.0716
     13 C9         -2.6955   -3.8853   -0.9525 C.3       1 <0>         0.1023
     14 H3         -3.4585   -3.9819   -0.1801 H         1 <0>         0.0779
     15 C10        -3.3035   -3.1678   -2.1345 C.3       1 <0>         0.1384
     16 H4         -4.0857   -2.4899   -1.7930 H         1 <0>         0.1263
     17 C11        -2.3337   -2.4310   -3.0295 C.3       1 <0>         0.1325
     18 H5         -2.8449   -1.5125   -3.3179 H         1 <0>         0.0876
     19 N2         -2.2533   -3.2245   -4.2557 N.pl3     1 <0>        -0.5308
     20 C12        -3.1987   -4.1785   -4.1949 C.2       1 <0>         0.5753
     21 S1         -3.5017   -5.2778   -5.4719 S.2       1 <0>        -0.6164
     22 N3         -3.8827   -4.1888   -3.0413 N.pl3     1 <0>        -0.6578
     23 C13        -1.3505   -3.0252   -5.3083 C.ar      1 <0>         0.2152
     24 C14        -1.5176   -1.9515   -6.1727 C.ar      1 <0>         0.0187
     25 C15        -0.6248   -1.7531   -7.2074 C.ar      1 <0>        -0.1814
     26 C16         0.4332   -2.6317   -7.3891 C.ar      1 <0>         0.0997
     27 C17         0.5976   -3.7076   -6.5291 C.ar      1 <0>        -0.1140
     28 C18        -0.2916   -3.9045   -5.4910 C.ar      1 <0>        -0.1081
     29 O2          1.3091   -2.4385   -8.4110 O.3       1 <0>        -0.3104
     30 C19         1.0795   -1.3106   -9.2578 C.3       1 <0>         0.6035
     31 F1          1.1263   -0.1382   -8.4959 F         1 <0>        -0.1649
     32 F2          2.0662   -1.2627  -10.2484 F         1 <0>        -0.1327
     33 F3         -0.1788   -1.4267   -9.8582 F         1 <0>        -0.1641
     34 O3         -2.3168   -5.1986   -1.3695 O.3       1 <0>        -0.5468
     35 O4         -1.9104   -2.0225    0.3211 O.3       1 <0>        -0.5624
     36 H6          1.1576   -3.6817   -1.7731 H         1 <0>         0.0900
     37 H7          2.7501   -2.9522   -2.0897 H         1 <0>         0.0695
     38 H8          1.4470   -1.9704   -1.3781 H         1 <0>         0.0791
     39 H9          2.7770   -3.3680   -4.4471 H         1 <0>         0.0768
     40 H10         1.5931   -2.5351   -5.4829 H         1 <0>         0.1217
     41 H11         2.5970   -0.2693   -4.5872 H         1 <0>         0.1081
     42 H12         4.7863   -2.3713   -4.5769 H         1 <0>         0.0972
     43 H13         4.9748   -0.5104   -4.6041 H         1 <0>         0.0994
     44 H14         0.3633   -2.3105   -0.9009 H         1 <0>         0.1191
     45 H15        -0.0517   -3.7671   -1.8241 H         1 <0>         0.1077
     46 H16        -4.6321   -4.7686   -2.8339 H         1 <0>         0.4473
     47 H17        -2.3436   -1.2697   -6.0338 H         1 <0>         0.1276
     48 H18        -0.7524   -0.9159   -7.8776 H         1 <0>         0.1328
     49 H19         1.4211   -4.3917   -6.6715 H         1 <0>         0.1383
     50 H20        -0.1636   -4.7424   -4.8217 H         1 <0>         0.1293
     51 H21        -1.9943   -5.7613   -0.6523 H         1 <0>         0.3851
     52 H22        -1.1935   -1.5419    0.7571 H         1 <0>         0.3862
@<TRIPOS>BOND
     1    1    2 1
     2    1   36 1
     3    1   37 1
     4    1   38 1
     5    2    3 1
     6    2    6 am
     7    3    4 1
     8    3   39 1
     9    3   40 1
    10    4    5 2
    11    4   41 1
    12    5   42 1
    13    5   43 1
    14    6    7 2
    15    6    8 1
    16    8    9 1
    17    8   17 1
    18    8   10 1
    19   10   11 1
    20   10   44 1
    21   10   45 1
    22   11   12 1
    23   11   13 1
    24   11   35 1
    25   13   14 1
    26   13   15 1
    27   13   34 1
    28   15   16 1
    29   15   22 1
    30   15   17 1
    31   17   18 1
    32   17   19 1
    33   19   20 1
    34   19   23 1
    35   20   21 2
    36   20   22 1
    37   22   46 1
    38   23   28 ar
    39   23   24 ar
    40   24   25 ar
    41   24   47 1
    42   25   26 ar
    43   25   48 1
    44   26   27 ar
    45   26   29 1
    46   27   28 ar
    47   27   49 1
    48   28   50 1
    49   29   30 1
    50   30   31 1
    51   30   32 1
    52   30   33 1
    53   34   51 1
    54   35   52 1
@<TRIPOS>MOLECULE
ZINC22067440
   52    55     0     0     0
SMALL
USER_CHARGES
2-[[2-(3-ethyl-4-oxo-quinazolin-2-yl)sulfanylacetyl]amino]-4,5,6,7-tetrahydrobenzothiophene-3-carboxamide
@<TRIPOS>ATOM
      1 C1         -0.0367   -4.7461    1.4211 C.3       1 <0>        -0.1720
      2 C2         -0.0283   -4.2294   -0.0190 C.3       1 <0>         0.0809
      3 N1          0.0360   -2.7658   -0.0122 N.am      1 <0>        -0.5260
      4 C3          1.2390   -2.1459   -0.0208 C.2       1 <0>         0.5539
      5 O1          2.2770   -2.7817   -0.0337 O.2       1 <0>        -0.5020
      6 C4          1.2452   -0.6768   -0.0135 C.ar      1 <0>        -0.2014
      7 C5          2.4318    0.0550   -0.0209 C.ar      1 <0>        -0.0378
      8 C6          2.3806    1.4216   -0.0131 C.ar      1 <0>        -0.1394
      9 C7          1.1610    2.0862    0.0022 C.ar      1 <0>        -0.0686
     10 C8         -0.0169    1.3939    0.0097 C.ar      1 <0>        -0.1139
     11 C9          0.0021   -0.0041    0.0020 C.ar      1 <0>         0.1681
     12 N2         -1.1363   -0.7262    0.0095 N.2       1 <0>        -0.5357
     13 C10        -1.1185   -2.0363    0.0031 C.2       1 <0>         0.3557
     14 S1         -2.6559   -2.8972    0.0143 S.3       1 <0>         0.0895
     15 C11        -3.8009   -1.4955    0.0330 C.3       1 <0>        -0.1513
     16 C12        -5.2190   -2.0054    0.0448 C.2       1 <0>         0.5297
     17 O2         -5.4343   -3.1989    0.0409 O.2       1 <0>        -0.4890
     18 N3         -6.2479   -1.1351    0.0596 N.am      1 <0>        -0.6258
     19 C13        -7.5527   -1.6042    0.0704 C.2       1 <0>         0.0744
     20 C14        -8.7318   -0.8729    0.0917 C.2       1 <0>        -0.2220
     21 C15        -9.9817   -1.6138    0.0959 C.2       1 <0>        -0.0672
     22 C16        -9.8533   -2.9584    0.0882 C.2       1 <0>        -0.2063
     23 S2         -8.1065   -3.2460    0.0683 S.3       1 <0>         0.2228
     24 C17       -10.9565   -3.9711    0.0960 C.3       1 <0>        -0.0383
     25 C18       -12.2604   -3.2630    0.4917 C.3       1 <0>        -0.1139
     26 C19       -12.3978   -1.9828   -0.3375 C.3       1 <0>        -0.1200
     27 C20       -11.3564   -0.9569    0.1131 C.3       1 <0>        -0.0612
     28 C21        -8.7170    0.5932    0.1054 C.2       1 <0>         0.5842
     29 O3         -8.7241    1.2117   -0.9428 O.2       1 <0>        -0.5425
     30 N4         -8.6955    1.2560    1.2787 N.am      1 <0>        -0.8704
     31 H1         -0.0850   -5.8450    1.4161 H         1 <0>         0.0850
     32 H2         -0.9128   -4.3430    1.9502 H         1 <0>         0.0674
     33 H3          0.8817   -4.4217    1.9324 H         1 <0>         0.0653
     34 H4          0.8478   -4.6325   -0.5481 H         1 <0>         0.1092
     35 H5         -0.9466   -4.5538   -0.5303 H         1 <0>         0.1001
     36 H6          3.3845   -0.4536   -0.0323 H         1 <0>         0.1380
     37 H7          3.2987    1.9904   -0.0191 H         1 <0>         0.1341
     38 H8          1.1436    3.1660    0.0078 H         1 <0>         0.1350
     39 H9         -0.9579    1.9239    0.0171 H         1 <0>         0.1386
     40 H10        -3.6222   -0.8880    0.9325 H         1 <0>         0.1398
     41 H11        -3.6404   -0.8789   -0.8637 H         1 <0>         0.1400
     42 H12        -6.0526   -0.0526    0.0631 H         1 <0>         0.4493
     43 H13       -11.0566   -4.4119   -0.9068 H         1 <0>         0.0832
     44 H14       -10.7223   -4.7629    0.8228 H         1 <0>         0.0817
     45 H15       -13.1136   -3.9286    0.2941 H         1 <0>         0.0746
     46 H16       -12.2312   -3.0124    1.5624 H         1 <0>         0.0684
     47 H17       -12.2409   -2.2162   -1.4010 H         1 <0>         0.0680
     48 H18       -13.4049   -1.5625   -0.1990 H         1 <0>         0.0709
     49 H19       -11.5866   -0.6150    1.1329 H         1 <0>         0.0764
     50 H20       -11.3601   -0.0961   -0.5718 H         1 <0>         0.0752
     51 H21        -8.6844    2.3559    1.2889 H         1 <0>         0.4231
     52 H22        -8.6891    0.6971    2.2261 H         1 <0>         0.4222
@<TRIPOS>BOND
     1    1    2 1
     2    1   31 1
     3    1   32 1
     4    1   33 1
     5    2    3 1
     6    2   34 1
     7    2   35 1
     8    3   13 1
     9    3    4 am
    10    4    5 2
    11    4    6 1
    12    6   11 ar
    13    6    7 ar
    14    7    8 ar
    15    7   36 1
    16    8    9 ar
    17    8   37 1
    18    9   10 ar
    19    9   38 1
    20   10   11 ar
    21   10   39 1
    22   11   12 1
    23   12   13 2
    24   13   14 1
    25   14   15 1
    26   15   16 1
    27   15   40 1
    28   15   41 1
    29   16   17 2
    30   16   18 am
    31   18   19 1
    32   18   42 1
    33   19   23 1
    34   19   20 2
    35   20   21 1
    36   20   28 1
    37   21   27 1
    38   21   22 2
    39   22   23 1
    40   22   24 1
    41   24   25 1
    42   24   43 1
    43   24   44 1
    44   25   26 1
    45   25   45 1
    46   25   46 1
    47   26   27 1
    48   26   47 1
    49   26   48 1
    50   27   49 1
    51   27   50 1
    52   28   29 2
    53   28   30 am
    54   30   51 1
    55   30   52 1
@<TRIPOS>MOLECULE
ZINC23153899
   55    59     0     0     0
SMALL
USER_CHARGES

@<TRIPOS>ATOM
      1 C1         -0.0167    1.3781    0.0096 C.ar      1 <0>        -0.1184
      2 C2          1.1709    2.0855    0.0021 C.ar      1 <0>        -0.1203
      3 C3          2.3773    1.4107   -0.0130 C.ar      1 <0>        -0.0966
      4 C4          2.3960    0.0285   -0.0201 C.ar      1 <0>        -0.0824
      5 C5          1.2084   -0.6789   -0.0117 C.ar      1 <0>        -0.1159
      6 C6          0.0021   -0.0041    0.0020 C.ar      1 <0>        -0.1202
      7 C7          3.7112   -0.7071   -0.0376 C.3       1 <0>         0.0951
      8 N1          4.1530   -0.9531    1.3416 N.3       1 <0>        -0.5264
      9 C8          5.5330   -1.4573    1.3706 C.3       1 <0>         0.0557
     10 C9          6.1030   -1.3509    2.7887 C.3       1 <0>        -0.0532
     11 C10         5.1130   -1.9998    3.7454 C.2       1 <0>        -0.0534
     12 C11         3.8355   -2.2219    3.3619 C.2       1 <0>        -0.2307
     13 S1          3.0725   -2.9785    4.7648 S.3       1 <0>         0.3115
     14 C12         4.3778   -3.0041    5.8218 C.2       1 <0>         0.0311
     15 C13         5.4117   -2.4291    5.0979 C.2       1 <0>        -0.2264
     16 C14         6.7492   -2.2628    5.6752 C.2       1 <0>         0.5840
     17 O1          7.0297   -1.2429    6.2773 O.2       1 <0>        -0.5301
     18 N2          7.6680   -3.2394    5.5392 N.am      1 <0>        -0.8482
     19 N3          4.4132   -3.4884    7.1206 N.am      1 <0>        -0.6143
     20 C15         3.3041   -4.0193    7.6724 C.2       1 <0>         0.5193
     21 O2          2.2750   -4.0734    7.0329 O.2       1 <0>        -0.4633
     22 C16         3.3426   -4.5457    9.0840 C.3       1 <0>         0.0439
     23 H1          4.1394   -5.2834    9.1795 H         1 <0>         0.1200
     24 C17         3.5891   -3.3884   10.0613 C.3       1 <0>         0.0322
     25 O3          3.6057   -3.9200   11.3905 O.3       1 <0>        -0.2953
     26 C18         2.6075   -4.7865   11.7151 C.ar      1 <0>         0.0440
     27 C19         2.3460   -5.0542   13.0507 C.ar      1 <0>        -0.1093
     28 C20         1.3379   -5.9342   13.3959 C.ar      1 <0>        -0.1115
     29 C21         0.5874   -6.5498   12.4115 C.ar      1 <0>        -0.1112
     30 C22         0.8419   -6.2864   11.0789 C.ar      1 <0>        -0.1068
     31 C23         1.8514   -5.4033   10.7256 C.ar      1 <0>         0.0489
     32 O4          2.0852   -5.1483    9.4090 O.3       1 <0>        -0.2773
     33 C24         3.2394   -1.8837    2.0315 C.3       1 <0>         0.1409
     34 H2         -0.9591    1.9053    0.0259 H         1 <0>         0.1210
     35 H3          1.1563    3.1654    0.0076 H         1 <0>         0.1219
     36 H4          3.3051    1.9634   -0.0196 H         1 <0>         0.1225
     37 H5          1.2231   -1.7588   -0.0176 H         1 <0>         0.1184
     38 H6         -0.9258   -0.5567    0.0082 H         1 <0>         0.1218
     39 H7          3.5884   -1.6586   -0.5549 H         1 <0>         0.0474
     40 H8          4.4573   -0.1052   -0.5563 H         1 <0>         0.0889
     41 H9          5.5434   -2.5003    1.0542 H         1 <0>         0.0418
     42 H10         6.1472   -0.8688    0.6890 H         1 <0>         0.0844
     43 H11         7.0599   -1.8703    2.8408 H         1 <0>         0.0783
     44 H12         6.2377   -0.3022    3.0536 H         1 <0>         0.0892
     45 H13         7.4445   -4.0522    5.0594 H         1 <0>         0.4035
     46 H14         8.5529   -3.1294    5.9211 H         1 <0>         0.4041
     47 H15         5.2363   -3.4452    7.6321 H         1 <0>         0.4206
     48 H16         4.5479   -2.9191    9.8410 H         1 <0>         0.1284
     49 H17         2.7897   -2.6531    9.9694 H         1 <0>         0.0903
     50 H18         2.9309   -4.5747   13.8216 H         1 <0>         0.1379
     51 H19         1.1357   -6.1410   14.4364 H         1 <0>         0.1359
     52 H20        -0.1989   -7.2381   12.6843 H         1 <0>         0.1363
     53 H21         0.2542   -6.7687   10.3119 H         1 <0>         0.1385
     54 H22         2.2686   -1.4088    2.1733 H         1 <0>         0.0974
     55 H23         3.1226   -2.7913    1.4393 H         1 <0>         0.0563
@<TRIPOS>BOND
     1    1    6 ar
     2    1    2 ar
     3    1   34 1
     4    2    3 ar
     5    2   35 1
     6    3    4 ar
     7    3   36 1
     8    4    5 ar
     9    4    7 1
    10    5    6 ar
    11    5   37 1
    12    6   38 1
    13    7    8 1
    14    7   39 1
    15    7   40 1
    16    8   33 1
    17    8    9 1
    18    9   10 1
    19    9   41 1
    20    9   42 1
    21   10   11 1
    22   10   43 1
    23   10   44 1
    24   11   15 1
    25   11   12 2
    26   12   13 1
    27   12   33 1
    28   13   14 1
    29   14   15 2
    30   14   19 1
    31   15   16 1
    32   16   17 2
    33   16   18 am
    34   18   45 1
    35   18   46 1
    36   19   20 am
    37   19   47 1
    38   20   21 2
    39   20   22 1
    40   22   23 1
    41   22   32 1
    42   22   24 1
    43   24   25 1
    44   24   48 1
    45   24   49 1
    46   25   26 1
    47   26   31 ar
    48   26   27 ar
    49   27   28 ar
    50   27   50 1
    51   28   29 ar
    52   28   51 1
    53   29   30 ar
    54   29   52 1
    55   30   31 ar
    56   30   53 1
    57   31   32 1
    58   33   54 1
    59   33   55 1
@<TRIPOS>MOLECULE
ZINC39929947
   56    58     0     0     0
SMALL
USER_CHARGES

@<TRIPOS>ATOM
      1 C1          5.5005   -2.5827   -0.2292 C.3       1 <0>        -0.1517
      2 C2          4.1792   -2.7568   -0.9807 C.3       1 <0>        -0.1478
      3 C3          3.0272   -2.8308    0.0235 C.3       1 <0>         0.1390
      4 N1          1.7621   -2.9975   -0.6960 N.pl3     1 <0>        -0.6218
      5 C4          0.9062   -1.9024   -1.1743 C.3       1 <0>         0.1387
      6 H1          0.5576   -1.2971   -0.3375 H         1 <0>         0.0747
      7 C5         -0.2776   -2.6185   -1.8521 C.3       1 <0>        -0.0635
      8 C6          0.0389   -4.0878   -1.6831 C.2       1 <0>        -0.2319
      9 C7          1.1914   -4.2069   -1.0355 C.2       1 <0>         0.2026
     10 C8          1.8150   -5.5369   -0.6988 C.3       1 <0>        -0.1129
     11 C9         -0.7957   -5.2074   -2.1647 C.2       1 <0>         0.1851
     12 C10        -2.0194   -4.9983   -2.7427 C.2       1 <0>        -0.2946
     13 S1         -2.5133   -6.6765   -3.0978 S.3       1 <0>         0.2045
     14 C11        -1.1528   -7.4598   -2.4932 C.2       1 <0>         0.2450
     15 N2         -0.3955   -6.4757   -2.0648 N.2       1 <0>        -0.5519
     16 N3         -0.8900   -8.8237   -2.4602 N.am      1 <0>        -0.6135
     17 C12        -1.7898   -9.6956   -2.9566 C.2       1 <0>         0.5159
     18 O1         -2.8290   -9.2897   -3.4323 O.2       1 <0>        -0.4949
     19 C13        -1.5048  -11.1750   -2.9208 C.3       1 <0>        -0.1300
     20 C14        -2.6779  -11.9356   -3.5421 C.3       1 <0>        -0.0380
     21 C15        -2.3929  -13.4150   -3.5062 C.2       1 <0>        -0.2375
     22 H2         -2.9315  -16.0674   -1.7528 H         1 <0>         0.4500
     23 C16        -2.8624  -14.1781   -2.4957 C.2       1 <0>         0.1846
     24 N4         -2.5943  -15.5193   -2.4786 N.pl3     1 <0>        -0.5754
     25 C17        -1.8670  -16.0855   -3.4587 C.2       1 <0>         0.5269
     26 S2         -1.5483  -17.7668   -3.4093 S.2       1 <0>        -0.5332
     27 N5         -1.3867  -15.3489   -4.4777 N.am      1 <0>        -0.6076
     28 C18        -1.6341  -14.0246   -4.5346 C.2       1 <0>         0.5383
     29 O2         -1.2044  -13.3581   -5.4588 O.2       1 <0>        -0.4868
     30 C19        -3.6773  -13.5548   -1.3919 C.3       1 <0>        -0.1339
     31 C20         1.6604   -1.0347   -2.1838 C.3       1 <0>        -0.1610
     32 H3          5.4679   -1.6628    0.3547 H         1 <0>         0.0555
     33 H4          5.6537   -3.4311    0.4377 H         1 <0>         0.0552
     34 H5          6.3211   -2.5300   -0.9446 H         1 <0>         0.0576
     35 H6          4.0259   -1.9084   -1.6476 H         1 <0>         0.0680
     36 H7          4.2118   -3.6767   -1.5646 H         1 <0>         0.0636
     37 H8          3.1805   -3.6792    0.6904 H         1 <0>         0.0743
     38 H9          2.9946   -1.9109    0.6074 H         1 <0>         0.0745
     39 H10        -1.2129   -2.3689   -1.3512 H         1 <0>         0.0728
     40 H11        -0.3276   -2.3575   -2.9092 H         1 <0>         0.0746
     41 H12         1.3873   -5.9140    0.2302 H         1 <0>         0.0714
     42 H13         1.6174   -6.2450   -1.5036 H         1 <0>         0.1045
     43 H14         2.8914   -5.4137   -0.5795 H         1 <0>         0.0551
     44 H15        -2.5423   -4.0724   -2.9316 H         1 <0>         0.1892
     45 H16        -0.0588   -9.1484   -2.0798 H         1 <0>         0.4234
     46 H17        -0.5963  -11.3838   -3.4858 H         1 <0>         0.1087
     47 H18        -1.3712  -11.4943   -1.8872 H         1 <0>         0.1041
     48 H19        -3.5864  -11.7269   -2.9770 H         1 <0>         0.0957
     49 H20        -2.8115  -11.6163   -4.5756 H         1 <0>         0.0999
     50 H21        -0.8638  -15.7731   -5.1760 H         1 <0>         0.4459
     51 H22        -4.7335  -13.5828   -1.6598 H         1 <0>         0.1065
     52 H23        -3.5221  -14.1108   -0.4673 H         1 <0>         0.0911
     53 H24        -3.3657  -12.5199   -1.2502 H         1 <0>         0.1051
     54 H25         1.9618   -1.6459   -3.0345 H         1 <0>         0.0604
     55 H26         1.0113   -0.2291   -2.5270 H         1 <0>         0.0670
     56 H27         2.5454   -0.6110   -1.7091 H         1 <0>         0.0582
@<TRIPOS>BOND
     1    1    2 1
     2    1   32 1
     3    1   33 1
     4    1   34 1
     5    2    3 1
     6    2   35 1
     7    2   36 1
     8    3    4 1
     9    3   37 1
    10    3   38 1
    11    4    9 1
    12    4    5 1
    13    5    6 1
    14    5    7 1
    15    5   31 1
    16    7    8 1
    17    7   39 1
    18    7   40 1
    19    8    9 2
    20    8   11 1
    21    9   10 1
    22   10   41 1
    23   10   42 1
    24   10   43 1
    25   11   15 1
    26   11   12 2
    27   12   13 1
    28   12   44 1
    29   13   14 1
    30   14   15 2
    31   14   16 1
    32   16   17 am
    33   16   45 1
    34   17   18 2
    35   17   19 1
    36   19   20 1
    37   19   46 1
    38   19   47 1
    39   20   48 1
    40   20   49 1
    41   20   21 1
    42   21   28 1
    43   21   23 2
    44   22   24 1
    45   23   30 1
    46   23   24 1
    47   24   25 1
    48   25   26 2
    49   25   27 1
    50   27   50 1
    51   27   28 am
    52   28   29 2
    53   30   51 1
    54   30   52 1
    55   30   53 1
    56   31   54 1
    57   31   55 1
    58   31   56 1
@<TRIPOS>MOLECULE
ZINC08742502
   40    41     0     0     0
SMALL
USER_CHARGES
N-[4,5-dihydroxy-6-(hydroxymethyl)-2-(4-iodophenoxy)-tetrahydropyran-3-yl]acetamide
@<TRIPOS>ATOM
      1 C1          1.5295   -2.4963    3.0612 C.3       1 <0>        -0.1694
      2 C2          0.9004   -2.2883    1.7077 C.2       1 <0>         0.5128
      3 O1          1.5981   -2.0481    0.7452 O.2       1 <0>        -0.5196
      4 N1         -0.4376   -2.3691    1.5669 N.am      1 <0>        -0.7218
      5 C3         -1.0491   -2.1669    0.2511 C.3       1 <0>         0.1374
      6 H1         -0.3939   -2.5703   -0.5210 H         1 <0>         0.1246
      7 C4         -2.4026   -2.8822    0.1989 C.3       1 <0>         0.1137
      8 H2         -3.0408   -2.5141    1.0022 H         1 <0>         0.0802
      9 C5         -3.0655   -2.5992   -1.1527 C.3       1 <0>         0.0468
     10 H3         -4.0535   -3.0590   -1.1773 H         1 <0>         0.0825
     11 C6         -3.2007   -1.0857   -1.3391 C.3       1 <0>         0.0650
     12 H4         -3.8482   -0.6802   -0.5617 H         1 <0>         0.0805
     13 O2         -1.9101   -0.4789   -1.2488 O.3       1 <0>        -0.3676
     14 C7         -1.2622   -0.6701    0.0105 C.3       1 <0>         0.2499
     15 H5         -1.8842   -0.2591    0.8056 H         1 <0>         0.0663
     16 O3          0.0021   -0.0041    0.0020 O.3       1 <0>        -0.2629
     17 C8         -0.0164    1.3549    0.0095 C.ar      1 <0>         0.1458
     18 C9         -1.2265    2.0332    0.0189 C.ar      1 <0>        -0.1862
     19 C10        -1.2428    3.4144    0.0308 C.ar      1 <0>        -0.0461
     20 C11        -0.0539    4.1212    0.0233 C.ar      1 <0>        -0.1356
     21 C12         1.1538    3.4471    0.0091 C.ar      1 <0>        -0.0486
     22 C13         1.1749    2.0658    0.0019 C.ar      1 <0>        -0.1407
     23 I1         -0.0823    6.2160    0.0327 I         1 <0>        -0.0442
     24 C14        -3.8075   -0.7930   -2.7128 C.3       1 <0>         0.0812
     25 O4         -4.0414    0.6109   -2.8407 O.3       1 <0>        -0.5603
     26 O5         -2.2606   -3.1408   -2.2020 O.3       1 <0>        -0.5357
     27 O6         -2.2058   -4.2894    0.3514 O.3       1 <0>        -0.5371
     28 H6          0.7509   -2.6995    3.7964 H         1 <0>         0.0742
     29 H7          2.2165   -3.3413    3.0166 H         1 <0>         0.0961
     30 H8          2.0762   -1.5984    3.3496 H         1 <0>         0.0954
     31 H9         -0.9955   -2.5611    2.3367 H         1 <0>         0.4013
     32 H10        -2.1551    1.4817    0.0203 H         1 <0>         0.1334
     33 H11        -2.1846    3.9429    0.0419 H         1 <0>         0.1307
     34 H12         2.0809    4.0009    0.0032 H         1 <0>         0.1362
     35 H13         2.1181    1.5398   -0.0099 H         1 <0>         0.1406
     36 H14        -3.1179   -1.1188   -3.4915 H         1 <0>         0.0618
     37 H15        -4.7508   -1.3293   -2.8151 H         1 <0>         0.0676
     38 H16        -4.4263    0.8698   -3.6892 H         1 <0>         0.3863
     39 H17        -2.6211   -2.9980   -3.0879 H         1 <0>         0.3800
     40 H18        -3.0231   -4.8056    0.3280 H         1 <0>         0.3850
@<TRIPOS>BOND
     1    1    2 1
     2    1   28 1
     3    1   29 1
     4    1   30 1
     5    2    3 2
     6    2    4 am
     7    4    5 1
     8    4   31 1
     9    5    6 1
    10    5   14 1
    11    5    7 1
    12    7    8 1
    13    7    9 1
    14    7   27 1
    15    9   10 1
    16    9   11 1
    17    9   26 1
    18   11   12 1
    19   11   13 1
    20   11   24 1
    21   13   14 1
    22   14   15 1
    23   14   16 1
    24   16   17 1
    25   17   22 ar
    26   17   18 ar
    27   18   19 ar
    28   18   32 1
    29   19   20 ar
    30   19   33 1
    31   20   21 ar
    32   20   23 1
    33   21   22 ar
    34   21   34 1
    35   22   35 1
    36   24   25 1
    37   24   36 1
    38   24   37 1
    39   25   38 1
    40   26   39 1
    41   27   40 1
@<TRIPOS>MOLECULE
ZINC36849446
   40    41     0     0     0
SMALL
USER_CHARGES

@<TRIPOS>ATOM
      1 C1         -0.0188    1.5345    0.0105 C.3       1 <0>        -0.1242
      2 C2          1.4534    1.9953   -0.0011 C.3       1 <0>        -0.1233
      3 C3          2.2325    0.7924    0.5864 C.3       1 <0>        -0.1305
      4 C4          1.4862   -0.4246   -0.0144 C.3       1 <0>         0.1537
      5 C5          0.0021   -0.0041    0.0020 C.3       1 <0>        -0.1384
      6 N1          1.6915   -1.6134    0.8167 N.am      1 <0>        -0.7287
      7 C6          1.5870   -2.8421    0.2729 C.2       1 <0>         0.6949
      8 O1          1.3224   -2.9639   -0.9071 O.2       1 <0>        -0.5231
      9 N2          1.7759   -3.9358    1.0375 N.am      1 <0>        -0.6853
     10 C7          1.6713   -5.1645    0.4937 C.2       1 <0>         0.5418
     11 O2          1.4074   -5.2860   -0.6833 O.2       1 <0>        -0.4462
     12 C8          1.8825   -6.3874    1.3487 C.3       1 <0>        -0.1644
     13 S1          1.6757   -7.8772    0.3347 S.3       1 <0>         0.1477
     14 C9          1.9501   -9.2024    1.4631 C.2       1 <0>         0.0331
     15 N3          2.2342   -9.1587    2.7506 N.2       1 <0>        -0.3042
     16 N4          2.4106  -10.3286    3.4526 N.2       1 <0>        -0.3053
     17 C10         2.2949  -11.4885    2.8349 C.2       1 <0>         0.0349
     18 S2          1.9104  -10.9642    1.1712 S.3       1 <0>         0.0861
     19 S3          2.4671  -13.1191    3.4801 S.3       1 <0>         0.1433
     20 C11         2.8497  -12.8589    5.2341 C.3       1 <0>        -0.1657
     21 C12         3.0240  -14.1928    5.9134 C.2       1 <0>         0.5405
     22 O3          2.9022  -15.2180    5.2769 O.2       1 <0>        -0.5239
     23 N5          3.3153  -14.2464    7.2282 N.am      1 <0>        -0.8433
     24 H1         -0.5162    1.8962    0.9104 H         1 <0>         0.0659
     25 H2         -0.5332    1.9058   -0.8758 H         1 <0>         0.0676
     26 H3          1.7808    2.2008   -1.0203 H         1 <0>         0.0711
     27 H4          1.5822    2.8767    0.6270 H         1 <0>         0.0718
     28 H5          3.2720    0.8083    0.2589 H         1 <0>         0.0753
     29 H6          2.1693    0.7856    1.6746 H         1 <0>         0.0741
     30 H7          1.8189   -0.6099   -1.0357 H         1 <0>         0.0999
     31 H8         -0.4852   -0.3890    0.8978 H         1 <0>         0.0678
     32 H9         -0.5022   -0.3794   -0.8884 H         1 <0>         0.0715
     33 H10         1.9027   -1.5162    1.7585 H         1 <0>         0.3994
     34 H11         1.9871   -3.8386    1.9793 H         1 <0>         0.4135
     35 H12         2.8891   -6.3692    1.7665 H         1 <0>         0.1364
     36 H13         1.1530   -6.3949    2.1585 H         1 <0>         0.1363
     37 H14         3.7705  -12.2825    5.3235 H         1 <0>         0.1310
     38 H15         2.0327  -12.3142    5.7072 H         1 <0>         0.1309
     39 H16         3.4128  -13.4265    7.7372 H         1 <0>         0.4066
     40 H17         3.4275  -15.1050    7.6654 H         1 <0>         0.4115
@<TRIPOS>BOND
     1    1    5 1
     2    1    2 1
     3    1   24 1
     4    1   25 1
     5    2    3 1
     6    2   26 1
     7    2   27 1
     8    3    4 1
     9    3   28 1
    10    3   29 1
    11    4    5 1
    12    4    6 1
    13    4   30 1
    14    5   31 1
    15    5   32 1
    16    6    7 am
    17    6   33 1
    18    7    8 2
    19    7    9 am
    20    9   10 am
    21    9   34 1
    22   10   11 2
    23   10   12 1
    24   12   13 1
    25   12   35 1
    26   12   36 1
    27   13   14 1
    28   14   18 1
    29   14   15 2
    30   15   16 1
    31   16   17 2
    32   17   18 1
    33   17   19 1
    34   19   20 1
    35   20   21 1
    36   20   37 1
    37   20   38 1
    38   21   22 2
    39   21   23 am
    40   23   39 1
    41   23   40 1
@<TRIPOS>MOLECULE
ZINC50165655
   44    45     0     0     0
SMALL
USER_CHARGES

@<TRIPOS>ATOM
      1 C1         -0.3510    0.8724    2.4605 C.3       1 <0>         0.0867
      2 N1         -0.2450   -0.4403    1.8188 N.am      1 <0>        -0.7299
      3 C2         -1.3249   -0.9922    1.2309 C.2       1 <0>         0.5574
      4 O1         -2.3870   -0.4007    1.2331 O.2       1 <0>        -0.5165
      5 C3         -1.2180   -2.3157    0.5839 C.ar      1 <0>        -0.1565
      6 C4         -0.0014   -2.9998    0.5847 C.ar      1 <0>        -0.0770
      7 C5          0.0912   -4.2408   -0.0242 C.ar      1 <0>         0.1195
      8 C6         -1.0254   -4.8025   -0.6347 C.ar      1 <0>        -0.0612
      9 C7         -2.2303   -4.1278   -0.6375 C.ar      1 <0>        -0.1420
     10 C8         -2.3367   -2.8908   -0.0269 C.ar      1 <0>         0.1552
     11 F1         -3.5186   -2.2365   -0.0263 F         1 <0>        -0.1104
     12 N2          1.3084   -4.9293   -0.0255 N.am      1 <0>        -0.6423
     13 C9          1.3222   -6.2737    0.0689 C.2       1 <0>         0.5107
     14 O2          0.2782   -6.8928    0.0706 O.2       1 <0>        -0.4932
     15 C10         2.6222   -7.0017    0.1712 C.2       1 <0>         0.5124
     16 O3          3.6661   -6.3827    0.1695 O.2       1 <0>        -0.5122
     17 N3          2.6361   -8.3461    0.2655 N.am      1 <0>        -0.6916
     18 C11         3.9113   -9.0602    0.3659 C.3       1 <0>         0.0874
     19 C12         3.6475  -10.5643    0.4604 C.3       1 <0>         0.1410
     20 H1          3.1143  -10.8963   -0.4305 H         1 <0>         0.1251
     21 C13         4.9593  -11.2989    0.5637 C.ar      1 <0>        -0.1037
     22 C14         5.5615  -11.4667    1.7968 C.ar      1 <0>        -0.0888
     23 C15         6.7646  -12.1400    1.8941 C.ar      1 <0>        -0.1191
     24 C16         7.3676  -12.6476    0.7563 C.ar      1 <0>         0.0749
     25 C17         6.7634  -12.4798   -0.4803 C.ar      1 <0>         0.0734
     26 C18         5.5562  -11.8092   -0.5737 C.ar      1 <0>        -0.1115
     27 F2          7.3502  -12.9740   -1.5923 F         1 <0>        -0.1236
     28 F3          8.5438  -13.3056    0.8505 F         1 <0>        -0.1239
     29 O4          2.8562  -10.8373    1.6185 O.3       1 <0>        -0.5437
     30 H2          0.6165    1.1523    2.8773 H         1 <0>         0.0792
     31 H3         -0.6568    1.6140    1.7224 H         1 <0>         0.0637
     32 H4         -1.0915    0.8277    3.2590 H         1 <0>         0.0635
     33 H5          0.6025   -0.9123    1.8170 H         1 <0>         0.4007
     34 H6          0.8654   -2.5629    1.0583 H         1 <0>         0.1418
     35 H7         -0.9497   -5.7699   -1.1088 H         1 <0>         0.1562
     36 H8         -3.0934   -4.5692   -1.1136 H         1 <0>         0.1521
     37 H9          2.1427   -4.4393   -0.0942 H         1 <0>         0.4264
     38 H10         1.8018   -8.8408    0.2669 H         1 <0>         0.4206
     39 H11         4.5149   -8.8519   -0.5175 H         1 <0>         0.0912
     40 H12         4.4445   -8.7282    1.2568 H         1 <0>         0.0844
     41 H13         5.0916  -11.0708    2.6850 H         1 <0>         0.1413
     42 H14         7.2344  -12.2698    2.8578 H         1 <0>         0.1516
     43 H15         5.0826  -11.6810   -1.5359 H         1 <0>         0.1509
     44 H16         3.2697  -10.5674    2.4500 H         1 <0>         0.3800
@<TRIPOS>BOND
     1    1    2 1
     2    1   30 1
     3    1   31 1
     4    1   32 1
     5    2    3 am
     6    2   33 1
     7    3    4 2
     8    3    5 1
     9    5   10 ar
    10    5    6 ar
    11    6    7 ar
    12    6   34 1
    13    7    8 ar
    14    7   12 1
    15    8    9 ar
    16    8   35 1
    17    9   10 ar
    18    9   36 1
    19   10   11 1
    20   12   13 am
    21   12   37 1
    22   13   14 2
    23   13   15 1
    24   15   16 2
    25   15   17 am
    26   17   18 1
    27   17   38 1
    28   18   19 1
    29   18   39 1
    30   18   40 1
    31   19   20 1
    32   19   21 1
    33   19   29 1
    34   21   26 ar
    35   21   22 ar
    36   22   23 ar
    37   22   41 1
    38   23   24 ar
    39   23   42 1
    40   24   25 ar
    41   24   28 1
    42   25   26 ar
    43   25   27 1
    44   26   43 1
    45   29   44 1
@<TRIPOS>MOLECULE
ZINC62631663
   56    57     0     0     0
SMALL
USER_CHARGES

@<TRIPOS>ATOM
      1 C1         -0.0873    0.8321    0.0665 C.3       1 <0>        -0.1545
      2 C2          0.2351   -0.6525    0.2479 C.3       1 <0>        -0.1324
      3 C3          1.0359   -1.1514   -0.9565 C.3       1 <0>         0.1397
      4 C4          1.2512   -2.6613   -0.8358 C.3       1 <0>        -0.1661
      5 N1          2.3346   -0.4744   -0.9938 N.am      1 <0>        -0.7168
      6 C5          2.9930   -0.3435   -2.1625 C.2       1 <0>         0.5120
      7 O1          2.5104   -0.7862   -3.1833 O.2       1 <0>        -0.5276
      8 C6          4.3289    0.3528   -2.2008 C.3       1 <0>         0.1230
      9 C7          4.1689    1.7909   -1.7037 C.3       1 <0>        -0.1617
     10 N2          4.8341    0.3649   -3.5759 N.am      1 <0>        -0.6789
     11 C8          6.1589    0.4551   -3.8064 C.2       1 <0>         0.5181
     12 O2          6.9334    0.5263   -2.8748 O.2       1 <0>        -0.5068
     13 C9          6.6739    0.4673   -5.2083 C.2       1 <0>         0.5082
     14 O3          5.8970    0.5102   -6.1398 O.2       1 <0>        -0.4892
     15 N3          8.0013    0.4309   -5.4389 N.am      1 <0>        -0.5186
     16 C10         8.5037    0.6117   -6.7327 C.ar      1 <0>         0.1620
     17 C11         7.6615    1.1057   -7.7235 C.ar      1 <0>        -0.1454
     18 C12         8.1367    1.2873   -9.0065 C.ar      1 <0>        -0.0945
     19 C13         9.4511    0.9773   -9.3056 C.ar      1 <0>        -0.1317
     20 C14        10.2897    0.4882   -8.3230 C.ar      1 <0>        -0.1003
     21 C15         9.8219    0.3049   -7.0324 C.ar      1 <0>        -0.1011
     22 C16        10.7654   -0.2212   -5.9833 C.3       1 <0>        -0.0641
     23 C17         9.9846   -0.8210   -4.8140 C.3       1 <0>        -0.1199
     24 C18         8.9450    0.2066   -4.3354 C.3       1 <0>         0.1055
     25 C19         9.6388    1.5209   -3.9719 C.3       1 <0>        -0.1575
     26 C20        11.6449   -1.2830   -6.5917 C.2       1 <0>         0.5280
     27 O4         11.2472   -2.4257   -6.6745 O.2       1 <0>        -0.5304
     28 N4         12.8735   -0.9626   -7.0439 N.am      1 <0>        -0.8562
     29 H1          0.8406    1.3984   -0.0127 H         1 <0>         0.0545
     30 H2         -0.6745    0.9680   -0.8417 H         1 <0>         0.0563
     31 H3         -0.6578    1.1875    0.9246 H         1 <0>         0.0583
     32 H4          0.8223   -0.7884    1.1562 H         1 <0>         0.0694
     33 H5         -0.6928   -1.2188    0.3271 H         1 <0>         0.0812
     34 H6          0.4868   -0.9347   -1.8729 H         1 <0>         0.0912
     35 H7          1.8003   -2.8780    0.0805 H         1 <0>         0.0583
     36 H8          0.2849   -3.1650   -0.8081 H         1 <0>         0.0684
     37 H9          1.8217   -3.0167   -1.6939 H         1 <0>         0.0613
     38 H10         2.7206   -0.1204   -0.1773 H         1 <0>         0.4024
     39 H11         5.0334   -0.1770   -1.5596 H         1 <0>         0.1221
     40 H12         3.7931    1.7820   -0.6805 H         1 <0>         0.0768
     41 H13         5.1351    2.2946   -1.7314 H         1 <0>         0.0782
     42 H14         3.4644    2.3208   -2.3449 H         1 <0>         0.0685
     43 H15         4.2150    0.3080   -4.3205 H         1 <0>         0.4241
     44 H16         6.6353    1.3468   -7.4887 H         1 <0>         0.1646
     45 H17         7.4830    1.6707   -9.7760 H         1 <0>         0.1294
     46 H18         9.8224    1.1176  -10.3100 H         1 <0>         0.1258
     47 H19        11.3150    0.2474   -8.5623 H         1 <0>         0.1246
     48 H20        11.3900    0.5943   -5.6188 H         1 <0>         0.1060
     49 H21         9.4799   -1.7304   -5.1401 H         1 <0>         0.0889
     50 H22        10.6695   -1.0535   -3.9986 H         1 <0>         0.0923
     51 H23         8.4125   -0.1828   -3.4677 H         1 <0>         0.1482
     52 H24         8.8921    2.2531   -3.6644 H         1 <0>         0.0645
     53 H25        10.3374    1.3487   -3.1531 H         1 <0>         0.0766
     54 H26        10.1813    1.8974   -4.8391 H         1 <0>         0.0590
     55 H27        13.1626   -0.0367   -7.0480 H         1 <0>         0.4024
     56 H28        13.4686   -1.6580   -7.3651 H         1 <0>         0.4039
@<TRIPOS>BOND
     1    1    2 1
     2    1   29 1
     3    1   30 1
     4    1   31 1
     5    2    3 1
     6    2   32 1
     7    2   33 1
     8    3    4 1
     9    3    5 1
    10    3   34 1
    11    4   35 1
    12    4   36 1
    13    4   37 1
    14    5    6 am
    15    5   38 1
    16    6    7 2
    17    6    8 1
    18    8    9 1
    19    8   10 1
    20    8   39 1
    21    9   40 1
    22    9   41 1
    23    9   42 1
    24   10   11 am
    25   10   43 1
    26   11   12 2
    27   11   13 1
    28   13   14 2
    29   13   15 am
    30   15   24 1
    31   15   16 1
    32   16   21 ar
    33   16   17 ar
    34   17   18 ar
    35   17   44 1
    36   18   19 ar
    37   18   45 1
    38   19   20 ar
    39   19   46 1
    40   20   21 ar
    41   20   47 1
    42   21   22 1
    43   22   23 1
    44   22   26 1
    45   22   48 1
    46   23   24 1
    47   23   49 1
    48   23   50 1
    49   24   25 1
    50   24   51 1
    51   25   52 1
    52   25   53 1
    53   25   54 1
    54   26   27 2
    55   26   28 am
    56   28   55 1
    57   28   56 1
@<TRIPOS>MOLECULE
ZINC66720984
   55    55     0     0     0
SMALL
USER_CHARGES

@<TRIPOS>ATOM
      1 C1          0.2700    1.4361    0.6062 C.3       1 <0>        -0.1212
      2 C2          0.1426   -0.0339    0.2993 C.ar      1 <0>        -0.0285
      3 C3         -0.4830   -0.8747    1.1976 C.ar      1 <0>        -0.1094
      4 C4         -0.6021   -2.2235    0.9213 C.ar      1 <0>        -0.1044
      5 C5         -0.0930   -2.7426   -0.2639 C.ar      1 <0>         0.1230
      6 C6          0.5367   -1.9061   -1.1729 C.ar      1 <0>        -0.0812
      7 C7          0.6521   -0.5440   -0.8960 C.ar      1 <0>        -0.1231
      8 C8          1.3173    0.3557   -1.8626 C.2       1 <0>         0.5613
      9 O1          1.3147    1.5569   -1.6761 O.2       1 <0>        -0.5271
     10 N1          1.9265   -0.1560   -2.9505 N.am      1 <0>        -0.7220
     11 C9          2.5855    0.7354   -3.9082 C.3       1 <0>         0.1363
     12 C10         4.0088    1.0328   -3.4321 C.3       1 <0>        -0.1641
     13 C11         2.6373    0.0609   -5.2805 C.3       1 <0>        -0.1625
     14 N2         -0.2155   -4.1074   -0.5386 N.am      1 <0>        -0.6415
     15 C12        -0.3889   -4.5264   -1.8078 C.2       1 <0>         0.5094
     16 O2         -0.5326   -3.7162   -2.7001 O.2       1 <0>        -0.4928
     17 C13        -0.4041   -5.9877   -2.1164 C.2       1 <0>         0.5149
     18 O3         -0.2603   -6.7977   -1.2242 O.2       1 <0>        -0.5137
     19 N3         -0.5774   -6.4067   -3.3856 N.am      1 <0>        -0.6859
     20 C14        -0.5923   -7.8400   -3.6882 C.3       1 <0>         0.0972
     21 C15        -0.8001   -8.0389   -5.1675 C.2       1 <0>         0.5076
     22 O4         -0.9236   -7.0781   -5.8971 O.2       1 <0>        -0.5298
     23 N4         -0.8487   -9.2846   -5.6796 N.am      1 <0>        -0.7226
     24 C16        -1.0508   -9.4780   -7.1177 C.3       1 <0>         0.1215
     25 C17        -1.0663  -10.9750   -7.4337 C.3       1 <0>        -0.1088
     26 C18        -1.4009  -11.1805   -8.9125 C.3       1 <0>        -0.1471
     27 C19         0.3094  -11.5738   -7.1341 C.3       1 <0>        -0.1513
     28 H1         -0.5381    1.9806    0.1178 H         1 <0>         0.0771
     29 H2          0.2116    1.5886    1.6839 H         1 <0>         0.0596
     30 H3          1.2287    1.8021    0.2388 H         1 <0>         0.0951
     31 H4         -0.8804   -0.4772    2.1198 H         1 <0>         0.1383
     32 H5         -1.0920   -2.8765    1.6283 H         1 <0>         0.1355
     33 H6          0.9330   -2.3073   -2.0940 H         1 <0>         0.1372
     34 H7          1.9285   -1.1145   -3.0993 H         1 <0>         0.3992
     35 H8          2.0250    1.6673   -3.9823 H         1 <0>         0.0904
     36 H9          4.4992    1.6961   -4.1447 H         1 <0>         0.0671
     37 H10         3.9720    1.5133   -2.4545 H         1 <0>         0.0611
     38 H11         4.5693    0.1009   -3.3580 H         1 <0>         0.0561
     39 H12         1.6233   -0.1509   -5.6197 H         1 <0>         0.0635
     40 H13         3.1276    0.7242   -5.9931 H         1 <0>         0.0746
     41 H14         3.1978   -0.8710   -5.2064 H         1 <0>         0.0607
     42 H15        -0.1758   -4.7531    0.1841 H         1 <0>         0.4253
     43 H16        -0.6923   -5.7592   -4.0986 H         1 <0>         0.4260
     44 H17         0.3581   -8.2838   -3.3919 H         1 <0>         0.1087
     45 H18        -1.4036   -8.3187   -3.1397 H         1 <0>         0.1087
     46 H19        -0.7500  -10.0531   -5.0961 H         1 <0>         0.4047
     47 H20        -2.0012   -9.0342   -7.4140 H         1 <0>         0.0718
     48 H21        -0.2395   -8.9993   -7.6662 H         1 <0>         0.0722
     49 H22        -1.8191  -11.4683   -6.8189 H         1 <0>         0.0783
     50 H23        -0.6482  -10.6872   -9.5273 H         1 <0>         0.0594
     51 H24        -1.4120  -12.2470   -9.1376 H         1 <0>         0.0626
     52 H25        -2.3810  -10.7539   -9.1259 H         1 <0>         0.0592
     53 H26         1.0621  -11.0804   -7.7490 H         1 <0>         0.0587
     54 H27         0.5478  -11.4273   -6.0806 H         1 <0>         0.0542
     55 H28         0.2983  -12.6402   -7.3593 H         1 <0>         0.0606
@<TRIPOS>BOND
     1    1    2 1
     2    1   28 1
     3    1   29 1
     4    1   30 1
     5    2    7 ar
     6    2    3 ar
     7    3    4 ar
     8    3   31 1
     9    4    5 ar
    10    4   32 1
    11    5    6 ar
    12    5   14 1
    13    6    7 ar
    14    6   33 1
    15    7    8 1
    16    8    9 2
    17    8   10 am
    18   10   11 1
    19   10   34 1
    20   11   12 1
    21   11   13 1
    22   11   35 1
    23   12   36 1
    24   12   37 1
    25   12   38 1
    26   13   39 1
    27   13   40 1
    28   13   41 1
    29   14   15 am
    30   14   42 1
    31   15   16 2
    32   15   17 1
    33   17   18 2
    34   17   19 am
    35   19   20 1
    36   19   43 1
    37   20   21 1
    38   20   44 1
    39   20   45 1
    40   21   22 2
    41   21   23 am
    42   23   24 1
    43   23   46 1
    44   24   25 1
    45   24   47 1
    46   24   48 1
    47   25   26 1
    48   25   27 1
    49   25   49 1
    50   26   50 1
    51   26   51 1
    52   26   52 1
    53   27   53 1
    54   27   54 1
    55   27   55 1
@<TRIPOS>MOLECULE
ZINC05194019
   45    47     0     0     0
SMALL
USER_CHARGES
2-(4,6-diaminopyrimidin-2-yl)sulfanyl-1-(1-ethylsulfonylindolin-5-yl)-ethanone
@<TRIPOS>ATOM
      1 C1         -8.2427   -2.0736   -1.8072 C.3       1 <0>        -0.1484
      2 C2         -6.7726   -2.4840   -1.7011 C.3       1 <0>        -0.6245
      3 S1         -6.3070   -2.6185    0.0470 S.o2      1 <0>         2.6032
      4 O1         -6.9823   -3.7135    0.6504 O.2       1 <0>        -0.9355
      5 O2         -6.3188   -1.3351    0.6568 O.2       1 <0>        -0.9343
      6 N1         -4.7120   -3.0634    0.0295 N.pl3     1 <0>        -0.9364
      7 C3         -4.2285   -4.4462    0.0166 C.3       1 <0>         0.1092
      8 C4         -2.6948   -4.3373    0.0026 C.3       1 <0>        -0.0825
      9 C5         -2.4228   -2.8494    0.0089 C.ar      1 <0>        -0.1454
     10 C6         -3.6415   -2.1793    0.0246 C.ar      1 <0>         0.1977
     11 C7         -3.6528   -0.7784    0.0327 C.ar      1 <0>        -0.1683
     12 C8         -2.4844   -0.0769    0.0254 C.ar      1 <0>        -0.0320
     13 C9         -1.2587   -0.7551    0.0100 C.ar      1 <0>        -0.1923
     14 C10        -1.2463   -2.1558   -0.0035 C.ar      1 <0>        -0.0082
     15 C11         0.0021   -0.0041    0.0020 C.2       1 <0>         0.4174
     16 O3          1.0607   -0.5962   -0.0113 O.2       1 <0>        -0.4370
     17 C12        -0.0184    1.5028    0.0103 C.3       1 <0>        -0.1618
     18 S2          1.6797    2.1293   -0.0025 S.3       1 <0>         0.0677
     19 C13         1.3662    3.8631    0.0098 C.ar      1 <0>         0.3683
     20 N2          0.1126    4.2922    0.0186 N.ar      1 <0>        -0.6192
     21 C14        -0.1619    5.5945    0.0336 C.ar      1 <0>         0.4773
     22 C15         0.8880    6.5082    0.0285 C.ar      1 <0>        -0.3708
     23 C16         2.1914    6.0201    0.0135 C.ar      1 <0>         0.4772
     24 N3          2.3902    4.7041    0.0045 N.ar      1 <0>        -0.5906
     25 N4          3.2682    6.8930    0.0083 N.pl3     1 <0>        -0.8351
     26 N5         -1.4762    6.0350    0.0490 N.pl3     1 <0>        -0.8365
     27 H1         -8.8656   -2.8251   -1.3221 H         1 <0>         0.0748
     28 H2         -8.3874   -1.1106   -1.3175 H         1 <0>         0.0754
     29 H3         -8.5225   -1.9927   -2.8576 H         1 <0>         0.0878
     30 H4         -6.1497   -1.7325   -2.1862 H         1 <0>         0.1358
     31 H5         -6.6279   -3.4470   -2.1908 H         1 <0>         0.1350
     32 H6         -4.5791   -4.9609   -0.8779 H         1 <0>         0.0869
     33 H7         -4.5619   -4.9732    0.9105 H         1 <0>         0.0952
     34 H8         -2.2889   -4.7948   -0.8997 H         1 <0>         0.0959
     35 H9         -2.2718   -4.8055    0.8913 H         1 <0>         0.0966
     36 H10        -4.5947   -0.2502    0.0453 H         1 <0>         0.1513
     37 H11        -2.5035    1.0029    0.0317 H         1 <0>         0.1426
     38 H12        -0.3063   -2.6874   -0.0195 H         1 <0>         0.1407
     39 H13        -0.5021    1.8340   -0.7999 H         1 <0>         0.1159
     40 H14        -0.5286    1.8543    0.9071 H         1 <0>         0.1309
     41 H15         0.6959    7.5710    0.0357 H         1 <0>         0.1363
     42 H16         4.1739    6.5459   -0.0019 H         1 <0>         0.4088
     43 H17         3.1160    7.8510    0.0149 H         1 <0>         0.4119
     44 H18        -1.6690    6.9856    0.0563 H         1 <0>         0.4118
     45 H19        -2.2030    5.3926    0.0525 H         1 <0>         0.4070
@<TRIPOS>BOND
     1    1    2 1
     2    1   27 1
     3    1   28 1
     4    1   29 1
     5    2    3 1
     6    2   30 1
     7    2   31 1
     8    3    4 2
     9    3    5 2
    10    3    6 1
    11    6   10 1
    12    6    7 1
    13    7    8 1
    14    7   32 1
    15    7   33 1
    16    8    9 1
    17    8   34 1
    18    8   35 1
    19    9   14 ar
    20    9   10 ar
    21   10   11 ar
    22   11   12 ar
    23   11   36 1
    24   12   13 ar
    25   12   37 1
    26   13   14 ar
    27   13   15 1
    28   14   38 1
    29   15   16 2
    30   15   17 1
    31   17   18 1
    32   17   39 1
    33   17   40 1
    34   18   19 1
    35   19   24 ar
    36   19   20 ar
    37   20   21 ar
    38   21   22 ar
    39   21   26 1
    40   22   23 ar
    41   22   41 1
    42   23   24 ar
    43   23   25 1
    44   25   42 1
    45   25   43 1
    46   26   44 1
    47   26   45 1
@<TRIPOS>MOLECULE
ZINC02664637
   53    57     0     0     0
SMALL
USER_CHARGES
2-[[2-[(4R)-2,5-dioxospiro[imidazolidine-4,2'-tetralin]-1-yl]acetyl]amino]-5,6-dihydro-4H-cyclopenta[d]thiophene-3-carboxamide
@<TRIPOS>ATOM
      1 C1         -7.5470    6.6524    5.3696 C.ar      1 <0>        -0.1153
      2 C2         -6.6795    7.4768    4.6772 C.ar      1 <0>        -0.1210
      3 C3         -6.4726    7.2742    3.3286 C.ar      1 <0>        -0.1120
      4 C4         -7.1298    6.2494    2.6597 C.ar      1 <0>        -0.0804
      5 C5         -7.9888    5.4246    3.3499 C.ar      1 <0>        -0.0613
      6 C6         -8.1968    5.6315    4.7081 C.ar      1 <0>        -0.1175
      7 C7         -8.7278    4.2871    2.6949 C.3       1 <0>        -0.0870
      8 C8         -8.7579    4.4671    1.1779 C.3       1 <0>        -0.1140
      9 C9         -7.3351    4.7349    0.6927 C.3       1 <0>         0.1280
     10 C10        -6.8714    6.0979    1.1827 C.3       1 <0>        -0.0709
     11 C11        -6.4058    3.6431    1.1682 C.2       1 <0>         0.5371
     12 O1         -6.1538    3.3412    2.3149 O.2       1 <0>        -0.4399
     13 N1         -5.9134    3.0766    0.0468 N.am      1 <0>        -0.5660
     14 C12        -6.4090    3.6531   -1.0553 C.2       1 <0>         0.7103
     15 O2         -6.1180    3.3131   -2.1852 O.2       1 <0>        -0.5353
     16 N2         -7.2659    4.6528   -0.7709 N.am      1 <0>        -0.7145
     17 C13        -4.9597    1.9646    0.0366 C.3       1 <0>         0.1078
     18 C14        -3.5542    2.5083    0.0325 C.2       1 <0>         0.4979
     19 O3         -3.3675    3.7066    0.0377 O.2       1 <0>        -0.4851
     20 N3         -2.5046    1.6628    0.0231 N.am      1 <0>        -0.6146
     21 C15        -1.2114    2.1631    0.0194 C.2       1 <0>         0.0677
     22 C16        -0.0178    1.4620    0.0101 C.2       1 <0>        -0.2117
     23 C17         1.2226    2.2367    0.0024 C.2       1 <0>        -0.0943
     24 C18         1.0619    3.5722    0.0093 C.2       1 <0>        -0.2321
     25 S1         -0.6974    3.8157    0.0285 S.3       1 <0>         0.2659
     26 C19         2.3794    4.2990   -0.0039 C.3       1 <0>        -0.0324
     27 C20         3.4059    3.2362   -0.4540 C.3       1 <0>        -0.1157
     28 C21         2.7206    1.9291   -0.0085 C.3       1 <0>        -0.0605
     29 C22         0.0021   -0.0041    0.0020 C.2       1 <0>         0.5831
     30 O4          0.0204   -0.6182    1.0527 O.2       1 <0>        -0.5324
     31 N4          0.0001   -0.6716   -1.1688 N.am      1 <0>        -0.8473
     32 H1         -7.7149    6.8071    6.4252 H         1 <0>         0.1228
     33 H2         -6.1656    8.2761    5.1904 H         1 <0>         0.1231
     34 H3         -5.7943    7.9178    2.7882 H         1 <0>         0.1214
     35 H4         -8.8733    4.9875    5.2503 H         1 <0>         0.1220
     36 H5         -9.7495    4.2572    3.0735 H         1 <0>         0.0875
     37 H6         -8.2279    3.3489    2.9355 H         1 <0>         0.0902
     38 H7         -9.3971    5.3121    0.9221 H         1 <0>         0.0931
     39 H8         -9.1413    3.5621    0.7065 H         1 <0>         0.0837
     40 H9         -5.8033    6.2034    0.9924 H         1 <0>         0.0886
     41 H10        -7.4102    6.8761    0.6422 H         1 <0>         0.1006
     42 H11        -7.7430    5.2080   -1.4073 H         1 <0>         0.4436
     43 H12        -5.1175    1.3588   -0.8557 H         1 <0>         0.1383
     44 H13        -5.1089    1.3498    0.9242 H         1 <0>         0.1364
     45 H14        -2.6539    0.7044    0.0190 H         1 <0>         0.4220
     46 H15         2.3508    5.1249   -0.7147 H         1 <0>         0.0800
     47 H16         2.6224    4.6636    0.9942 H         1 <0>         0.0857
     48 H17         3.5405    3.2572   -1.5354 H         1 <0>         0.0774
     49 H18         4.3581    3.3718    0.0588 H         1 <0>         0.0849
     50 H19         3.0554    1.6491    0.9903 H         1 <0>         0.0823
     51 H20         2.9362    1.1296   -0.7173 H         1 <0>         0.0722
     52 H21        -0.0145   -0.1822   -2.0061 H         1 <0>         0.4040
     53 H22         0.0132   -1.6415   -1.1742 H         1 <0>         0.4037
@<TRIPOS>BOND
     1    1    6 ar
     2    1    2 ar
     3    1   32 1
     4    2    3 ar
     5    2   33 1
     6    3    4 ar
     7    3   34 1
     8    4   10 1
     9    4    5 ar
    10    5    6 ar
    11    5    7 1
    12    6   35 1
    13    7    8 1
    14    7   36 1
    15    7   37 1
    16    8    9 1
    17    8   38 1
    18    8   39 1
    19    9   16 1
    20    9   10 1
    21    9   11 1
    22   10   40 1
    23   10   41 1
    24   11   12 2
    25   11   13 am
    26   13   14 am
    27   13   17 1
    28   14   15 2
    29   14   16 am
    30   16   42 1
    31   17   18 1
    32   17   43 1
    33   17   44 1
    34   18   19 2
    35   18   20 am
    36   20   21 1
    37   20   45 1
    38   21   25 1
    39   21   22 2
    40   22   23 1
    41   22   29 1
    42   23   28 1
    43   23   24 2
    44   24   25 1
    45   24   26 1
    46   26   27 1
    47   26   46 1
    48   26   47 1
    49   27   28 1
    50   27   48 1
    51   27   49 1
    52   28   50 1
    53   28   51 1
    54   29   30 2
    55   29   31 am
    56   31   52 1
    57   31   53 1
@<TRIPOS>MOLECULE
ZINC39217231
   47    50     0     0     0
SMALL
USER_CHARGES

@<TRIPOS>ATOM
      1 C1          2.4326    0.0688   -0.8340 C.3       1 <0>        -0.1187
      2 C2          1.1996   -0.6818   -0.4011 C.ar      1 <0>        -0.0734
      3 C3          0.0665   -0.6647   -1.1940 C.ar      1 <0>        -0.1097
      4 C4         -1.0668   -1.3520   -0.8006 C.ar      1 <0>        -0.1034
      5 C5         -1.0707   -2.0584    0.3864 C.ar      1 <0>        -0.1178
      6 C6          0.0653   -2.0776    1.1849 C.ar      1 <0>         0.1241
      7 C7          1.2042   -1.3906    0.7839 C.ar      1 <0>        -0.1117
      8 N1          0.0646   -2.7913    2.3874 N.pl3     1 <0>        -0.5798
      9 C8         -0.0219   -4.2572    2.3901 C.3       1 <0>         0.4047
     10 H1          0.2338   -4.6393    1.4018 H         1 <0>         0.1483
     11 N2          0.9185   -4.7902    3.3803 N.am      1 <0>        -0.7399
     12 C9          1.2135   -4.0844    4.4876 C.2       1 <0>         0.5743
     13 O1          1.9030   -4.5877    5.3580 O.2       1 <0>        -0.5556
     14 C10         0.7363   -2.7761    4.6503 C.2       1 <0>        -0.4296
     15 C11         0.1508   -2.1349    3.5963 C.2       1 <0>         0.4921
     16 N3         -0.3444   -0.8639    3.7408 N.pl3     1 <0>        -0.8436
     17 S1         -1.7100   -4.7645    2.8187 S.3       1 <0>        -0.1491
     18 C12        -1.9733   -4.0621    4.4703 C.3       1 <0>        -0.0606
     19 C13        -3.3574   -4.4144    4.9512 C.2       1 <0>         0.4071
     20 N4         -3.7471   -3.9704    6.1746 N.am      1 <0>        -0.6477
     21 H2         -3.1360   -3.4412    6.7108 H         1 <0>         0.4197
     22 C14        -4.9802   -4.2592    6.6518 C.2       1 <0>         0.5536
     23 O2         -5.3426   -3.8672    7.7458 O.2       1 <0>        -0.5056
     24 C15        -5.8652   -5.0645    5.7972 C.ar      1 <0>        -0.1975
     25 C16        -7.1532   -5.4171    6.1950 C.ar      1 <0>        -0.0414
     26 C17        -7.9399   -6.1738    5.3545 C.ar      1 <0>        -0.1347
     27 C18        -7.4596   -6.5860    4.1183 C.ar      1 <0>        -0.0720
     28 C19        -6.1899   -6.2488    3.7067 C.ar      1 <0>        -0.1046
     29 C20        -5.3735   -5.4820    4.5406 C.ar      1 <0>         0.1527
     30 N5         -4.1183   -5.1222    4.1728 N.2       1 <0>        -0.4953
     31 H3          3.0621   -0.5843   -1.4385 H         1 <0>         0.0749
     32 H4          2.1406    0.9385   -1.4225 H         1 <0>         0.0709
     33 H5          2.9870    0.3950    0.0460 H         1 <0>         0.0679
     34 H6          0.0669   -0.1129   -2.1224 H         1 <0>         0.1282
     35 H7         -1.9501   -1.3363   -1.4218 H         1 <0>         0.1319
     36 H8         -1.9564   -2.5948    0.6934 H         1 <0>         0.1375
     37 H9          2.0909   -1.4075    1.4003 H         1 <0>         0.1252
     38 H10         1.3302   -5.6567    3.2368 H         1 <0>         0.4132
     39 H11         0.8344   -2.2773    5.6031 H         1 <0>         0.1486
     40 H12        -0.8344   -0.4487    3.0139 H         1 <0>         0.4052
     41 H13        -0.2045   -0.3803    4.5700 H         1 <0>         0.4210
     42 H14        -1.2344   -4.4694    5.1604 H         1 <0>         0.1212
     43 H15        -1.8693   -2.9781    4.4250 H         1 <0>         0.1157
     44 H16        -7.5319   -5.0997    7.1553 H         1 <0>         0.1391
     45 H17        -8.9386   -6.4492    5.6597 H         1 <0>         0.1355
     46 H18        -8.0898   -7.1788    3.4719 H         1 <0>         0.1368
     47 H19        -5.8273   -6.5751    2.7432 H         1 <0>         0.1423
@<TRIPOS>BOND
     1    1    2 1
     2    1   31 1
     3    1   32 1
     4    1   33 1
     5    2    7 ar
     6    2    3 ar
     7    3    4 ar
     8    3   34 1
     9    4    5 ar
    10    4   35 1
    11    5    6 ar
    12    5   36 1
    13    6    7 ar
    14    6    8 1
    15    7   37 1
    16    8   15 1
    17    8    9 1
    18    9   10 1
    19    9   11 1
    20    9   17 1
    21   11   12 am
    22   11   38 1
    23   12   13 2
    24   12   14 1
    25   14   15 2
    26   14   39 1
    27   15   16 1
    28   16   40 1
    29   16   41 1
    30   17   18 1
    31   18   19 1
    32   18   42 1
    33   18   43 1
    34   19   30 2
    35   19   20 1
    36   20   21 1
    37   20   22 am
    38   22   23 2
    39   22   24 1
    40   24   29 ar
    41   24   25 ar
    42   25   26 ar
    43   25   44 1
    44   26   27 ar
    45   26   45 1
    46   27   28 ar
    47   27   46 1
    48   28   29 ar
    49   28   47 1
    50   29   30 1
@<TRIPOS>MOLECULE
ZINC57173255
   52    53     0     0     0
SMALL
USER_CHARGES

@<TRIPOS>ATOM
      1 C1         -0.0187    1.5258    0.0104 C.3       1 <0>        -0.1502
      2 C2          0.0021   -0.0041    0.0020 C.3       1 <0>        -0.1016
      3 C3          0.7421   -0.5109    1.2415 C.3       1 <0>        -0.1395
      4 C4         -1.4333   -0.5336    0.0129 C.3       1 <0>         0.1338
      5 H1         -1.4190   -1.6203    0.0965 H         1 <0>         0.1171
      6 C5         -2.1247   -0.1373   -1.2662 C.2       1 <0>         0.5145
      7 O1         -3.1219    0.5519   -1.2280 O.2       1 <0>        -0.5259
      8 N1         -1.6348   -0.5487   -2.4524 N.am      1 <0>        -0.7209
      9 C6         -2.3069   -0.1633   -3.6958 C.3       1 <0>         0.1327
     10 C7         -1.5534   -0.7567   -4.8879 C.3       1 <0>        -0.6496
     11 S1         -2.3856   -0.2796   -6.4275 S.o2      1 <0>         2.6272
     12 O2         -3.6555   -0.9114   -6.5136 O.2       1 <0>        -0.9532
     13 O3         -2.2567    1.1195   -6.6403 O.2       1 <0>        -0.9533
     14 N2         -1.4853   -0.9748   -7.6310 N.pl3     1 <0>        -1.2490
     15 N3         -2.1548    0.0345    1.1543 N.am      1 <0>        -0.7135
     16 C8         -2.0672   -0.5500    2.3656 C.2       1 <0>         0.5189
     17 O4         -1.3910   -1.5464    2.5106 O.2       1 <0>        -0.5204
     18 C9         -2.8094    0.0344    3.5397 C.3       1 <0>        -0.1033
     19 C10        -2.5461   -0.8005    4.7664 C.ar      1 <0>        -0.0629
     20 C11        -3.3843   -1.8751    5.0582 C.ar      1 <0>        -0.1001
     21 C12        -3.1747   -2.6487    6.1581 C.ar      1 <0>        -0.1044
     22 C13        -2.0976   -2.3628    7.0144 C.ar      1 <0>        -0.0503
     23 C14        -1.8491   -3.1393    8.1591 C.ar      1 <0>        -0.1068
     24 C15        -0.7962   -2.8328    8.9651 C.ar      1 <0>        -0.1169
     25 C16         0.0422   -1.7584    8.6730 C.ar      1 <0>        -0.1174
     26 C17        -0.1677   -0.9845    7.5734 C.ar      1 <0>        -0.1057
     27 C18        -1.2451   -1.2703    6.7174 C.ar      1 <0>        -0.0491
     28 C19        -1.4902   -0.4972    5.5696 C.ar      1 <0>        -0.0899
     29 H2          1.0039    1.9031    0.0027 H         1 <0>         0.0620
     30 H3         -0.5459    1.8868   -0.8726 H         1 <0>         0.0536
     31 H4         -0.5289    1.8773    0.9072 H         1 <0>         0.0603
     32 H5          0.5123   -0.3556   -0.8948 H         1 <0>         0.0804
     33 H6          1.7647   -0.1336    1.2338 H         1 <0>         0.0526
     34 H7          0.2319   -0.1594    2.1383 H         1 <0>         0.0611
     35 H8          0.7568   -1.6008    1.2356 H         1 <0>         0.0631
     36 H9         -0.8372   -1.0999   -2.4829 H         1 <0>         0.4070
     37 H10        -3.3295   -0.5406   -3.6881 H         1 <0>         0.0892
     38 H11        -2.3212    0.9233   -3.7794 H         1 <0>         0.0894
     39 H12        -0.5308   -0.3794   -4.8956 H         1 <0>         0.1449
     40 H13        -1.5391   -1.8434   -4.8043 H         1 <0>         0.1450
     41 H14        -0.7014   -1.5008   -7.4081 H         1 <0>         0.4137
     42 H15        -1.7418   -0.8560   -8.5589 H         1 <0>         0.4239
     43 H16        -2.6956    0.8314    1.0383 H         1 <0>         0.4110
     44 H17        -2.4676    1.0546    3.7143 H         1 <0>         0.1052
     45 H18        -3.8784    0.0408    3.3271 H         1 <0>         0.1068
     46 H19        -4.2128   -2.0970    4.4019 H         1 <0>         0.1211
     47 H20        -3.8329   -3.4778    6.3720 H         1 <0>         0.1274
     48 H21        -2.4906   -3.9746    8.3981 H         1 <0>         0.1265
     49 H22        -0.6077   -3.4309    9.8443 H         1 <0>         0.1228
     50 H23         0.8706   -1.5364    9.3294 H         1 <0>         0.1228
     51 H24         0.4899   -0.1549    7.3599 H         1 <0>         0.1259
     52 H25        -0.8463    0.3357    5.3284 H         1 <0>         0.1241
@<TRIPOS>BOND
     1    1    2 1
     2    1   29 1
     3    1   30 1
     4    1   31 1
     5    2    3 1
     6    2    4 1
     7    2   32 1
     8    3   33 1
     9    3   34 1
    10    3   35 1
    11    4    5 1
    12    4    6 1
    13    4   15 1
    14    6    7 2
    15    6    8 am
    16    8    9 1
    17    8   36 1
    18    9   10 1
    19    9   37 1
    20    9   38 1
    21   10   11 1
    22   10   39 1
    23   10   40 1
    24   11   12 2
    25   11   13 2
    26   11   14 1
    27   14   41 1
    28   14   42 1
    29   15   16 am
    30   15   43 1
    31   16   17 2
    32   16   18 1
    33   18   19 1
    34   18   44 1
    35   18   45 1
    36   19   28 ar
    37   19   20 ar
    38   20   21 ar
    39   20   46 1
    40   21   22 ar
    41   21   47 1
    42   22   27 ar
    43   22   23 ar
    44   23   24 ar
    45   23   48 1
    46   24   25 ar
    47   24   49 1
    48   25   26 ar
    49   25   50 1
    50   26   27 ar
    51   26   51 1
    52   27   28 ar
    53   28   52 1
@<TRIPOS>MOLECULE
ZINC66234745
   48    49     0     0     0
SMALL
USER_CHARGES

@<TRIPOS>ATOM
      1 C1          1.3220    1.9109    0.6420 C.3       1 <0>         0.0635
      2 N1          1.0694    0.5250    0.2400 N.pl3     1 <0>        -0.4354
      3 C2          1.2657   -0.0081   -1.0054 C.2       1 <0>        -0.0337
      4 C3          0.9100   -1.3050   -0.9345 C.2       1 <0>        -0.0248
      5 N2          0.5076   -1.5570    0.3199 N.2       1 <0>        -0.4532
      6 C4          0.6051   -0.4667    1.0303 C.2       1 <0>         0.1388
      7 C5          0.2542   -0.3351    2.4900 C.3       1 <0>         0.1990
      8 C6          0.4052   -1.6947    3.1754 C.3       1 <0>        -0.1495
      9 C7          0.1228   -1.5457    4.6717 C.3       1 <0>         0.1266
     10 N3          0.3927   -2.8166    5.3485 N.am      1 <0>        -0.7453
     11 C8          0.2122   -2.9227    6.6799 C.2       1 <0>         0.7043
     12 O1         -0.1745   -1.9636    7.3193 O.2       1 <0>        -0.5840
     13 N4          0.4605   -4.0919    7.3026 N.am      1 <0>        -0.7475
     14 C9          0.2644   -4.2072    8.7498 C.3       1 <0>         0.1440
     15 C10         0.6144   -5.6269    9.2004 C.3       1 <0>        -0.0919
     16 C11         0.4127   -5.7454   10.6891 C.ar      1 <0>        -0.0666
     17 C12         1.4538   -5.4571   11.5525 C.ar      1 <0>        -0.1222
     18 C13         1.2719   -5.5649   12.9187 C.ar      1 <0>        -0.1003
     19 C14         0.0490   -5.9617   13.4248 C.ar      1 <0>        -0.1462
     20 C15        -0.9968   -6.2515   12.5609 C.ar      1 <0>         0.1073
     21 C16        -0.8135   -6.1366   11.1903 C.ar      1 <0>        -0.1390
     22 O2         -2.2006   -6.6419   13.0563 O.3       1 <0>        -0.5000
     23 C17        -1.1917    0.1465    2.6255 C.3       1 <0>         0.4718
     24 F1         -2.0595   -0.8454    2.1561 F         1 <0>        -0.1605
     25 F2         -1.4707    0.4118    3.9705 F         1 <0>        -0.1596
     26 F3         -1.3670    1.3133    1.8739 F         1 <0>        -0.1747
     27 O3          1.1308    0.6096    3.1074 O.3       1 <0>        -0.5282
     28 H1          2.3192    1.9876    1.0754 H         1 <0>         0.0829
     29 H2          1.2542    2.5605   -0.2306 H         1 <0>         0.0893
     30 H3          0.5805    2.2159    1.3804 H         1 <0>         0.0989
     31 H4          1.6346    0.5116   -1.8773 H         1 <0>         0.1829
     32 H5          0.9431   -2.0174   -1.7456 H         1 <0>         0.1787
     33 H6         -0.3019   -2.4012    2.7407 H         1 <0>         0.1085
     34 H7          1.4211   -2.0628    3.0323 H         1 <0>         0.1005
     35 H8          0.7652   -0.7692    5.0871 H         1 <0>         0.0808
     36 H9         -0.9216   -1.2704    4.8186 H         1 <0>         0.0813
     37 H10         0.7012   -3.5818    4.8384 H         1 <0>         0.3970
     38 H11         0.7690   -4.8571    6.7925 H         1 <0>         0.3968
     39 H12         0.9101   -3.4939    9.2619 H         1 <0>         0.0697
     40 H13        -0.7766   -3.9950    8.9934 H         1 <0>         0.0689
     41 H14        -0.0313   -6.3402    8.6883 H         1 <0>         0.0816
     42 H15         1.6554   -5.8391    8.9568 H         1 <0>         0.0825
     43 H16         2.4106   -5.1475   11.1588 H         1 <0>         0.1262
     44 H17         2.0865   -5.3392   13.5909 H         1 <0>         0.1287
     45 H18        -0.0923   -6.0464   14.4922 H         1 <0>         0.1289
     46 H19        -1.6276   -6.3571   10.5158 H         1 <0>         0.1292
     47 H20        -2.8093   -5.9113   13.2318 H         1 <0>         0.3925
     48 H21         2.0659    0.3681    3.0594 H         1 <0>         0.4012
@<TRIPOS>BOND
     1    1    2 1
     2    1   28 1
     3    1   29 1
     4    1   30 1
     5    2    6 1
     6    2    3 1
     7    3    4 2
     8    3   31 1
     9    4    5 1
    10    4   32 1
    11    5    6 2
    12    6    7 1
    13    7    8 1
    14    7   23 1
    15    7   27 1
    16    8    9 1
    17    8   33 1
    18    8   34 1
    19    9   10 1
    20    9   35 1
    21    9   36 1
    22   10   11 am
    23   10   37 1
    24   11   12 2
    25   11   13 am
    26   13   14 1
    27   13   38 1
    28   14   15 1
    29   14   39 1
    30   14   40 1
    31   15   16 1
    32   15   41 1
    33   15   42 1
    34   16   21 ar
    35   16   17 ar
    36   17   18 ar
    37   17   43 1
    38   18   19 ar
    39   18   44 1
    40   19   20 ar
    41   19   45 1
    42   20   21 ar
    43   20   22 1
    44   21   46 1
    45   22   47 1
    46   23   24 1
    47   23   25 1
    48   23   26 1
    49   27   48 1
@<TRIPOS>MOLECULE
ZINC10431492
   48    50     0     0     0
SMALL
USER_CHARGES
6-amino-1-benzyl-5-[(5-chloro-1-methyl-imidazol-2-yl)methyl-ethyl-amino]-pyrimidine-2,4-dione
@<TRIPOS>ATOM
      1 C1          3.9891    1.7568   -3.5888 C.3       1 <0>        -0.1408
      2 C2          3.7057    1.8858   -2.0908 C.3       1 <0>         0.0363
      3 N1          4.0427    0.6240   -1.4183 N.pl3     1 <0>        -0.4386
      4 C3          3.5664    0.6245   -0.0286 C.3       1 <0>         0.1382
      5 C4          2.0596    0.6471   -0.0141 C.2       1 <0>         0.2357
      6 N2          1.2834   -0.4016   -0.0124 N.2       1 <0>        -0.4641
      7 C5          0.0021   -0.0041    0.0020 C.2       1 <0>         0.0077
      8 C6         -0.0162    1.3437    0.0094 C.2       1 <0>         0.0108
      9 N3          1.2886    1.7572   -0.0008 N.pl3     1 <0>        -0.4489
     10 C7          1.7612    3.1439    0.0014 C.3       1 <0>         0.0524
     11 Cl1        -1.4238    2.3597    0.0220 Cl        1 <0>        -0.0076
     12 C8          5.4334    0.3740   -1.4772 C.2       1 <0>        -0.2211
     13 C9          5.9153   -0.7148   -2.1517 C.2       1 <0>         0.5188
     14 N4          7.2735   -0.9331   -2.1981 N.am      1 <0>        -0.5383
     15 C10         8.1197   -0.0901   -1.5783 C.2       1 <0>         0.7132
     16 O1          9.3165   -0.3012   -1.6259 O.2       1 <0>        -0.5335
     17 N5          7.6628    0.9821   -0.9065 N.am      1 <0>        -0.6650
     18 H1          8.3098    1.5953   -0.4533 H         1 <0>         0.4362
     19 C11         6.3415    1.2376   -0.8386 C.2       1 <0>         0.5521
     20 O2          5.9355    2.2119   -0.2275 O.2       1 <0>        -0.5359
     21 C12         7.8006   -2.0928   -2.9216 C.3       1 <0>         0.1487
     22 C13         7.8908   -3.2703   -1.9855 C.ar      1 <0>        -0.1287
     23 C14         9.0487   -3.4923   -1.2637 C.ar      1 <0>        -0.0870
     24 C15         9.1298   -4.5697   -0.4014 C.ar      1 <0>        -0.1209
     25 C16         8.0568   -5.4311   -0.2688 C.ar      1 <0>        -0.1044
     26 C17         6.9008   -5.2121   -0.9945 C.ar      1 <0>        -0.1198
     27 C18         6.8179   -4.1317   -1.8529 C.ar      1 <0>        -0.1010
     28 N6          5.0506   -1.5805   -2.7815 N.pl3     1 <0>        -0.8185
     29 H2          5.0454    1.5349   -3.7409 H         1 <0>         0.0514
     30 H3          3.3849    0.9507   -4.0048 H         1 <0>         0.0591
     31 H4          3.7390    2.6931   -4.0878 H         1 <0>         0.0587
     32 H5          2.6494    2.1077   -1.9387 H         1 <0>         0.0725
     33 H6          4.3099    2.6919   -1.6747 H         1 <0>         0.0572
     34 H7          3.9479    1.5064    0.4859 H         1 <0>         0.0753
     35 H8          3.9211   -0.2734    0.4774 H         1 <0>         0.1056
     36 H9         -0.8630   -0.6506    0.0065 H         1 <0>         0.1802
     37 H10         1.8884    3.4828    1.0295 H         1 <0>         0.0838
     38 H11         2.7157    3.2033   -0.5215 H         1 <0>         0.1018
     39 H12         1.0310    3.7774   -0.5022 H         1 <0>         0.0900
     40 H13         7.1355   -2.3372   -3.7499 H         1 <0>         0.1006
     41 H14         8.7924   -1.8595   -3.3087 H         1 <0>         0.1204
     42 H15         9.8886   -2.8219   -1.3707 H         1 <0>         0.1322
     43 H16        10.0331   -4.7410    0.1653 H         1 <0>         0.1264
     44 H17         8.1217   -6.2754    0.4016 H         1 <0>         0.1256
     45 H18         6.0626   -5.8853   -0.8911 H         1 <0>         0.1268
     46 H19         5.9149   -3.9608   -2.4201 H         1 <0>         0.1186
     47 H20         4.0945   -1.4204   -2.7486 H         1 <0>         0.4360
     48 H21         5.3973   -2.3509   -3.2583 H         1 <0>         0.4015
@<TRIPOS>BOND
     1    1    2 1
     2    1   29 1
     3    1   30 1
     4    1   31 1
     5    2    3 1
     6    2   32 1
     7    2   33 1
     8    3    4 1
     9    3   12 1
    10    4    5 1
    11    4   34 1
    12    4   35 1
    13    5    9 1
    14    5    6 2
    15    6    7 1
    16    7    8 2
    17    7   36 1
    18    8    9 1
    19    8   11 1
    20    9   10 1
    21   10   37 1
    22   10   38 1
    23   10   39 1
    24   12   19 1
    25   12   13 2
    26   13   14 1
    27   13   28 1
    28   14   15 am
    29   14   21 1
    30   15   16 2
    31   15   17 am
    32   17   18 1
    33   17   19 am
    34   19   20 2
    35   21   22 1
    36   21   40 1
    37   21   41 1
    38   22   27 ar
    39   22   23 ar
    40   23   24 ar
    41   23   42 1
    42   24   25 ar
    43   24   43 1
    44   25   26 ar
    45   25   44 1
    46   26   27 ar
    47   26   45 1
    48   27   46 1
    49   28   47 1
    50   28   48 1
@<TRIPOS>MOLECULE
ZINC32261526
   48    49     0     0     0
SMALL
USER_CHARGES
N-tert-butyl-2-fluoro-5-[[[(2R)-tetrahydrofuran-2-carbonyl]amino]carbamoyl]benzenesulfonamide
@<TRIPOS>ATOM
      1 C1         -9.9619    3.0473    5.2942 C.3       1 <0>        -0.1832
      2 C2        -11.4753    2.8444    5.1983 C.3       1 <0>         0.1764
      3 C3        -11.9863    2.1998    6.4884 C.3       1 <0>        -0.1494
      4 C4        -11.7934    1.9325    4.0117 C.3       1 <0>        -0.1970
      5 N1        -12.1306    4.1407    5.0074 N.pl3     1 <0>        -1.1156
      6 S1        -11.8178    5.0345    3.6488 S.o2      1 <0>         2.6958
      7 O1        -12.5993    6.2168    3.7517 O.2       1 <0>        -0.9475
      8 O2        -11.9225    4.1458    2.5450 O.2       1 <0>        -0.9451
      9 C5        -10.1311    5.5369    3.7326 C.ar      1 <0>        -0.7158
     10 C6         -9.2351    5.1008    2.7799 C.ar      1 <0>         0.0662
     11 C7         -7.8974    5.4947    2.8512 C.ar      1 <0>        -0.1561
     12 C8         -7.4772    6.3392    3.8812 C.ar      1 <0>        -0.0056
     13 C9         -8.3826    6.7746    4.8245 C.ar      1 <0>        -0.1719
     14 C10        -9.7087    6.3754    4.7526 C.ar      1 <0>         0.2281
     15 F1        -10.5921    6.8048    5.6802 F         1 <0>        -0.1104
     16 C11        -6.9313    5.0247    1.8372 C.2       1 <0>         0.5659
     17 O3         -7.2994    4.2897    0.9416 O.2       1 <0>        -0.5315
     18 N2         -5.6418    5.4108    1.9051 N.am      1 <0>        -0.5269
     19 N3         -4.7256    4.9651    0.9435 N.am      1 <0>        -0.5303
     20 C12        -3.4361    5.3512    1.0113 C.2       1 <0>         0.5170
     21 O4         -3.0689    6.0845    1.9048 O.2       1 <0>        -0.5234
     22 C13        -2.4506    4.8718   -0.0230 C.3       1 <0>         0.0675
     23 H1         -2.4262    3.7736    0.0342 H         1 <0>         0.1047
     24 C14        -2.8177    5.4310   -1.4155 C.3       1 <0>        -0.1451
     25 C15        -1.4514    5.7285   -2.0727 C.3       1 <0>        -0.1543
     26 C16        -0.4204    5.3139   -0.9996 C.3       1 <0>         0.0425
     27 O5         -1.1329    5.4018    0.2535 O.3       1 <0>        -0.3416
     28 H2         -9.5946    3.5107    4.3667 H         1 <0>         0.0594
     29 H3         -9.4698    2.0740    5.4376 H         1 <0>         0.0794
     30 H4         -9.7332    3.7030    6.1473 H         1 <0>         0.0664
     31 H5        -13.0744    2.0540    6.4194 H         1 <0>         0.0658
     32 H6        -11.7576    2.8555    7.3415 H         1 <0>         0.0650
     33 H7        -11.4942    1.2265    6.6318 H         1 <0>         0.0728
     34 H8        -12.8815    1.7866    3.9428 H         1 <0>         0.0653
     35 H9        -11.3013    0.9592    4.1550 H         1 <0>         0.0683
     36 H10       -11.4261    2.3961    3.0842 H         1 <0>         0.0976
     37 H11       -12.9487    4.4471    5.6758 H         1 <0>         0.4461
     38 H12        -9.5662    4.4517    1.9828 H         1 <0>         0.1699
     39 H13        -6.4446    6.6507    3.9381 H         1 <0>         0.1463
     40 H14        -8.0587    7.4277    5.6214 H         1 <0>         0.1577
     41 H15        -5.3087    6.0759    2.7155 H         1 <0>         0.4559
     42 H16        -5.0587    4.3000    0.1331 H         1 <0>         0.4605
     43 H17        -3.3903    4.6762   -1.9744 H         1 <0>         0.0914
     44 H18        -3.4266    6.3394   -1.2970 H         1 <0>         0.0824
     45 H19        -1.3509    5.1360   -2.9940 H         1 <0>         0.0855
     46 H20        -1.3872    6.7992   -2.3166 H         1 <0>         0.0809
     47 H21        -0.0746    4.2891   -1.2000 H         1 <0>         0.0682
     48 H22         0.4369    6.0025   -1.0293 H         1 <0>         0.1018
@<TRIPOS>BOND
     1    1    2 1
     2    1   28 1
     3    1   29 1
     4    1   30 1
     5    2    3 1
     6    2    4 1
     7    2    5 1
     8    3   31 1
     9    3   32 1
    10    3   33 1
    11    4   34 1
    12    4   35 1
    13    4   36 1
    14    5    6 1
    15    5   37 1
    16    6    7 2
    17    6    8 2
    18    6    9 1
    19    9   14 ar
    20    9   10 ar
    21   10   11 ar
    22   10   38 1
    23   11   12 ar
    24   11   16 1
    25   12   13 ar
    26   12   39 1
    27   13   14 ar
    28   13   40 1
    29   14   15 1
    30   16   17 2
    31   16   18 am
    32   18   19 1
    33   18   41 1
    34   19   20 am
    35   19   42 1
    36   20   21 2
    37   20   22 1
    38   22   23 1
    39   22   27 1
    40   22   24 1
    41   24   25 1
    42   24   43 1
    43   24   44 1
    44   25   26 1
    45   25   45 1
    46   25   46 1
    47   26   27 1
    48   26   47 1
    49   26   48 1
@<TRIPOS>MOLECULE
ZINC47016417
   52    53     0     0     0
SMALL
USER_CHARGES

@<TRIPOS>ATOM
      1 C1         -0.0178    1.4608    0.0101 C.3       1 <0>         0.0920
      2 N1          0.0021   -0.0041    0.0020 N.pl3     1 <0>        -0.6396
      3 C2          0.0241   -0.7433    1.2666 C.3       1 <0>         0.0922
      4 C3         -0.0000   -0.6959   -1.2114 C.ar      1 <0>         0.2124
      5 C4          0.0130   -2.0849   -1.2208 C.ar      1 <0>        -0.1967
      6 C5          0.0104   -2.7658   -2.4223 C.ar      1 <0>        -0.0665
      7 C6         -0.0046   -2.0664   -3.6151 C.ar      1 <0>        -0.1441
      8 C7         -0.0176   -0.6836   -3.6094 C.ar      1 <0>        -0.0664
      9 C8         -0.0209    0.0035   -2.4114 C.ar      1 <0>        -0.1966
     10 C9         -0.0064   -2.8128   -4.9243 C.3       1 <0>        -0.0681
     11 C10        -1.4494   -3.0795   -5.3574 C.3       1 <0>        -0.1258
     12 C11        -1.4512   -3.8373   -6.6865 C.3       1 <0>         0.1328
     13 N2         -2.8329   -4.0926   -7.1012 N.am      1 <0>        -0.7432
     14 C12        -3.0807   -4.7513   -8.2506 C.2       1 <0>         0.7128
     15 O1         -2.1575   -5.1336   -8.9434 O.2       1 <0>        -0.5639
     16 N3         -4.3518   -4.9862   -8.6321 N.am      1 <0>        -0.5327
     17 N4         -5.4155   -4.5456   -7.8339 N.am      1 <0>        -0.5281
     18 C13        -6.6866   -4.7805   -8.2154 C.2       1 <0>         0.5308
     19 O2         -6.9096   -5.3733   -9.2497 O.2       1 <0>        -0.5130
     20 C14        -7.8309   -4.3067   -7.3567 C.3       1 <0>        -0.1113
     21 H1         -7.7800   -3.2241   -7.2404 H         1 <0>         0.1315
     22 C15        -7.7587   -4.9813   -5.9768 C.3       1 <0>        -0.1225
     23 C16        -9.0842   -4.7570   -5.2099 C.3       1 <0>        -0.5789
     24 S1        -10.3130   -4.5885   -6.5678 S.o2      1 <0>         2.3733
     25 O3        -11.1690   -5.7227   -6.5602 O.2       1 <0>        -0.9290
     26 O4        -10.8783   -3.2856   -6.5207 O.2       1 <0>        -0.9289
     27 C17        -9.1823   -4.7010   -8.0181 C.3       1 <0>        -0.5588
     28 H2          1.0048    1.8381    0.0023 H         1 <0>         0.0487
     29 H3         -0.5450    1.8219   -0.8730 H         1 <0>         0.0688
     30 H4         -0.5280    1.8123    0.9069 H         1 <0>         0.0668
     31 H5         -0.9979   -0.9406    1.5900 H         1 <0>         0.0484
     32 H6          0.5496   -1.6879    1.1262 H         1 <0>         0.0689
     33 H7          0.5371   -0.1514    2.0246 H         1 <0>         0.0669
     34 H8          0.0255   -2.6317   -0.2895 H         1 <0>         0.1213
     35 H9          0.0205   -3.8457   -2.4303 H         1 <0>         0.1198
     36 H10        -0.0293   -0.1404   -4.5428 H         1 <0>         0.1200
     37 H11        -0.0356    1.0834   -2.4076 H         1 <0>         0.1214
     38 H12         0.4964   -2.2146   -5.6842 H         1 <0>         0.0735
     39 H13         0.5176   -3.7608   -4.8027 H         1 <0>         0.0733
     40 H14        -1.9522   -3.6776   -4.5974 H         1 <0>         0.0706
     41 H15        -1.9733   -2.1314   -5.4790 H         1 <0>         0.0708
     42 H16        -0.9484   -3.2391   -7.4465 H         1 <0>         0.0724
     43 H17        -0.9272   -4.7853   -6.5649 H         1 <0>         0.0724
     44 H18        -3.5693   -3.7876   -6.5485 H         1 <0>         0.3903
     45 H19        -4.5301   -5.4603   -9.4594 H         1 <0>         0.4450
     46 H20        -5.2372   -4.0716   -7.0066 H         1 <0>         0.4203
     47 H21        -7.5913   -6.0507   -6.1051 H         1 <0>         0.0973
     48 H22        -6.9341   -4.5527   -5.4072 H         1 <0>         0.1031
     49 H23        -9.3177   -5.6169   -4.5820 H         1 <0>         0.1478
     50 H24        -9.0373   -3.8445   -4.6156 H         1 <0>         0.1450
     51 H25        -9.4643   -3.9889   -8.7936 H         1 <0>         0.1502
     52 H26        -9.1467   -5.7165   -8.4124 H         1 <0>         0.1534
@<TRIPOS>BOND
     1    1    2 1
     2    1   28 1
     3    1   29 1
     4    1   30 1
     5    2    3 1
     6    2    4 1
     7    3   31 1
     8    3   32 1
     9    3   33 1
    10    4    9 ar
    11    4    5 ar
    12    5    6 ar
    13    5   34 1
    14    6    7 ar
    15    6   35 1
    16    7    8 ar
    17    7   10 1
    18    8    9 ar
    19    8   36 1
    20    9   37 1
    21   10   11 1
    22   10   38 1
    23   10   39 1
    24   11   12 1
    25   11   40 1
    26   11   41 1
    27   12   13 1
    28   12   42 1
    29   12   43 1
    30   13   14 am
    31   13   44 1
    32   14   15 2
    33   14   16 am
    34   16   17 1
    35   16   45 1
    36   17   18 am
    37   17   46 1
    38   18   19 2
    39   18   20 1
    40   20   21 1
    41   20   27 1
    42   20   22 1
    43   22   23 1
    44   22   47 1
    45   22   48 1
    46   23   24 1
    47   23   49 1
    48   23   50 1
    49   24   25 2
    50   24   26 2
    51   24   27 1
    52   27   51 1
    53   27   52 1
@<TRIPOS>MOLECULE
ZINC59293119
   48    50     0     0     0
SMALL
USER_CHARGES

@<TRIPOS>ATOM
      1 C1          0.3726    1.5245    0.2153 C.3       1 <0>        -0.1530
      2 C2          0.5131    0.0012    0.2443 C.3       1 <0>         0.0622
      3 O1          0.9828   -0.4580   -1.0247 O.3       1 <0>        -0.3392
      4 C3          1.1618   -1.7894   -1.1673 C.2       1 <0>         0.5236
      5 O2          0.9244   -2.5390   -0.2367 O.2       1 <0>        -0.4933
      6 C4          1.6207   -2.3086   -2.3863 C.2       1 <0>        -0.1356
      7 C5          1.8027   -3.6350   -2.5575 C.2       1 <0>         0.1756
      8 N1          2.1497   -4.2523   -3.7630 N.am      1 <0>        -0.5111
      9 C6          2.5995   -5.5072   -3.7443 C.2       1 <0>         0.5196
     10 O3          3.0349   -6.0430   -4.7406 O.2       1 <0>        -0.4598
     11 C7          2.5385   -6.2320   -2.4077 C.3       1 <0>        -0.1101
     12 H1          3.5364   -6.4064   -2.0051 H         1 <0>         0.1603
     13 S1          1.6225   -4.9770   -1.4120 S.3       1 <0>         0.0135
     14 C8          1.7512   -7.5392   -2.5184 C.3       1 <0>        -0.1290
     15 C9          1.9678   -3.5090   -4.9409 C.2       1 <0>         0.4591
     16 C10         1.8332   -2.1591   -4.8517 C.2       1 <0>        -0.3162
     17 C11         1.9241   -1.4024   -3.5607 C.3       1 <0>         0.0997
     18 H2          1.2094   -0.5795   -3.5738 H         1 <0>         0.1122
     19 C12         3.3173   -0.8470   -3.4128 C.ar      1 <0>        -0.0846
     20 C13         4.4007   -1.7048   -3.3650 C.ar      1 <0>        -0.0831
     21 C14         5.6787   -1.1982   -3.2290 C.ar      1 <0>        -0.1427
     22 C15         5.8746    0.1724   -3.1409 C.ar      1 <0>         0.1081
     23 C16         4.7859    1.0309   -3.1896 C.ar      1 <0>        -0.1412
     24 C17         3.5104    0.5196   -3.3309 C.ar      1 <0>        -0.0820
     25 O4          7.1308    0.6731   -3.0067 O.3       1 <0>        -0.4998
     26 C18         1.5919   -1.4356   -6.0297 C.2       1 <0>         0.5374
     27 O5          0.4625   -1.0651   -6.2963 O.2       1 <0>        -0.4927
     28 O6          2.6118   -1.1501   -6.8678 O.3       1 <0>        -0.3501
     29 C19         2.2938   -0.4104   -8.0483 C.3       1 <0>         0.0282
     30 N2          1.9272   -4.1340   -6.1595 N.pl3     1 <0>        -0.8349
     31 H3          1.3421    1.9748    0.0021 H         1 <0>         0.0678
     32 H4         -0.3386    1.8091   -0.5601 H         1 <0>         0.0676
     33 H5          0.0143    1.8748    1.1833 H         1 <0>         0.0806
     34 H6          1.2243   -0.2834    1.0197 H         1 <0>         0.0701
     35 H7         -0.4564   -0.4490    0.4575 H         1 <0>         0.0697
     36 H8          2.2331   -8.1930   -3.2454 H         1 <0>         0.0903
     37 H9          1.7267   -8.0320   -1.5466 H         1 <0>         0.0906
     38 H10         0.7330   -7.3237   -2.8423 H         1 <0>         0.0751
     39 H11         4.2476   -2.7716   -3.4336 H         1 <0>         0.1090
     40 H12         6.5246   -1.8686   -3.1910 H         1 <0>         0.1268
     41 H13         4.9359    2.0982   -3.1211 H         1 <0>         0.1306
     42 H14         2.6629    1.1878   -3.3732 H         1 <0>         0.1302
     43 H15         7.5701    0.8637   -3.8468 H         1 <0>         0.3911
     44 H16         3.2004   -0.2496   -8.6316 H         1 <0>         0.1019
     45 H17         1.5727   -0.9698   -8.6444 H         1 <0>         0.0597
     46 H18         1.8656    0.5524   -7.7695 H         1 <0>         0.0628
     47 H19         1.9017   -5.1025   -6.2073 H         1 <0>         0.4158
     48 H20         1.9241   -3.6079   -6.9745 H         1 <0>         0.4191
@<TRIPOS>BOND
     1    1    2 1
     2    1   31 1
     3    1   32 1
     4    1   33 1
     5    2    3 1
     6    2   34 1
     7    2   35 1
     8    3    4 1
     9    4    5 2
    10    4    6 1
    11    6   17 1
    12    6    7 2
    13    7   13 1
    14    7    8 1
    15    8    9 am
    16    8   15 1
    17    9   10 2
    18    9   11 1
    19   11   12 1
    20   11   13 1
    21   11   14 1
    22   14   36 1
    23   14   37 1
    24   14   38 1
    25   15   16 2
    26   15   30 1
    27   16   17 1
    28   16   26 1
    29   17   18 1
    30   17   19 1
    31   19   24 ar
    32   19   20 ar
    33   20   21 ar
    34   20   39 1
    35   21   22 ar
    36   21   40 1
    37   22   23 ar
    38   22   25 1
    39   23   24 ar
    40   23   41 1
    41   24   42 1
    42   25   43 1
    43   26   27 2
    44   26   28 1
    45   28   29 1
    46   29   44 1
    47   29   45 1
    48   29   46 1
    49   30   47 1
    50   30   48 1
@<TRIPOS>MOLECULE
ZINC67045642
   55    56     0     0     0
SMALL
USER_CHARGES

@<TRIPOS>ATOM
      1 C1          0.0042    1.4797   -0.0354 C.3       1 <0>        -0.1556
      2 C2          0.0262   -0.0502   -0.0333 C.3       1 <0>        -0.1502
      3 C3          0.7614   -0.5480    1.2127 C.3       1 <0>        -0.0085
      4 N1          0.7825   -2.0168    1.2147 N.4       1 <0>        -0.3900
      5 C4         -0.5943   -2.5340    1.3653 C.3       1 <0>        -0.0096
      6 C5         -0.4466   -3.8035    2.2406 C.3       1 <0>        -0.1413
      7 C6          0.6734   -3.3764    3.2255 C.3       1 <0>        -0.1165
      8 H1          0.2604   -2.7963    4.0507 H         1 <0>         0.1118
      9 C7          1.5920   -2.4999    2.3484 C.3       1 <0>        -0.0063
     10 C8          1.4272   -4.5998    3.7508 C.3       1 <0>         0.1342
     11 N2          0.5297   -5.4073    4.5806 N.am      1 <0>        -0.7555
     12 C9          0.9796   -6.5411    5.1537 C.2       1 <0>         0.5705
     13 O1          2.1306   -6.8939    4.9819 O.2       1 <0>        -0.4934
     14 C10         0.0762   -7.3538    5.9888 C.ar      1 <0>        -0.2218
     15 C11        -1.2485   -6.9549    6.1838 C.ar      1 <0>        -0.0594
     16 C12        -2.0905   -7.7227    6.9682 C.ar      1 <0>         0.0145
     17 C13        -1.6220   -8.8902    7.5631 C.ar      1 <0>        -0.0326
     18 C14        -0.3161   -9.2919    7.3764 C.ar      1 <0>        -0.2396
     19 C15         0.5407   -8.5348    6.5871 C.ar      1 <0>         0.3318
     20 N3          1.8560   -8.9434    6.3949 N.2       1 <0>        -1.0407
     21 S1          2.4015  -10.3378    7.1023 S.o2      1 <0>         2.5176
     22 O2          2.3220  -10.0908    8.4994 O.2       1 <0>        -1.0264
     23 O3          1.6324  -11.3725    6.5047 O.2       1 <0>        -1.0254
     24 C16         4.1362  -10.4730    6.5894 C.3       1 <0>        -0.6320
     25 N4         -3.4196   -7.3231    7.1649 N.am      1 <0>        -0.6630
     26 C17        -4.3938   -8.2490    7.2651 C.2       1 <0>         0.4987
     27 O4         -4.1113   -9.4286    7.2690 O.2       1 <0>        -0.5304
     28 C18        -5.8341   -7.8187    7.3722 C.3       1 <0>        -0.1692
     29 H2          1.0266    1.8577   -0.0414 H         1 <0>         0.0661
     30 H3         -0.5195    1.8343   -0.9231 H         1 <0>         0.0753
     31 H4         -0.5100    1.8369    0.8569 H         1 <0>         0.0661
     32 H5         -0.9961   -0.4282   -0.0272 H         1 <0>         0.0851
     33 H6          0.5404   -0.4074   -0.9255 H         1 <0>         0.0845
     34 H7          1.7837   -0.1699    1.2067 H         1 <0>         0.1286
     35 H8          0.2472   -0.1908    2.1050 H         1 <0>         0.1286
     36 H9         -1.2233   -1.7984    1.8667 H         1 <0>         0.1311
     37 H10        -1.0118   -2.7908    0.3917 H         1 <0>         0.1333
     38 H11        -1.3727   -4.0207    2.7728 H         1 <0>         0.1183
     39 H12        -0.1336   -4.6576    1.6400 H         1 <0>         0.1043
     40 H13         2.4292   -3.0929    1.9802 H         1 <0>         0.1368
     41 H14         1.9608   -1.6536    2.9279 H         1 <0>         0.1347
     42 H15         1.7808   -5.1972    2.9105 H         1 <0>         0.0693
     43 H16         2.2785   -4.2731    4.3481 H         1 <0>         0.0731
     44 H17        -0.3885   -5.1258    4.7176 H         1 <0>         0.3904
     45 H18        -1.6143   -6.0490    5.7234 H         1 <0>         0.1040
     46 H19        -2.2846   -9.4847    8.1746 H         1 <0>         0.1255
     47 H20         0.0404  -10.1991    7.8416 H         1 <0>         0.1134
     48 H21         4.6878   -9.6006    6.9399 H         1 <0>         0.1162
     49 H22         4.5727  -11.3751    7.0182 H         1 <0>         0.1030
     50 H23         4.1906  -10.5245    5.5020 H         1 <0>         0.1160
     51 H24        -3.6381   -6.3802    7.2288 H         1 <0>         0.3991
     52 H25        -6.2645   -7.7383    6.3740 H         1 <0>         0.0910
     53 H26        -6.3915   -8.5560    7.9499 H         1 <0>         0.0921
     54 H27        -5.8880   -6.8506    7.8702 H         1 <0>         0.0771
     55 H28         1.1765   -2.3527    0.3486 H         1 <0>         0.4257
@<TRIPOS>BOND
     1    1    2 1
     2    1   29 1
     3    1   30 1
     4    1   31 1
     5    2    3 1
     6    2   32 1
     7    2   33 1
     8    3    4 1
     9    3   34 1
    10    3   35 1
    11    4    9 1
    12    4    5 1
    13    4   55 1
    14    5    6 1
    15    5   36 1
    16    5   37 1
    17    6    7 1
    18    6   38 1
    19    6   39 1
    20    7    8 1
    21    7    9 1
    22    7   10 1
    23    9   40 1
    24    9   41 1
    25   10   11 1
    26   10   42 1
    27   10   43 1
    28   11   12 am
    29   11   44 1
    30   12   13 2
    31   12   14 1
    32   14   19 ar
    33   14   15 ar
    34   15   16 ar
    35   15   45 1
    36   16   17 ar
    37   16   25 1
    38   17   18 ar
    39   17   46 1
    40   18   19 ar
    41   18   47 1
    42   19   20 1
    43   20   21 1
    44   21   22 2
    45   21   23 2
    46   21   24 1
    47   24   48 1
    48   24   49 1
    49   24   50 1
    50   25   26 am
    51   25   51 1
    52   26   27 2
    53   26   28 1
    54   28   52 1
    55   28   53 1
    56   28   54 1
@<TRIPOS>MOLECULE
ZINC05989264
   47    49     0     0     0
SMALL
USER_CHARGES
1-allophanoylethyl 3-[1-phenyl-3-(2-thienyl)pyrazol-4-yl]prop-2-enoate
@<TRIPOS>ATOM
      1 C1         -3.6932    6.9145   -1.3845 C.3       1 <0>        -0.1692
      2 C2         -3.2586    6.6284    0.0543 C.3       1 <0>         0.0747
      3 H1         -4.0461    6.0780    0.5691 H         1 <0>         0.1173
      4 C3         -3.0048    7.9298    0.7705 C.2       1 <0>         0.5198
      5 O1         -1.8861    8.2062    1.1473 O.2       1 <0>        -0.4395
      6 N1         -4.0214    8.7864    0.9922 N.am      1 <0>        -0.6870
      7 C4         -3.7944    9.9503    1.6328 C.2       1 <0>         0.6981
      8 O2         -2.6729   10.2274    2.0105 O.2       1 <0>        -0.5303
      9 N2         -4.8110   10.8069    1.8545 N.am      1 <0>        -0.8551
     10 O3         -2.0610    5.8489    0.0441 O.3       1 <0>        -0.3230
     11 C5         -2.2036    4.5068    0.0375 C.2       1 <0>         0.5101
     12 O4         -3.3158    4.0130    0.0404 O.2       1 <0>        -0.5136
     13 C6         -1.0601    3.6741    0.0273 C.2       1 <0>        -0.2325
     14 C7         -1.2031    2.3282    0.0207 C.2       1 <0>         0.0682
     15 C8         -0.0179    1.4651    0.0101 C.2       1 <0>        -0.2208
     16 C9          1.3038    1.8717   -0.0003 C.2       1 <0>         0.1045
     17 N3          2.0742    0.7693   -0.0136 N.pl3     1 <0>        -0.3022
     18 N4          1.2660   -0.3709   -0.0120 N.2       1 <0>        -0.2620
     19 C10         0.0021   -0.0041    0.0020 C.2       1 <0>         0.1967
     20 C11        -1.1721   -0.8985    0.0092 C.2       1 <0>        -0.1072
     21 C12        -1.3371   -2.1119   -0.6061 C.2       1 <0>        -0.1103
     22 C13        -2.5362   -2.7724   -0.4555 C.2       1 <0>        -0.1623
     23 C14        -3.5152   -2.2041    0.2949 C.2       1 <0>        -0.1607
     24 S1         -2.7442   -0.6848    0.8279 S.3       1 <0>         0.0954
     25 C15         3.4745    0.7647   -0.0266 C.ar      1 <0>         0.1443
     26 C16         4.1743    1.9642   -0.0331 C.ar      1 <0>        -0.1355
     27 C17         5.5554    1.9562   -0.0401 C.ar      1 <0>        -0.0914
     28 C18         6.2413    0.7555   -0.0526 C.ar      1 <0>        -0.1210
     29 C19         5.5474   -0.4406   -0.0514 C.ar      1 <0>        -0.0953
     30 C20         4.1663   -0.4395   -0.0387 C.ar      1 <0>        -0.1126
     31 H2         -2.9058    7.4649   -1.8993 H         1 <0>         0.0766
     32 H3         -3.8768    5.9732   -1.9026 H         1 <0>         0.0824
     33 H4         -4.6067    7.5091   -1.3767 H         1 <0>         0.0811
     34 H5         -4.9165    8.5653    0.6908 H         1 <0>         0.4119
     35 H6         -5.7061   10.5858    1.5530 H         1 <0>         0.4009
     36 H7         -4.6476   11.6446    2.3155 H         1 <0>         0.4223
     37 H8         -0.0730    4.1123    0.0248 H         1 <0>         0.1390
     38 H9         -2.1902    1.8900    0.0232 H         1 <0>         0.1436
     39 H10         1.6550    2.8930    0.0015 H         1 <0>         0.1950
     40 H11        -0.5424   -2.5417   -1.1978 H         1 <0>         0.1391
     41 H12        -2.6961   -3.7300   -0.9285 H         1 <0>         0.1411
     42 H13        -4.5040   -2.5777    0.5164 H         1 <0>         0.1926
     43 H14         3.6392    2.9023   -0.0282 H         1 <0>         0.1330
     44 H15         6.1002    2.8887   -0.0407 H         1 <0>         0.1370
     45 H16         7.3212    0.7519   -0.0629 H         1 <0>         0.1321
     46 H17         6.0859   -1.3767   -0.0608 H         1 <0>         0.1352
     47 H18         3.6250   -1.3740   -0.0378 H         1 <0>         0.1396
@<TRIPOS>BOND
     1    1    2 1
     2    1   31 1
     3    1   32 1
     4    1   33 1
     5    2    3 1
     6    2    4 1
     7    2   10 1
     8    4    5 2
     9    4    6 am
    10    6    7 am
    11    6   34 1
    12    7    8 2
    13    7    9 am
    14    9   35 1
    15    9   36 1
    16   10   11 1
    17   11   12 2
    18   11   13 1
    19   13   14 2
    20   13   37 1
    21   14   15 1
    22   14   38 1
    23   15   19 1
    24   15   16 2
    25   16   17 1
    26   16   39 1
    27   17   18 1
    28   17   25 1
    29   18   19 2
    30   19   20 1
    31   20   24 1
    32   20   21 2
    33   21   22 1
    34   21   40 1
    35   22   23 2
    36   22   41 1
    37   23   24 1
    38   23   42 1
    39   25   30 ar
    40   25   26 ar
    41   26   27 ar
    42   26   43 1
    43   27   28 ar
    44   27   44 1
    45   28   29 ar
    46   28   45 1
    47   29   30 ar
    48   29   46 1
    49   30   47 1
@<TRIPOS>MOLECULE
ZINC12690058
   48    50     0     0     0
SMALL
USER_CHARGES
4-methyl-2-phenyl-N'-[2-(3-propyl-5-thioxo-1H-1,2,4-triazol-4-yl)acetyl]-thiazole-5-carbohydrazide
@<TRIPOS>ATOM
      1 C1          5.9730    5.8671    4.4587 C.3       1 <0>        -0.1517
      2 C2          6.4432    5.9373    3.0045 C.3       1 <0>        -0.1227
      3 C3          6.3912    7.3880    2.5212 C.3       1 <0>        -0.0480
      4 C4          6.8543    7.4572    1.0888 C.2       1 <0>         0.2904
      5 N1          8.0761    7.6335    0.7000 N.2       1 <0>        -0.2685
      6 N2          8.0907    7.6446   -0.7016 N.pl3     1 <0>        -0.4707
      7 H1          8.8695    7.7628   -1.2676 H         1 <0>         0.4709
      8 C5          6.8201    7.4608   -1.1174 C.2       1 <0>         0.4801
      9 S1          6.2854    7.3918   -2.7423 S.2       1 <0>        -0.5611
     10 N3          6.0495    7.3407   -0.0177 N.pl3     1 <0>        -0.4815
     11 C6          4.6001    7.1283   -0.0054 C.3       1 <0>         0.1068
     12 C7          4.3089    5.6497   -0.0098 C.2       1 <0>         0.5051
     13 O1          5.2222    4.8519   -0.0221 O.2       1 <0>        -0.5138
     14 N4          3.0335    5.2140   -0.0001 N.am      1 <0>        -0.5084
     15 N5          2.7629    3.8394   -0.0043 N.am      1 <0>        -0.5160
     16 C8          1.4875    3.4037    0.0054 C.2       1 <0>         0.6221
     17 O2          0.5710    4.2043    0.0178 O.2       1 <0>        -0.5144
     18 C9          1.2043    1.9654    0.0011 C.2       1 <0>        -0.2872
     19 C10        -0.0156    1.3010    0.0092 C.2       1 <0>         0.1761
     20 N6          0.0021   -0.0041    0.0020 N.2       1 <0>        -0.5136
     21 C11         1.1407   -0.6833   -0.0125 C.2       1 <0>         0.1626
     22 S2          2.3326    0.5795   -0.0171 S.3       1 <0>         0.1143
     23 C12         1.3442   -2.1471   -0.0219 C.ar      1 <0>        -0.0356
     24 C13         0.2453   -3.0078   -0.0098 C.ar      1 <0>        -0.0606
     25 C14         0.4422   -4.3731   -0.0240 C.ar      1 <0>        -0.1217
     26 C15         1.7256   -4.8899   -0.0391 C.ar      1 <0>        -0.0903
     27 C16         2.8193   -4.0425   -0.0459 C.ar      1 <0>        -0.1185
     28 C17         2.6363   -2.6751   -0.0371 C.ar      1 <0>        -0.0867
     29 C18        -1.3164    2.0619    0.0196 C.3       1 <0>        -0.0954
     30 H2          6.6240    6.4809    5.0811 H         1 <0>         0.0615
     31 H3          4.9499    6.2366    4.5280 H         1 <0>         0.0579
     32 H4          6.0101    4.8335    4.8030 H         1 <0>         0.0627
     33 H5          5.7922    5.3234    2.3820 H         1 <0>         0.0703
     34 H6          7.4663    5.5677    2.9351 H         1 <0>         0.0746
     35 H7          7.0422    8.0019    3.1436 H         1 <0>         0.1146
     36 H8          5.3681    7.7576    2.5905 H         1 <0>         0.0988
     37 H9          4.1579    7.5884   -0.8891 H         1 <0>         0.1545
     38 H10         4.1744    7.5798    0.8908 H         1 <0>         0.1420
     39 H11         2.3031    5.8521    0.0097 H         1 <0>         0.4378
     40 H12         3.4934    3.2013   -0.0141 H         1 <0>         0.4324
     41 H13        -0.7569   -2.6057    0.0069 H         1 <0>         0.1386
     42 H14        -0.4072   -5.0401   -0.0192 H         1 <0>         0.1343
     43 H15         1.8744   -5.9596   -0.0460 H         1 <0>         0.1317
     44 H16         3.8184   -4.4523   -0.0577 H         1 <0>         0.1345
     45 H17         3.4908   -2.0147   -0.0424 H         1 <0>         0.1282
     46 H18        -1.6249    2.2401    1.0497 H         1 <0>         0.0858
     47 H19        -1.1832    3.0162   -0.4901 H         1 <0>         0.0979
     48 H20        -2.0820    1.4798   -0.4934 H         1 <0>         0.0799
@<TRIPOS>BOND
     1    1    2 1
     2    1   30 1
     3    1   31 1
     4    1   32 1
     5    2    3 1
     6    2   33 1
     7    2   34 1
     8    3    4 1
     9    3   35 1
    10    3   36 1
    11    4   10 1
    12    4    5 2
    13    5    6 1
    14    6    7 1
    15    6    8 1
    16    8    9 2
    17    8   10 1
    18   10   11 1
    19   11   12 1
    20   11   37 1
    21   11   38 1
    22   12   13 2
    23   12   14 am
    24   14   15 1
    25   14   39 1
    26   15   16 am
    27   15   40 1
    28   16   17 2
    29   16   18 1
    30   18   22 1
    31   18   19 2
    32   19   20 1
    33   19   29 1
    34   20   21 2
    35   21   22 1
    36   21   23 1
    37   23   28 ar
    38   23   24 ar
    39   24   25 ar
    40   24   41 1
    41   25   26 ar
    42   25   42 1
    43   26   27 ar
    44   26   43 1
    45   27   28 ar
    46   27   44 1
    47   28   45 1
    48   29   46 1
    49   29   47 1
    50   29   48 1
@<TRIPOS>MOLECULE
ZINC21416802
   49    52     0     0     0
SMALL
USER_CHARGES
[2-[(3-carbamoyl-5,6-dihydro-4H-cyclopenta[d]thiophen-2-yl)amino]-2-oxo-ethyl] 3,4-dihydro-2H-1,5-benzodioxepine-7-carboxylate
@<TRIPOS>ATOM
      1 C1         -1.3216    3.3278    0.0322 C.ar      1 <0>        -0.0464
      2 C2         -2.5248    4.0013    0.0370 C.ar      1 <0>        -0.1300
      3 C3         -3.7160    3.2898    0.0384 C.ar      1 <0>         0.1093
      4 C4         -3.7031    1.8990    0.0300 C.ar      1 <0>         0.0529
      5 C5         -2.5042    1.2159    0.0205 C.ar      1 <0>        -0.0479
      6 C6         -1.3014    1.9308    0.0187 C.ar      1 <0>        -0.1241
      7 C7         -0.0144    1.2109    0.0087 C.2       1 <0>         0.5185
      8 O1          0.0021   -0.0041    0.0020 O.2       1 <0>        -0.4973
      9 O2          1.1433    1.9004    0.0013 O.3       1 <0>        -0.3264
     10 C8          2.3716    1.1263   -0.0145 C.3       1 <0>         0.0549
     11 C9          3.5541    2.0604   -0.0208 C.2       1 <0>         0.5138
     12 O3          3.3789    3.2605   -0.0127 O.2       1 <0>        -0.4782
     13 N1          4.8063    1.5623   -0.0354 N.am      1 <0>        -0.6292
     14 C10         5.8944    2.4219   -0.0412 C.2       1 <0>         0.0733
     15 C11         7.2417    2.1041   -0.0502 C.2       1 <0>        -0.2110
     16 C12         8.1983    3.2103   -0.0588 C.2       1 <0>        -0.0963
     17 C13         7.6507    4.4389   -0.0473 C.2       1 <0>        -0.2352
     18 S1          5.8979    4.1525   -0.0314 S.3       1 <0>         0.2580
     19 C14         8.6953    5.5221   -0.0543 C.3       1 <0>        -0.0367
     20 C15         9.9894    4.8117   -0.5088 C.3       1 <0>        -0.1125
     21 C16         9.7204    3.3583   -0.0709 C.3       1 <0>        -0.0564
     22 C17         7.6933    0.7092   -0.0549 C.2       1 <0>         0.5830
     23 O4          7.8744    0.1317   -1.1109 O.2       1 <0>        -0.5424
     24 N2          7.9077    0.0663    1.1101 N.am      1 <0>        -0.8704
     25 O5         -4.8837    1.2140    0.0301 O.3       1 <0>        -0.3128
     26 C18        -5.6583    1.3043    1.2275 C.3       1 <0>         0.0563
     27 C19        -6.5154    2.5604    1.2221 C.3       1 <0>        -0.1910
     28 C20        -5.6802    3.8309    1.2438 C.3       1 <0>         0.0570
     29 O6         -4.9081    3.9509    0.0477 O.3       1 <0>        -0.3191
     30 H1         -0.3939    3.8807    0.0354 H         1 <0>         0.1527
     31 H2         -2.5399    5.0811    0.0441 H         1 <0>         0.1480
     32 H3         -2.4943    0.1359    0.0149 H         1 <0>         0.1520
     33 H4          2.4138    0.4874    0.8799 H         1 <0>         0.1145
     34 H5          2.3968    0.4969   -0.9163 H         1 <0>         0.1154
     35 H6          4.9652    0.4739   -0.0427 H         1 <0>         0.4487
     36 H7          8.3960    6.3155   -0.7549 H         1 <0>         0.0791
     37 H8          8.7931    5.9437    0.9570 H         1 <0>         0.0846
     38 H9         10.1051    4.9216   -1.5972 H         1 <0>         0.0782
     39 H10        10.8538    5.2640   -0.0007 H         1 <0>         0.0850
     40 H11        10.1158    3.1626    0.9367 H         1 <0>         0.0808
     41 H12        10.1532    2.6382   -0.7809 H         1 <0>         0.0740
     42 H13         8.2465   -0.9802    1.1065 H         1 <0>         0.4232
     43 H14         7.7439    0.5881    2.0645 H         1 <0>         0.4221
     44 H15        -6.3162    0.4262    1.3057 H         1 <0>         0.1108
     45 H16        -4.9860    1.3373    2.0975 H         1 <0>         0.0607
     46 H17        -7.1360    2.5769    0.3140 H         1 <0>         0.0882
     47 H18        -7.1647    2.5651    2.1100 H         1 <0>         0.0962
     48 H19        -6.3436    4.7044    1.3267 H         1 <0>         0.1112
     49 H20        -4.9972    3.8061    2.1057 H         1 <0>         0.0608
@<TRIPOS>BOND
     1    1    6 ar
     2    1    2 ar
     3    1   30 1
     4    2    3 ar
     5    2   31 1
     6    3   29 1
     7    3    4 ar
     8    4    5 ar
     9    4   25 1
    10    5    6 ar
    11    5   32 1
    12    6    7 1
    13    7    8 2
    14    7    9 1
    15    9   10 1
    16   10   11 1
    17   10   33 1
    18   10   34 1
    19   11   12 2
    20   11   13 am
    21   13   14 1
    22   13   35 1
    23   14   18 1
    24   14   15 2
    25   15   16 1
    26   15   22 1
    27   16   21 1
    28   16   17 2
    29   17   18 1
    30   17   19 1
    31   19   20 1
    32   19   36 1
    33   19   37 1
    34   20   21 1
    35   20   38 1
    36   20   39 1
    37   21   40 1
    38   21   41 1
    39   22   23 2
    40   22   24 am
    41   24   42 1
    42   24   43 1
    43   25   26 1
    44   26   27 1
    45   26   44 1
    46   26   45 1
    47   27   28 1
    48   27   46 1
    49   27   47 1
    50   28   29 1
    51   28   48 1
    52   28   49 1
@<TRIPOS>MOLECULE
ZINC16044019
   59    62     0     0     0
SMALL
USER_CHARGES

@<TRIPOS>ATOM
      1 C1          0.0726    1.5452    0.0731 C.3       1 <0>        -0.1689
      2 C2          0.0904    0.0156    0.1025 C.3       1 <0>         0.0982
      3 N1          0.6469   -0.4905   -1.1547 N.am      1 <0>        -0.5324
      4 C3          2.0438   -0.6185   -1.3068 C.2       1 <0>        -0.1362
      5 C4          2.7522   -1.5263   -0.5465 C.2       1 <0>         0.4823
      6 N2          4.1133   -1.6281   -0.7175 N.am      1 <0>        -0.5340
      7 C5          4.7465   -0.8514   -1.6151 C.2       1 <0>         0.7136
      8 O1          5.9504   -0.9563   -1.7511 O.2       1 <0>        -0.5329
      9 N3          4.0726    0.0384   -2.3651 N.am      1 <0>        -0.6592
     10 H1          4.5523    0.5865   -3.0056 H         1 <0>         0.4328
     11 C6          2.7377    0.1734   -2.2408 C.2       1 <0>         0.5669
     12 O2          2.1356    0.9800   -2.9292 O.2       1 <0>        -0.5079
     13 C7          4.8780   -2.5877    0.0830 C.3       1 <0>         0.1490
     14 C8          4.9407   -3.9082   -0.6404 C.ar      1 <0>        -0.1284
     15 C9          3.9592   -4.8586   -0.4304 C.ar      1 <0>        -0.1028
     16 C10         4.0167   -6.0699   -1.0940 C.ar      1 <0>        -0.1203
     17 C11         5.0554   -6.3306   -1.9680 C.ar      1 <0>        -0.1038
     18 C12         6.0364   -5.3798   -2.1788 C.ar      1 <0>        -0.1194
     19 C13         5.9766   -4.1668   -1.5184 C.ar      1 <0>        -0.0856
     20 N4          2.1056   -2.3192    0.3712 N.pl3     1 <0>        -0.8340
     21 C14        -0.1763   -0.8342   -2.1671 C.2       1 <0>         0.5205
     22 O3          0.2764   -1.3440   -3.1707 O.2       1 <0>        -0.4934
     23 C15        -1.6580   -0.5848   -2.0512 C.3       1 <0>         0.0411
     24 N5         -2.3290   -1.0434   -3.2749 N.3       1 <0>        -0.5143
     25 C16        -3.7395   -0.6243   -3.2916 C.3       1 <0>         0.0530
     26 C17        -4.2803   -0.7965   -4.7113 C.3       1 <0>        -0.0758
     27 C18        -3.9625   -2.1797   -5.2185 C.ar      1 <0>        -0.0707
     28 C19        -4.6593   -2.6572   -6.3183 C.ar      1 <0>        -0.1206
     29 C20        -4.3967   -3.9172   -6.8170 C.ar      1 <0>        -0.1210
     30 C21        -3.4331   -4.7070   -6.2175 C.ar      1 <0>        -0.1222
     31 C22        -2.7399   -4.2332   -5.1222 C.ar      1 <0>        -0.1148
     32 C23        -3.0047   -2.9682   -4.6179 C.ar      1 <0>        -0.0727
     33 C24        -2.2302   -2.4997   -3.4140 C.3       1 <0>         0.0890
     34 H2          1.0894    1.9181   -0.0502 H         1 <0>         0.0611
     35 H3         -0.5427    1.8855   -0.7597 H         1 <0>         0.0622
     36 H4         -0.3415    1.9217    1.0085 H         1 <0>         0.0677
     37 H5          0.7057   -0.3247    0.9353 H         1 <0>         0.0750
     38 H6         -0.9264   -0.3573    0.2258 H         1 <0>         0.0859
     39 H7          5.8886   -2.2091    0.2364 H         1 <0>         0.1219
     40 H8          4.3910   -2.7251    1.0484 H         1 <0>         0.0999
     41 H9          3.1476   -4.6550    0.2525 H         1 <0>         0.1153
     42 H10         3.2502   -6.8128   -0.9293 H         1 <0>         0.1258
     43 H11         5.1007   -7.2772   -2.4859 H         1 <0>         0.1260
     44 H12         6.8482   -5.5835   -2.8614 H         1 <0>         0.1274
     45 H13         6.7411   -3.4225   -1.6859 H         1 <0>         0.1335
     46 H14         1.1574   -2.1970    0.5349 H         1 <0>         0.4230
     47 H15         2.5975   -3.0009    0.8551 H         1 <0>         0.4055
     48 H16        -2.0524   -1.1308   -1.1941 H         1 <0>         0.0634
     49 H17        -1.8375    0.4818   -1.9163 H         1 <0>         0.1097
     50 H18        -4.3139   -1.2442   -2.6033 H         1 <0>         0.0414
     51 H19        -3.8141    0.4221   -2.9958 H         1 <0>         0.0830
     52 H20        -5.3607   -0.6520   -4.7071 H         1 <0>         0.0802
     53 H21        -3.8202   -0.0564   -5.3661 H         1 <0>         0.0861
     54 H22        -5.4117   -2.0401   -6.7868 H         1 <0>         0.1211
     55 H23        -4.9427   -4.2853   -7.6731 H         1 <0>         0.1213
     56 H24        -3.2235   -5.6929   -6.6054 H         1 <0>         0.1214
     57 H25        -1.9873   -4.8509   -4.6548 H         1 <0>         0.1194
     58 H26        -1.1831   -2.7800   -3.5285 H         1 <0>         0.1071
     59 H27        -2.6334   -2.9748   -2.5197 H         1 <0>         0.0408
@<TRIPOS>BOND
     1    1    2 1
     2    1   34 1
     3    1   35 1
     4    1   36 1
     5    2    3 1
     6    2   37 1
     7    2   38 1
     8    3    4 1
     9    3   21 am
    10    4   11 1
    11    4    5 2
    12    5    6 1
    13    5   20 1
    14    6    7 am
    15    6   13 1
    16    7    8 2
    17    7    9 am
    18    9   10 1
    19    9   11 am
    20   11   12 2
    21   13   14 1
    22   13   39 1
    23   13   40 1
    24   14   19 ar
    25   14   15 ar
    26   15   16 ar
    27   15   41 1
    28   16   17 ar
    29   16   42 1
    30   17   18 ar
    31   17   43 1
    32   18   19 ar
    33   18   44 1
    34   19   45 1
    35   20   46 1
    36   20   47 1
    37   21   22 2
    38   21   23 1
    39   23   24 1
    40   23   48 1
    41   23   49 1
    42   24   33 1
    43   24   25 1
    44   25   26 1
    45   25   50 1
    46   25   51 1
    47   26   27 1
    48   26   52 1
    49   26   53 1
    50   27   32 ar
    51   27   28 ar
    52   28   29 ar
    53   28   54 1
    54   29   30 ar
    55   29   55 1
    56   30   31 ar
    57   30   56 1
    58   31   32 ar
    59   31   57 1
    60   32   33 1
    61   33   58 1
    62   33   59 1
@<TRIPOS>MOLECULE
ZINC20548401
   56    59     0     0     0
SMALL
USER_CHARGES

@<TRIPOS>ATOM
      1 C1         -0.0187    1.5258    0.0104 C.3       1 <0>        -0.1519
      2 C2          0.0021   -0.0041    0.0020 C.3       1 <0>        -0.1194
      3 C3         -1.4333   -0.5336    0.0129 C.3       1 <0>        -0.1358
      4 C4         -1.4126   -2.0635    0.0045 C.3       1 <0>         0.0991
      5 N1         -2.7870   -2.5706    0.0149 N.am      1 <0>        -0.5698
      6 C5         -3.4569   -2.8217    1.1454 C.2       1 <0>         0.5297
      7 O1         -3.0231   -2.6639    2.2663 O.2       1 <0>        -0.4598
      8 C6         -4.8396   -3.3321    0.8076 C.3       1 <0>        -0.1204
      9 H1         -5.6316   -2.7215    1.2413 H         1 <0>         0.1494
     10 C7         -4.9436   -4.8181    1.2128 C.3       1 <0>         0.0879
     11 H2         -3.9515   -5.2329    1.3911 H         1 <0>         0.0593
     12 N2         -5.5824   -5.4866    0.0482 N.3       1 <0>        -0.6105
     13 C8         -4.9824   -4.8222   -1.1238 C.3       1 <0>         0.1238
     14 C9         -4.8534   -3.3258   -0.7465 C.3       1 <0>        -0.1053
     15 H3         -5.6536   -2.7107   -1.1580 H         1 <0>         0.1460
     16 C10        -3.4766   -2.8150   -1.1056 C.2       1 <0>         0.5428
     17 O2         -3.0611   -2.6544   -2.2330 O.2       1 <0>        -0.4678
     18 C11        -3.6542   -5.4270   -1.4803 C.ar      1 <0>        -0.1803
     19 C12        -2.4675   -5.5791   -0.7986 C.ar      1 <0>        -0.0623
     20 C13        -1.3913   -6.1970   -1.4105 C.ar      1 <0>        -0.1346
     21 C14        -1.5104   -6.6606   -2.7080 C.ar      1 <0>        -0.0721
     22 C15        -2.6969   -6.5104   -3.3950 C.ar      1 <0>        -0.1016
     23 C16        -3.7853   -5.8897   -2.7863 C.ar      1 <0>         0.1742
     24 N3         -5.0698   -5.6248   -3.2660 N.am      1 <0>        -0.6592
     25 C17        -5.8353   -5.0001   -2.3506 C.2       1 <0>         0.5565
     26 O3         -6.9880   -4.6489   -2.4885 O.2       1 <0>        -0.4682
     27 C18        -2.8160   -7.0188   -4.8086 C.3       1 <0>        -0.0833
     28 C19        -2.5274   -5.8783   -5.7868 C.3       1 <0>        -0.1481
     29 C20        -5.8153   -4.9699    2.4610 C.3       1 <0>        -0.0781
     30 C21        -5.8034   -6.4304    2.9168 C.3       1 <0>        -0.1815
     31 C22        -6.6620   -6.5799    4.1462 C.2       1 <0>         0.4910
     32 O4         -7.2307   -5.6084    4.6144 O.co2     1 <0>        -0.6968
     33 O5         -6.7879   -7.6724    4.6726 O.co2     1 <0>        -0.7082
     34 H4          1.0039    1.9031    0.0027 H         1 <0>         0.0555
     35 H5         -0.5459    1.8868   -0.8726 H         1 <0>         0.0537
     36 H6         -0.5289    1.8773    0.9072 H         1 <0>         0.0552
     37 H7          0.5123   -0.3556   -0.8948 H         1 <0>         0.0643
     38 H8          0.5293   -0.3651    0.8851 H         1 <0>         0.0660
     39 H9         -1.9435   -0.1821    0.9097 H         1 <0>         0.0704
     40 H10        -1.9605   -0.1726   -0.8702 H         1 <0>         0.0679
     41 H11        -0.9024   -2.4150   -0.8923 H         1 <0>         0.0933
     42 H12        -0.8854   -2.4246    0.8875 H         1 <0>         0.0947
     43 H13        -5.3828   -6.4756    0.0448 H         1 <0>         0.3565
     44 H14        -2.3768   -5.2160    0.2145 H         1 <0>         0.1195
     45 H15        -0.4603   -6.3166   -0.8762 H         1 <0>         0.1310
     46 H16        -0.6703   -7.1430   -3.1855 H         1 <0>         0.1317
     47 H17        -5.3752   -5.8626   -4.1555 H         1 <0>         0.4145
     48 H18        -2.0982   -7.8236   -4.9669 H         1 <0>         0.0775
     49 H19        -3.8256   -7.3942   -4.9758 H         1 <0>         0.0678
     50 H20        -2.6136   -6.2460   -6.8093 H         1 <0>         0.0587
     51 H21        -3.2453   -5.0734   -5.6284 H         1 <0>         0.0546
     52 H22        -1.5179   -5.5029   -5.6195 H         1 <0>         0.0584
     53 H23        -5.4228   -4.3375    3.2573 H         1 <0>         0.0751
     54 H24        -6.8372   -4.6700    2.2291 H         1 <0>         0.0790
     55 H25        -6.1958   -7.0627    2.1204 H         1 <0>         0.0585
     56 H26        -4.7814   -6.7303    3.1486 H         1 <0>         0.0516
@<TRIPOS>BOND
     1    1    2 1
     2    1   34 1
     3    1   35 1
     4    1   36 1
     5    2    3 1
     6    2   37 1
     7    2   38 1
     8    3    4 1
     9    3   39 1
    10    3   40 1
    11    4    5 1
    12    4   41 1
    13    4   42 1
    14    5   16 am
    15    5    6 am
    16    6    7 2
    17    6    8 1
    18    8    9 1
    19    8   14 1
    20    8   10 1
    21   10   11 1
    22   10   12 1
    23   10   29 1
    24   12   13 1
    25   12   43 1
    26   13   25 1
    27   13   14 1
    28   13   18 1
    29   14   15 1
    30   14   16 1
    31   16   17 2
    32   18   23 ar
    33   18   19 ar
    34   19   20 ar
    35   19   44 1
    36   20   21 ar
    37   20   45 1
    38   21   22 ar
    39   21   46 1
    40   22   23 ar
    41   22   27 1
    42   23   24 1
    43   24   25 am
    44   24   47 1
    45   25   26 2
    46   27   28 1
    47   27   48 1
    48   27   49 1
    49   28   50 1
    50   28   51 1
    51   28   52 1
    52   29   30 1
    53   29   53 1
    54   29   54 1
    55   30   31 1
    56   30   55 1
    57   30   56 1
    58   31   32 2
    59   31   33 1
@<TRIPOS>MOLECULE
ZINC09384601
   48    50     0     0     0
SMALL
USER_CHARGES
N-(5,6-dimethoxy-3-methyl-benzothiazol-2-ylidene)-4-ethylsulfonyl-benzamide
@<TRIPOS>ATOM
      1 C1          3.3487   13.1615   -3.8390 C.3       1 <0>        -0.1511
      2 C2          3.2977   11.9728   -2.8770 C.3       1 <0>        -0.6055
      3 S1          2.1509   10.7232   -3.5203 S.o2      1 <0>         2.4919
      4 O1          2.6743   10.1433   -4.7073 O.2       1 <0>        -0.9314
      5 O2          0.8184   11.2153   -3.4811 O.2       1 <0>        -0.9316
      6 C3          2.1850    9.4228   -2.3318 C.ar      1 <0>        -0.6364
      7 C4          1.2966    9.4352   -1.2713 C.ar      1 <0>        -0.0346
      8 C5          1.3184    8.4198   -0.3374 C.ar      1 <0>        -0.0842
      9 C6          2.2389    7.3795   -0.4639 C.ar      1 <0>        -0.0949
     10 C7          3.1362    7.3759   -1.5318 C.ar      1 <0>        -0.0848
     11 C8          3.1004    8.3937   -2.4627 C.ar      1 <0>        -0.0357
     12 C9          2.2676    6.2863    0.5352 C.2       1 <0>         0.5420
     13 O3          1.4857    6.2946    1.4702 O.2       1 <0>        -0.4949
     14 N1          3.1507    5.2909    0.4114 N.2       1 <0>        -0.5820
     15 C10         2.7277    4.0515    0.1844 C.2       1 <0>         0.4111
     16 N2          1.4632    3.6274   -0.0813 N.pl3     1 <0>        -0.5373
     17 C11         1.2128    2.2826   -0.2921 C.ar      1 <0>         0.1348
     18 C12        -0.0139    1.6611   -0.5766 C.ar      1 <0>        -0.1791
     19 C13        -0.0878    0.2978   -0.7605 C.ar      1 <0>         0.1510
     20 C14         1.0494   -0.5027   -0.6698 C.ar      1 <0>         0.1073
     21 C15         2.2709    0.0907   -0.3896 C.ar      1 <0>        -0.0936
     22 C16         2.3391    1.4523   -0.2069 C.ar      1 <0>        -0.1650
     23 S2          3.6553    2.5867    0.1572 S.3       1 <0>         0.1775
     24 O4          0.9621   -1.8479   -0.8531 O.3       1 <0>        -0.2950
     25 C17         2.1738   -2.5975   -0.7435 C.3       1 <0>         0.0207
     26 O5         -1.2902   -0.2763   -1.0355 O.3       1 <0>        -0.2948
     27 C18        -2.4210    0.5936   -1.1168 C.3       1 <0>         0.0202
     28 C19         0.3649    4.5949   -0.1440 C.3       1 <0>         0.0529
     29 H1          2.3534   13.5958   -3.9329 H         1 <0>         0.0753
     30 H2          4.0378   13.9124   -3.4524 H         1 <0>         0.0870
     31 H3          3.6912   12.8231   -4.8168 H         1 <0>         0.0754
     32 H4          2.9551   12.3112   -1.8991 H         1 <0>         0.1368
     33 H5          4.2930   11.5385   -2.7830 H         1 <0>         0.1370
     34 H6          0.5843   10.2412   -1.1745 H         1 <0>         0.1512
     35 H7          0.6244    8.4306    0.4900 H         1 <0>         0.1464
     36 H8          3.8542    6.5754   -1.6325 H         1 <0>         0.1456
     37 H9          3.7917    8.3897   -3.2924 H         1 <0>         0.1506
     38 H10        -0.9094    2.2595   -0.6567 H         1 <0>         0.1460
     39 H11         3.1636   -0.5127   -0.3156 H         1 <0>         0.1555
     40 H12         2.5945   -2.4645    0.2532 H         1 <0>         0.0596
     41 H13         1.9639   -3.6539   -0.9113 H         1 <0>         0.1067
     42 H14         2.8872   -2.2460   -1.4889 H         1 <0>         0.0596
     43 H15        -2.2591    1.3270   -1.9068 H         1 <0>         0.0585
     44 H16        -3.3135    0.0093   -1.3408 H         1 <0>         0.1084
     45 H17        -2.5529    1.1080   -0.1650 H         1 <0>         0.0590
     46 H18        -0.0010    4.7950    0.8630 H         1 <0>         0.0938
     47 H19         0.7226    5.5222   -0.5916 H         1 <0>         0.0799
     48 H20        -0.4442    4.1873   -0.7502 H         1 <0>         0.0901
@<TRIPOS>BOND
     1    1    2 1
     2    1   29 1
     3    1   30 1
     4    1   31 1
     5    2    3 1
     6    2   32 1
     7    2   33 1
     8    3    4 2
     9    3    5 2
    10    3    6 1
    11    6   11 ar
    12    6    7 ar
    13    7    8 ar
    14    7   34 1
    15    8    9 ar
    16    8   35 1
    17    9   10 ar
    18    9   12 1
    19   10   11 ar
    20   10   36 1
    21   11   37 1
    22   12   13 2
    23   12   14 1
    24   14   15 2
    25   15   23 1
    26   15   16 1
    27   16   17 1
    28   16   28 1
    29   17   22 ar
    30   17   18 ar
    31   18   19 ar
    32   18   38 1
    33   19   20 ar
    34   19   26 1
    35   20   21 ar
    36   20   24 1
    37   21   22 ar
    38   21   39 1
    39   22   23 1
    40   24   25 1
    41   25   40 1
    42   25   41 1
    43   25   42 1
    44   26   27 1
    45   27   43 1
    46   27   44 1
    47   27   45 1
    48   28   46 1
    49   28   47 1
    50   28   48 1
@<TRIPOS>MOLECULE
ZINC23141442
   49    53     0     0     0
SMALL
USER_CHARGES
1-(3,4-dihydro-2H-quinolin-1-yl)-2-[[4-methyl-5-(6-methylimidazo[2,3-b]thiazol-5-yl)-1,2,4-triazol-3-yl]sulfanyl]ethanone
@<TRIPOS>ATOM
      1 C1          0.3994   -4.4306    1.6055 C.3       1 <0>        -0.0859
      2 C2         -0.9658   -4.1744    1.0209 C.2       1 <0>         0.1249
      3 C3         -1.3649   -3.0321    0.3963 C.2       1 <0>         0.0266
      4 N1         -2.7012   -3.2115    0.0150 N.pl3     1 <0>        -0.4262
      5 C4         -3.6878   -2.5056   -0.6358 C.2       1 <0>        -0.0205
      6 C5         -4.8938   -3.0383   -0.8289 C.2       1 <0>        -0.1653
      7 S1         -4.7093   -4.6490   -0.0795 S.3       1 <0>         0.1552
      8 C6         -3.0166   -4.4762    0.4362 C.2       1 <0>         0.1962
      9 N2         -1.9931   -5.0285    1.0270 N.2       1 <0>        -0.4379
     10 C7         -0.5473   -1.8310    0.1697 C.2       1 <0>         0.2668
     11 N3          0.7658   -1.7781    0.1078 N.2       1 <0>        -0.2513
     12 N4          1.1469   -0.5691   -0.1018 N.2       1 <0>        -0.2834
     13 C8          0.1062    0.2258   -0.1871 C.2       1 <0>         0.1469
     14 N5         -1.0105   -0.5465   -0.0116 N.pl3     1 <0>        -0.4641
     15 C9         -2.4059   -0.1006   -0.0186 C.3       1 <0>         0.0404
     16 S2          0.1401    1.9649   -0.4678 S.3       1 <0>         0.0899
     17 C10         1.9269    2.2298   -0.5838 C.3       1 <0>        -0.1499
     18 C11         2.2032    3.6907   -0.8297 C.2       1 <0>         0.5366
     19 O1          1.2828    4.4608   -1.0054 O.2       1 <0>        -0.5020
     20 N6          3.4731    4.1414   -0.8545 N.am      1 <0>        -0.5432
     21 C12         4.6001    3.2075   -0.7252 C.3       1 <0>         0.0917
     22 C13         5.6047    3.8192    0.2600 C.3       1 <0>        -0.1354
     23 C14         6.1423    5.1234   -0.3284 C.3       1 <0>        -0.0810
     24 C15         5.0077    6.0157   -0.7577 C.ar      1 <0>        -0.1121
     25 C16         3.7413    5.5085   -1.0097 C.ar      1 <0>         0.1480
     26 C17         2.7179    6.3572   -1.4151 C.ar      1 <0>        -0.1557
     27 C18         2.9607    7.7076   -1.5701 C.ar      1 <0>        -0.1040
     28 C19         4.2230    8.2141   -1.3218 C.ar      1 <0>        -0.1356
     29 C20         5.2424    7.3720   -0.9087 C.ar      1 <0>        -0.1018
     30 H1          1.0362   -3.5471    1.4509 H         1 <0>         0.0966
     31 H2          0.8533   -5.3011    1.1093 H         1 <0>         0.0868
     32 H3          0.3052   -4.6306    2.6831 H         1 <0>         0.0815
     33 H4         -3.4834   -1.5058   -0.9895 H         1 <0>         0.1970
     34 H5         -5.7581   -2.6081   -1.3131 H         1 <0>         0.2227
     35 H6         -2.4429    0.9857   -0.1880 H         1 <0>         0.1084
     36 H7         -2.8711   -0.3367    0.9498 H         1 <0>         0.0960
     37 H8         -2.9514   -0.6159   -0.8229 H         1 <0>         0.1087
     38 H9          2.4054    1.9194    0.3568 H         1 <0>         0.1340
     39 H10         2.3326    1.6349   -1.4153 H         1 <0>         0.1356
     40 H11         4.2343    2.2415   -0.3470 H         1 <0>         0.0992
     41 H12         5.0703    3.0618   -1.7089 H         1 <0>         0.0855
     42 H13         5.1023    4.0220    1.2173 H         1 <0>         0.0754
     43 H14         6.4337    3.1148    0.4230 H         1 <0>         0.0916
     44 H15         6.7421    5.6480    0.4299 H         1 <0>         0.0838
     45 H16         6.7712    4.8995   -1.2027 H         1 <0>         0.0810
     46 H17         1.7323    5.9603   -1.6085 H         1 <0>         0.1746
     47 H18         2.1655    8.3674   -1.8845 H         1 <0>         0.1254
     48 H19         4.4128    9.2705   -1.4417 H         1 <0>         0.1225
     49 H20         6.2269    7.7719   -0.7161 H         1 <0>         0.1259
@<TRIPOS>BOND
     1    1    2 1
     2    1   30 1
     3    1   31 1
     4    1   32 1
     5    2    9 1
     6    2    3 2
     7    3    4 1
     8    3   10 1
     9    4    8 1
    10    4    5 1
    11    5    6 2
    12    5   33 1
    13    6    7 1
    14    6   34 1
    15    7    8 1
    16    8    9 2
    17   10   14 1
    18   10   11 2
    19   11   12 1
    20   12   13 2
    21   13   14 1
    22   13   16 1
    23   14   15 1
    24   15   35 1
    25   15   36 1
    26   15   37 1
    27   16   17 1
    28   17   18 1
    29   17   38 1
    30   17   39 1
    31   18   19 2
    32   18   20 am
    33   20   25 1
    34   20   21 1
    35   21   22 1
    36   21   40 1
    37   21   41 1
    38   22   23 1
    39   22   42 1
    40   22   43 1
    41   23   24 1
    42   23   44 1
    43   23   45 1
    44   24   29 ar
    45   24   25 ar
    46   25   26 ar
    47   26   27 ar
    48   26   46 1
    49   27   28 ar
    50   27   47 1
    51   28   29 ar
    52   28   48 1
    53   29   49 1
@<TRIPOS>MOLECULE
ZINC36615769
   36    38     0     0     0
SMALL
USER_CHARGES

@<TRIPOS>ATOM
      1 C1         -0.0187    1.5258    0.0104 C.3       1 <0>        -0.1690
      2 C2          0.0021   -0.0041    0.0020 C.3       1 <0>         0.1253
      3 N1          0.6878   -0.4765   -1.2033 N.pl3     1 <0>        -0.3488
      4 C3          1.7408   -1.3221   -1.2361 C.2       1 <0>         0.0541
      5 C4          2.0833   -1.5125   -2.5282 C.2       1 <0>        -0.2158
      6 C5          1.2039   -0.7519   -3.3250 C.2       1 <0>         0.0855
      7 N2          0.3614   -0.1345   -2.5218 N.2       1 <0>        -0.2523
      8 C6          1.2197   -0.6670   -4.8040 C.2       1 <0>         0.3019
      9 C7          0.2764    0.1441   -5.4723 C.2       1 <0>        -0.0964
     10 C8          0.3047    0.2119   -6.8368 C.2       1 <0>         0.1579
     11 N3          1.2559   -0.5157   -7.5202 N.pl3     1 <0>        -0.2862
     12 C9          2.1527   -1.2908   -6.8257 C.2       1 <0>         0.3034
     13 N4          2.1189   -1.3455   -5.4920 N.2       1 <0>        -0.4087
     14 C10         2.9759   -1.8975   -7.7707 C.2       1 <0>        -0.1894
     15 C11         2.5592   -1.4759   -9.0230 C.2       1 <0>         0.0452
     16 N5          1.5400   -0.6565   -8.8831 N.2       1 <0>        -0.2081
     17 C12         3.1754   -1.8892  -10.3346 C.3       1 <0>         0.5574
     18 F1          2.5357   -3.0396  -10.8085 F         1 <0>        -0.1566
     19 F2          3.0267   -0.8558  -11.2659 F         1 <0>        -0.1574
     20 F3          4.5360   -2.1558  -10.1472 F         1 <0>        -0.1490
     21 Br1         4.4050   -3.0821   -7.4100 Br        1 <0>         0.0399
     22 C13        -0.6652    1.0481   -7.5657 C.2       1 <0>         0.5133
     23 O1         -1.4995    1.6848   -6.9532 O.2       1 <0>        -0.4648
     24 O2         -0.6271    1.1066   -8.9118 O.3       1 <0>        -0.3188
     25 C14        -1.5973    1.9372   -9.5528 C.3       1 <0>         0.0316
     26 H1          1.0039    1.9031    0.0027 H         1 <0>         0.0629
     27 H2         -0.5459    1.8868   -0.8726 H         1 <0>         0.0724
     28 H3         -0.5289    1.8773    0.9072 H         1 <0>         0.0798
     29 H4          0.5293   -0.3651    0.8851 H         1 <0>         0.1039
     30 H5         -1.0205   -0.3814    0.0098 H         1 <0>         0.0917
     31 H6          2.2239   -1.7676   -0.3790 H         1 <0>         0.1852
     32 H7          2.8883   -2.1365   -2.8874 H         1 <0>         0.1633
     33 H8         -0.4583    0.7035   -4.9121 H         1 <0>         0.1975
     34 H9         -1.4778    2.9654   -9.2114 H         1 <0>         0.0680
     35 H10        -1.4558    1.8941  -10.6328 H         1 <0>         0.1133
     36 H11        -2.5984    1.5856   -9.3032 H         1 <0>         0.0680
@<TRIPOS>BOND
     1    1    2 1
     2    1   26 1
     3    1   27 1
     4    1   28 1
     5    2    3 1
     6    2   29 1
     7    2   30 1
     8    3    7 1
     9    3    4 1
    10    4    5 2
    11    4   31 1
    12    5    6 1
    13    5   32 1
    14    6    7 2
    15    6    8 1
    16    8   13 2
    17    8    9 1
    18    9   10 2
    19    9   33 1
    20   10   11 1
    21   10   22 1
    22   11   16 1
    23   11   12 1
    24   12   13 1
    25   12   14 2
    26   14   15 1
    27   14   21 1
    28   15   16 2
    29   15   17 1
    30   17   18 1
    31   17   19 1
    32   17   20 1
    33   22   23 2
    34   22   24 1
    35   24   25 1
    36   25   34 1
    37   25   35 1
    38   25   36 1
@<TRIPOS>MOLECULE
ZINC44419281
   48    53     0     0     0
SMALL
USER_CHARGES

@<TRIPOS>ATOM
      1 C1          1.2135   -0.6816    0.0020 C.ar      1 <0>        -0.1424
      2 C2          2.4018    0.0244   -0.0066 C.ar      1 <0>        -0.0682
      3 C3          2.3873    1.4094   -0.0151 C.ar      1 <0>         0.0092
      4 C4          1.1729    2.0923   -0.0150 C.ar      1 <0>         0.0619
      5 C5         -0.0169    1.3842   -0.0065 C.ar      1 <0>        -0.1394
      6 C6          0.0021   -0.0041    0.0020 C.ar      1 <0>         0.1760
      7 N1         -1.2015   -0.7210    0.0102 N.am      1 <0>        -0.5540
      8 C7         -2.5299   -0.1079    0.1266 C.3       1 <0>         0.1051
      9 C8         -3.4810   -1.2578    0.5260 C.3       1 <0>        -0.0157
     10 H1         -3.5818   -1.3221    1.6094 H         1 <0>         0.1376
     11 C9         -2.7367   -2.4918   -0.0347 C.3       1 <0>        -0.1445
     12 C10        -1.2884   -2.0584   -0.0933 C.2       1 <0>         0.5263
     13 O1         -0.3430   -2.8088   -0.2136 O.2       1 <0>        -0.4950
     14 C11        -4.8282   -1.0958   -0.1296 C.2       1 <0>         0.2669
     15 N2         -5.9890   -0.9600    0.5130 N.2       1 <0>        -0.5357
     16 C12        -6.9728   -0.8404   -0.3562 C.2       1 <0>         0.3983
     17 O2         -6.4426   -0.8994   -1.5922 O.3       1 <0>        -0.0900
     18 N3         -5.0433   -1.0604   -1.4146 N.2       1 <0>        -0.3312
     19 C13        -8.3950   -0.6730   -0.0334 C.2       1 <0>        -0.2017
     20 C14        -9.4732   -0.5479   -0.8877 C.2       1 <0>        -0.0582
     21 C15       -10.7237   -0.4000   -0.3011 C.2       1 <0>        -0.1481
     22 C16       -10.7634   -0.3924    1.0608 C.2       1 <0>        -0.1958
     23 S1         -9.1828   -0.5858    1.5637 S.3       1 <0>         0.3019
     24 C17       -11.9829   -0.2457    1.9225 C.3       1 <0>        -0.0458
     25 C18       -13.1349    0.2714    1.0502 C.3       1 <0>        -0.1156
     26 C19       -13.2015   -0.5703   -0.2273 C.3       1 <0>        -0.1224
     27 C20       -12.0026   -0.2521   -1.1212 C.3       1 <0>        -0.0580
     28 O3          1.4266    3.4335   -0.0237 O.3       1 <0>        -0.3068
     29 C21         2.8010    3.5678    0.3834 C.3       1 <0>         0.2135
     30 O4          3.4016    2.3242   -0.0239 O.3       1 <0>        -0.3071
     31 H2          1.2277   -1.7615    0.0041 H         1 <0>         0.1700
     32 H3          3.3432   -0.5049   -0.0063 H         1 <0>         0.1431
     33 H4         -0.9593    1.9116   -0.0061 H         1 <0>         0.1387
     34 H5         -2.5237    0.6618    0.8983 H         1 <0>         0.1040
     35 H6         -2.8338    0.3180   -0.8296 H         1 <0>         0.0911
     36 H7         -2.8557   -3.3450    0.6330 H         1 <0>         0.1247
     37 H8         -3.0990   -2.7345   -1.0337 H         1 <0>         0.1196
     38 H9         -9.3499   -0.5641   -1.9605 H         1 <0>         0.1493
     39 H10       -12.2503   -1.2135    2.3466 H         1 <0>         0.0910
     40 H11       -11.7820    0.4657    2.7235 H         1 <0>         0.0879
     41 H12       -14.0745    0.1828    1.5956 H         1 <0>         0.0765
     42 H13       -12.9572    1.3152    0.7913 H         1 <0>         0.0699
     43 H14       -13.1871   -1.6282    0.0347 H         1 <0>         0.0666
     44 H15       -14.1232   -0.3433   -0.7631 H         1 <0>         0.0720
     45 H16       -12.0837    0.7703   -1.4902 H         1 <0>         0.0778
     46 H17       -11.9794   -0.9453   -1.9621 H         1 <0>         0.0774
     47 H18         3.2721    4.4066   -0.1290 H         1 <0>         0.1335
     48 H19         2.8700    3.6905    1.4643 H         1 <0>         0.0861
@<TRIPOS>BOND
     1    1    6 ar
     2    1    2 ar
     3    1   31 1
     4    2    3 ar
     5    2   32 1
     6    3   30 1
     7    3    4 ar
     8    4    5 ar
     9    4   28 1
    10    5    6 ar
    11    5   33 1
    12    6    7 1
    13    7   12 am
    14    7    8 1
    15    8    9 1
    16    8   34 1
    17    8   35 1
    18    9   10 1
    19    9   11 1
    20    9   14 1
    21   11   12 1
    22   11   36 1
    23   11   37 1
    24   12   13 2
    25   14   18 2
    26   14   15 1
    27   15   16 2
    28   16   17 1
    29   16   19 1
    30   17   18 1
    31   19   23 1
    32   19   20 2
    33   20   21 1
    34   20   38 1
    35   21   27 1
    36   21   22 2
    37   22   23 1
    38   22   24 1
    39   24   25 1
    40   24   39 1
    41   24   40 1
    42   25   26 1
    43   25   41 1
    44   25   42 1
    45   26   27 1
    46   26   43 1
    47   26   44 1
    48   27   45 1
    49   27   46 1
    50   28   29 1
    51   29   30 1
    52   29   47 1
    53   29   48 1
@<TRIPOS>MOLECULE
ZINC60242428
   53    57     0     0     0
SMALL
USER_CHARGES

@<TRIPOS>ATOM
      1 C1         -0.0168    1.3841    0.0097 C.ar      1 <0>        -0.0788
      2 C2          1.1703    2.0899    0.0021 C.ar      1 <0>        -0.1323
      3 C3          2.3788    1.4139   -0.0135 C.ar      1 <0>         0.1014
      4 C4          2.3995    0.0293   -0.0216 C.ar      1 <0>        -0.1308
      5 C5          1.2146   -0.6800   -0.0141 C.ar      1 <0>        -0.0972
      6 C6          0.0021   -0.0041    0.0020 C.ar      1 <0>         0.1389
      7 N1         -1.2023   -0.7226    0.0101 N.pl3     1 <0>        -0.3020
      8 C7         -1.4319   -1.9009   -0.6177 C.2       1 <0>         0.0578
      9 C8         -2.7099   -2.2600   -0.3642 C.2       1 <0>        -0.2273
     10 C9         -3.2826   -1.2691    0.4457 C.2       1 <0>         0.0663
     11 N2         -2.3782   -0.3522    0.6735 N.2       1 <0>        -0.2468
     12 C10        -4.6959   -1.2644    0.9689 C.3       1 <0>         0.2063
     13 N3         -4.7387   -1.9444    2.2658 N.am      1 <0>        -0.5698
     14 C11        -4.9469   -3.2656    2.4536 C.2       1 <0>         0.5069
     15 O1         -5.1322   -4.1086    1.6014 O.2       1 <0>        -0.4005
     16 C12        -4.9005   -3.4698    3.9387 C.2       1 <0>         0.5078
     17 O2         -5.0404   -4.5129    4.5417 O.2       1 <0>        -0.4048
     18 N4         -4.6701   -2.2464    4.4627 N.am      1 <0>        -0.5700
     19 C13        -4.5717   -1.3569    3.4616 C.2       1 <0>         0.7083
     20 O3         -4.3612   -0.1707    3.6181 O.2       1 <0>        -0.4755
     21 C14        -4.5430   -1.9408    5.8898 C.3       1 <0>         0.1512
     22 C15        -3.3742   -2.7330    6.4789 C.3       1 <0>        -0.1350
     23 C16        -3.2415   -2.4138    7.9693 C.3       1 <0>        -0.1138
     24 C17        -4.5343   -2.8000    8.6907 C.3       1 <0>        -0.1252
     25 C18        -5.7032   -2.0077    8.1016 C.3       1 <0>        -0.1139
     26 C19        -5.8359   -2.3269    6.6111 C.3       1 <0>        -0.1347
     27 C20        -3.0284   -3.5756   -1.0417 C.3       1 <0>        -0.0443
     28 C21        -1.9157   -3.7621   -2.0963 C.3       1 <0>        -0.1142
     29 C22        -0.7590   -2.9365   -1.4921 C.3       1 <0>        -0.0494
     30 F1          3.5390    2.1061   -0.0213 F         1 <0>        -0.1321
     31 H1         -0.9590    1.9116    0.0260 H         1 <0>         0.1455
     32 H2          1.1560    3.1698    0.0080 H         1 <0>         0.1481
     33 H3          3.3430   -0.4963   -0.0342 H         1 <0>         0.1482
     34 H4          1.2311   -1.7599   -0.0211 H         1 <0>         0.1395
     35 H5         -5.0363   -0.2356    1.0866 H         1 <0>         0.1212
     36 H6         -5.3457   -1.7838    0.2647 H         1 <0>         0.1266
     37 H7         -4.3602   -0.8739    6.0180 H         1 <0>         0.1150
     38 H8         -3.5571   -3.7999    6.3507 H         1 <0>         0.0792
     39 H9         -2.4531   -2.4579    5.9650 H         1 <0>         0.0692
     40 H10        -2.4088   -2.9782    8.3890 H         1 <0>         0.0721
     41 H11        -3.0586   -1.3470    8.0976 H         1 <0>         0.0679
     42 H12        -4.7172   -3.8668    8.5625 H         1 <0>         0.0666
     43 H13        -4.4398   -2.5726    9.7525 H         1 <0>         0.0688
     44 H14        -6.6242   -2.2828    8.6155 H         1 <0>         0.0728
     45 H15        -5.5203   -0.9409    8.2298 H         1 <0>         0.0680
     46 H16        -6.6686   -1.7625    6.1914 H         1 <0>         0.0715
     47 H17        -6.0188   -3.3938    6.4829 H         1 <0>         0.0795
     48 H18        -3.0044   -4.3900   -0.3177 H         1 <0>         0.0783
     49 H19        -4.0041   -3.5262   -1.5252 H         1 <0>         0.0769
     50 H20        -1.6384   -4.8122   -2.1881 H         1 <0>         0.0866
     51 H21        -2.2211   -3.3558   -3.0605 H         1 <0>         0.0791
     52 H22        -0.1864   -2.4508   -2.2823 H         1 <0>         0.0828
     53 H23        -0.1114   -3.5758   -0.8921 H         1 <0>         0.0901
@<TRIPOS>BOND
     1    1    6 ar
     2    1    2 ar
     3    1   31 1
     4    2    3 ar
     5    2   32 1
     6    3    4 ar
     7    3   30 1
     8    4    5 ar
     9    4   33 1
    10    5    6 ar
    11    5   34 1
    12    6    7 1
    13    7   11 1
    14    7    8 1
    15    8   29 1
    16    8    9 2
    17    9   10 1
    18    9   27 1
    19   10   11 2
    20   10   12 1
    21   12   13 1
    22   12   35 1
    23   12   36 1
    24   13   19 am
    25   13   14 am
    26   14   15 2
    27   14   16 1
    28   16   17 2
    29   16   18 am
    30   18   19 am
    31   18   21 1
    32   19   20 2
    33   21   26 1
    34   21   22 1
    35   21   37 1
    36   22   23 1
    37   22   38 1
    38   22   39 1
    39   23   24 1
    40   23   40 1
    41   23   41 1
    42   24   25 1
    43   24   42 1
    44   24   43 1
    45   25   26 1
    46   25   44 1
    47   25   45 1
    48   26   46 1
    49   26   47 1
    50   27   28 1
    51   27   48 1
    52   27   49 1
    53   28   29 1
    54   28   50 1
    55   28   51 1
    56   29   52 1
    57   29   53 1
@<TRIPOS>MOLECULE
ZINC06593019
   54    57     0     0     0
SMALL
USER_CHARGES
6-[[4-(4-butylphenyl)-5-methyl-thiazol-2-yl]carbamoyl]bicyclo[2.2.1]hept-2-ene-5-carboxylic acid
@<TRIPOS>ATOM
      1 C1         10.4800   -2.8340    1.6503 C.3       1 <0>        -0.1541
      2 C2         10.3484   -1.6495    0.6908 C.3       1 <0>        -0.1240
      3 C3          8.9213   -1.1011    0.7504 C.3       1 <0>        -0.1163
      4 C4          8.7896    0.0834   -0.2090 C.3       1 <0>        -0.0777
      5 C5          7.3840    0.6236   -0.1503 C.ar      1 <0>        -0.0855
      6 C6          7.0657    1.6191    0.7560 C.ar      1 <0>        -0.1189
      7 C7          5.7801    2.1172    0.8146 C.ar      1 <0>        -0.1013
      8 C8          4.8014    1.6154   -0.0418 C.ar      1 <0>        -0.0083
      9 C9          5.1266    0.6087   -0.9493 C.ar      1 <0>        -0.0851
     10 C10         6.4169    0.1219   -1.0026 C.ar      1 <0>        -0.1200
     11 C11         3.4178    2.1464    0.0167 C.2       1 <0>         0.1133
     12 C12         3.1991    3.4908    0.1334 C.2       1 <0>        -0.2338
     13 S1          1.4116    3.5350    0.1542 S.3       1 <0>         0.0959
     14 C13         1.1433    1.7740    0.0067 C.2       1 <0>         0.3581
     15 N1          2.3825    1.3219   -0.0378 N.2       1 <0>        -0.5389
     16 N2         -0.0525    1.0679   -0.0421 N.am      1 <0>        -0.5896
     17 C14        -1.2269    1.7264    0.0191 C.2       1 <0>         0.5356
     18 O1         -1.2399    2.9348    0.1217 O.2       1 <0>        -0.4917
     19 C15        -2.5238    0.9611   -0.0401 C.3       1 <0>        -0.0896
     20 H1         -2.5408    0.3049   -0.9102 H         1 <0>         0.0970
     21 C16        -3.7392    1.9418   -0.0680 C.3       1 <0>        -0.0481
     22 H2         -3.9563    2.4144   -1.0259 H         1 <0>         0.0977
     23 C17        -4.8618    1.0196    0.5339 C.3       1 <0>        -0.1211
     24 C18        -4.0545    0.7439    1.8550 C.3       1 <0>        -0.0648
     25 H3         -4.5588    0.1570    2.6226 H         1 <0>         0.0942
     26 C19        -2.7352    0.1471    1.2599 C.3       1 <0>        -0.1287
     27 H4         -2.8596   -0.9118    1.0330 H         1 <0>         0.0833
     28 C20        -1.5830    0.3553    2.2087 C.2       1 <0>         0.4563
     29 O2         -1.5748    1.3103    2.9487 O.co2     1 <0>        -0.6061
     30 C21        -3.6778    2.1810    2.2354 C.2       1 <0>        -0.0976
     31 C22        -3.4961    2.8712    1.1274 C.2       1 <0>        -0.1903
     32 C23         4.1903    4.6227    0.2200 C.3       1 <0>        -0.0495
     33 H5         10.2593   -2.5053    2.6658 H         1 <0>         0.0539
     34 H6          9.7779   -3.6159    1.3607 H         1 <0>         0.0541
     35 H7         11.4967   -3.2247    1.6078 H         1 <0>         0.0517
     36 H8         10.5691   -1.9782   -0.3247 H         1 <0>         0.0601
     37 H9         11.0505   -0.8676    0.9803 H         1 <0>         0.0600
     38 H10         8.7005   -0.7723    1.7660 H         1 <0>         0.0639
     39 H11         8.2192   -1.8829    0.4609 H         1 <0>         0.0642
     40 H12         9.0104   -0.2453   -1.2245 H         1 <0>         0.0692
     41 H13         9.4918    0.8653    0.0805 H         1 <0>         0.0693
     42 H14         7.8249    2.0073    1.4188 H         1 <0>         0.1208
     43 H15         5.5328    2.8946    1.5223 H         1 <0>         0.1249
     44 H16         4.3713    0.2132   -1.6121 H         1 <0>         0.1238
     45 H17         6.6710   -0.6553   -1.7082 H         1 <0>         0.1197
     46 H18        -0.0420    0.1015   -0.1242 H         1 <0>         0.4313
     47 H19        -5.7912    1.5587    0.7174 H         1 <0>         0.0753
     48 H20        -5.0213    0.1169   -0.0558 H         1 <0>         0.0702
     49 H21        -3.5780    2.5627    3.2407 H         1 <0>         0.1193
     50 H22        -3.2220    3.9143    1.0708 H         1 <0>         0.1194
     51 H23         3.6578    5.5737    0.2072 H         1 <0>         0.0682
     52 H24         4.7593    4.5373    1.1457 H         1 <0>         0.0740
     53 H25         4.8706    4.5757   -0.6304 H         1 <0>         0.0746
     54 O3         -0.5659   -0.5203    2.2316 O.co2     1 <0>        -0.7583
@<TRIPOS>BOND
     1    1    2 1
     2    1   33 1
     3    1   34 1
     4    1   35 1
     5    2    3 1
     6    2   36 1
     7    2   37 1
     8    3    4 1
     9    3   38 1
    10    3   39 1
    11    4    5 1
    12    4   40 1
    13    4   41 1
    14    5   10 ar
    15    5    6 ar
    16    6    7 ar
    17    6   42 1
    18    7    8 ar
    19    7   43 1
    20    8    9 ar
    21    8   11 1
    22    9   10 ar
    23    9   44 1
    24   10   45 1
    25   11   15 1
    26   11   12 2
    27   12   13 1
    28   12   32 1
    29   13   14 1
    30   14   15 2
    31   14   16 1
    32   16   17 am
    33   16   46 1
    34   17   18 2
    35   17   19 1
    36   19   20 1
    37   19   26 1
    38   19   21 1
    39   21   22 1
    40   21   31 1
    41   21   23 1
    42   23   24 1
    43   23   47 1
    44   23   48 1
    45   24   25 1
    46   24   26 1
    47   24   30 1
    48   26   27 1
    49   26   28 1
    50   28   29 2
    51   28   54 1
    52   30   31 2
    53   30   49 1
    54   31   50 1
    55   32   51 1
    56   32   52 1
    57   32   53 1
@<TRIPOS>MOLECULE
ZINC16927037
   42    44     0     0     0
SMALL
USER_CHARGES
2-[[(5Z)-3-allyl-5-[(4-bromophenyl)methylene]-4-oxo-thiazolidin-2-ylidene]amino]-5-hydroxy-benzoic acid
@<TRIPOS>ATOM
      1 C1         -1.4748    0.1147    0.6948 C.2       1 <0>        -0.1553
      2 C2         -0.3604    0.7864    0.5429 C.2       1 <0>        -0.1791
      3 C3          0.1135    1.1572   -0.8388 C.3       1 <0>         0.1290
      4 N1          0.3245    2.6051   -0.9104 N.am      1 <0>        -0.5291
      5 C4          1.5087    3.1094   -0.6073 C.2       1 <0>         0.5566
      6 O1          2.4356    2.3978   -0.2676 O.2       1 <0>        -0.4955
      7 C5          1.6545    4.5761   -0.7005 C.2       1 <0>        -0.1847
      8 C6          2.7401    5.3508   -0.4520 C.2       1 <0>         0.0252
      9 C7          2.7131    6.7820   -0.7850 C.ar      1 <0>        -0.0602
     10 C8          1.6537    7.3107   -1.5312 C.ar      1 <0>        -0.0912
     11 C9          1.6331    8.6548   -1.8354 C.ar      1 <0>        -0.0835
     12 C10         2.6628    9.4799   -1.4137 C.ar      1 <0>        -0.0786
     13 C11         3.7175    8.9631   -0.6792 C.ar      1 <0>        -0.0945
     14 C12         3.7497    7.6221   -0.3625 C.ar      1 <0>        -0.0839
     15 Br1         2.6288   11.3212   -1.8433 Br        1 <0>        -0.0475
     16 S1          0.0162    5.0553   -1.2292 S.3       1 <0>        -0.0380
     17 C13        -0.7104    3.4259   -1.2981 C.2       1 <0>         0.3532
     18 N2         -1.9378    3.0909   -1.6362 N.2       1 <0>        -0.3696
     19 C14        -2.8647    4.0582   -1.8811 C.ar      1 <0>         0.1025
     20 C15        -2.9855    5.1513   -1.0181 C.ar      1 <0>        -0.1434
     21 C16        -3.9205    6.1293   -1.2713 C.ar      1 <0>        -0.1282
     22 C17        -4.7585    6.0356   -2.3787 C.ar      1 <0>         0.0852
     23 C18        -4.6600    4.9614   -3.2417 C.ar      1 <0>        -0.0897
     24 C19        -3.7133    3.9604   -3.0044 C.ar      1 <0>        -0.0729
     25 C20        -3.6030    2.8137   -3.9185 C.2       1 <0>         0.4864
     26 O2         -2.7786    1.9456   -3.7077 O.co2     1 <0>        -0.6014
     27 O3         -5.6804    7.0076   -2.6125 O.3       1 <0>        -0.4988
     28 H1         -2.0539   -0.1733   -0.1701 H         1 <0>         0.1074
     29 H2         -1.8145   -0.1511    1.6850 H         1 <0>         0.0992
     30 H3          0.2187    1.0744    1.4078 H         1 <0>         0.1073
     31 H4         -0.6377    0.8628   -1.5717 H         1 <0>         0.1149
     32 H5          1.0503    0.6424   -1.0519 H         1 <0>         0.0996
     33 H6          3.6240    4.9159   -0.0095 H         1 <0>         0.1599
     34 H7          0.8523    6.6679   -1.8643 H         1 <0>         0.1464
     35 H8          0.8142    9.0651   -2.4077 H         1 <0>         0.1404
     36 H9          4.5169    9.6126   -0.3542 H         1 <0>         0.1378
     37 H10         4.5728    7.2206    0.2098 H         1 <0>         0.1408
     38 H11        -2.3424    5.2304   -0.1541 H         1 <0>         0.1293
     39 H12        -4.0074    6.9735   -0.6034 H         1 <0>         0.1281
     40 H13        -5.3139    4.8948   -4.0986 H         1 <0>         0.1450
     41 H14        -6.5376    6.8451   -2.1954 H         1 <0>         0.3849
     42 O4         -4.4162    2.7252   -4.9901 O.co2     1 <0>        -0.7536
@<TRIPOS>BOND
     1    1    2 2
     2    1   28 1
     3    1   29 1
     4    2    3 1
     5    2   30 1
     6    3    4 1
     7    3   31 1
     8    3   32 1
     9    4   17 1
    10    4    5 am
    11    5    6 2
    12    5    7 1
    13    7    8 2
    14    7   16 1
    15    8    9 1
    16    8   33 1
    17    9   14 ar
    18    9   10 ar
    19   10   11 ar
    20   10   34 1
    21   11   12 ar
    22   11   35 1
    23   12   13 ar
    24   12   15 1
    25   13   14 ar
    26   13   36 1
    27   14   37 1
    28   16   17 1
    29   17   18 2
    30   18   19 1
    31   19   24 ar
    32   19   20 ar
    33   20   21 ar
    34   20   38 1
    35   21   22 ar
    36   21   39 1
    37   22   23 ar
    38   22   27 1
    39   23   24 ar
    40   23   40 1
    41   24   25 1
    42   25   26 2
    43   25   42 1
    44   27   41 1
@<TRIPOS>MOLECULE
ZINC35861223
   58    61     0     0     0
SMALL
USER_CHARGES

@<TRIPOS>ATOM
      1 C1          0.0338    1.3612   -0.0741 C.3       1 <0>        -0.1515
      2 C2          0.0096   -0.1685   -0.0583 C.3       1 <0>         0.0626
      3 O1         -1.3448   -0.6232   -0.0290 O.3       1 <0>        -0.3338
      4 C3         -1.5426   -1.9573   -0.0120 C.2       1 <0>         0.5443
      5 O2         -0.5899   -2.7136   -0.0218 O.2       1 <0>        -0.5105
      6 C4         -2.9042   -2.4953    0.0183 C.2       1 <0>        -0.2540
      7 C5         -3.6304   -2.7918   -1.2127 C.2       1 <0>        -0.0306
      8 C6         -4.8651   -3.2780   -1.0069 C.2       1 <0>        -0.2528
      9 S1         -5.0531   -3.3396    0.7511 S.3       1 <0>         0.2925
     10 C7         -3.5521   -2.7485    1.2165 C.2       1 <0>         0.0992
     11 N1         -3.0727   -2.5556    2.5026 N.am      1 <0>        -0.6121
     12 C8         -3.8472   -2.8592    3.5630 C.2       1 <0>         0.5448
     13 O3         -4.9963   -3.2085    3.3945 O.2       1 <0>        -0.4884
     14 C9         -3.2853   -2.7647    4.9582 C.3       1 <0>        -0.0930
     15 H1         -2.3948   -3.3859    5.0543 H         1 <0>         0.0893
     16 C10        -4.3606   -3.1794    6.0125 C.3       1 <0>        -0.0489
     17 H2         -4.5284   -4.2493    6.1357 H         1 <0>         0.0939
     18 C11        -3.8384   -2.3976    7.2730 C.3       1 <0>        -0.1212
     19 C12        -3.8913   -1.0049    6.5447 C.3       1 <0>        -0.0610
     20 H3         -3.6530   -0.1286    7.1476 H         1 <0>         0.0914
     21 C13        -2.9638   -1.2932    5.3170 C.3       1 <0>        -0.1577
     22 H4         -1.9149   -1.1865    5.5933 H         1 <0>         0.0726
     23 C14        -3.3057   -0.3807    4.1673 C.2       1 <0>         0.4894
     24 O4         -4.4631   -0.2703    3.8001 O.co2     1 <0>        -0.6589
     25 O5         -2.4250    0.2470    3.6045 O.co2     1 <0>        -0.6924
     26 C15        -5.3101   -1.0668    5.9657 C.2       1 <0>        -0.1058
     27 C16        -5.5878   -2.3362    5.6451 C.2       1 <0>        -0.1757
     28 C17        -5.8393   -3.6693   -2.0633 C.3       1 <0>        -0.0297
     29 C18        -5.6195   -5.1231   -2.5342 C.3       1 <0>        -0.1180
     30 C19        -4.6742   -5.0771   -3.7604 C.3       1 <0>        -0.1222
     31 C20        -3.3378   -5.7055   -3.3579 C.3       1 <0>        -0.1118
     32 C21        -2.5630   -4.9679   -2.3035 C.3       1 <0>        -0.1320
     33 C22        -1.9790   -3.6483   -2.8240 C.3       1 <0>        -0.1143
     34 C23        -3.0440   -2.5716   -2.5925 C.3       1 <0>        -0.0677
     35 H5          1.0669    1.7081   -0.0965 H         1 <0>         0.0734
     36 H6         -0.4904    1.7238   -0.9584 H         1 <0>         0.0619
     37 H7         -0.4579    1.7417    0.8212 H         1 <0>         0.0757
     38 H8          0.5013   -0.5489   -0.9536 H         1 <0>         0.0596
     39 H9          0.5338   -0.5310    0.8259 H         1 <0>         0.0646
     40 H10        -2.1798   -2.2022    2.6395 H         1 <0>         0.4192
     41 H11        -4.5281   -2.4549    8.1152 H         1 <0>         0.0737
     42 H12        -2.8245   -2.6847    7.5520 H         1 <0>         0.0680
     43 H13        -5.9749   -0.2263    5.8320 H         1 <0>         0.1153
     44 H14        -6.5062   -2.7105    5.2176 H         1 <0>         0.1226
     45 H15        -6.8504   -3.5731   -1.6676 H         1 <0>         0.0697
     46 H16        -5.7276   -2.9990   -2.9156 H         1 <0>         0.0785
     47 H17        -5.1612   -5.7058   -1.7352 H         1 <0>         0.0706
     48 H18        -6.5729   -5.5684   -2.8183 H         1 <0>         0.0653
     49 H19        -5.1125   -5.6409   -4.5839 H         1 <0>         0.0594
     50 H20        -4.5171   -4.0424   -4.0650 H         1 <0>         0.0694
     51 H21        -3.5309   -6.7152   -2.9957 H         1 <0>         0.0525
     52 H22        -2.7144   -5.7814   -4.2489 H         1 <0>         0.0483
     53 H23        -3.2243   -4.7545   -1.4638 H         1 <0>         0.0832
     54 H24        -1.7475   -5.6022   -1.9560 H         1 <0>         0.0533
     55 H25        -1.0717   -3.3995   -2.2736 H         1 <0>         0.0677
     56 H26        -1.7592   -3.7322   -3.8883 H         1 <0>         0.0628
     57 H27        -3.8276   -2.6593   -3.3451 H         1 <0>         0.0827
     58 H28        -2.5879   -1.5832   -2.6465 H         1 <0>         0.0667
@<TRIPOS>BOND
     1    1    2 1
     2    1   35 1
     3    1   36 1
     4    1   37 1
     5    2    3 1
     6    2   38 1
     7    2   39 1
     8    3    4 1
     9    4    5 2
    10    4    6 1
    11    6   10 2
    12    6    7 1
    13    7   34 1
    14    7    8 2
    15    8    9 1
    16    8   28 1
    17    9   10 1
    18   10   11 1
    19   11   12 am
    20   11   40 1
    21   12   13 2
    22   12   14 1
    23   14   15 1
    24   14   21 1
    25   14   16 1
    26   16   17 1
    27   16   27 1
    28   16   18 1
    29   18   19 1
    30   18   41 1
    31   18   42 1
    32   19   20 1
    33   19   21 1
    34   19   26 1
    35   21   22 1
    36   21   23 1
    37   23   24 2
    38   23   25 1
    39   26   27 2
    40   26   43 1
    41   27   44 1
    42   28   29 1
    43   28   45 1
    44   28   46 1
    45   29   30 1
    46   29   47 1
    47   29   48 1
    48   30   31 1
    49   30   49 1
    50   30   50 1
    51   31   32 1
    52   31   51 1
    53   31   52 1
    54   32   33 1
    55   32   53 1
    56   32   54 1
    57   33   34 1
    58   33   55 1
    59   33   56 1
    60   34   57 1
    61   34   58 1
@<TRIPOS>MOLECULE
ZINC40124139
   49    51     0     0     0
SMALL
USER_CHARGES

@<TRIPOS>ATOM
      1 C1          0.3950    1.3153    1.7633 C.3       1 <0>        -0.1512
      2 C2          0.3489   -0.1985    1.5461 C.3       1 <0>        -0.1225
      3 C3         -1.0958   -0.6335    1.2921 C.3       1 <0>        -0.1182
      4 C4         -1.1419   -2.1474    1.0750 C.3       1 <0>         0.0572
      5 O1         -2.4913   -2.5536    0.8378 O.3       1 <0>        -0.3132
      6 C5         -2.7080   -3.8761    0.6244 C.ar      1 <0>         0.1415
      7 C6         -1.6401   -4.7666    0.6492 C.ar      1 <0>        -0.2221
      8 C7         -1.8556   -6.1088    0.4337 C.ar      1 <0>        -0.0235
      9 C8         -3.1507   -6.5767    0.1897 C.ar      1 <0>        -0.1659
     10 C9         -4.2214   -5.6781    0.1657 C.ar      1 <0>        -0.0367
     11 C10        -3.9978   -4.3377    0.3875 C.ar      1 <0>        -0.1359
     12 C11        -5.1520   -3.3690    0.3675 C.3       1 <0>        -0.0988
     13 C12        -3.3864   -8.0152   -0.0423 C.2       1 <0>         0.5084
     14 O2         -4.5231   -8.4352   -0.1548 O.2       1 <0>        -0.4777
     15 C13        -2.2510   -8.9383   -0.1372 C.2       1 <0>        -0.5081
     16 C14        -1.9425   -9.9302    0.7301 C.2       1 <0>         0.2728
     17 C15        -0.7217  -10.6206    0.2641 C.2       1 <0>         0.5222
     18 O3         -0.1915  -11.5568    0.8285 O.2       1 <0>        -0.5392
     19 N1         -0.2842  -10.0593   -0.8777 N.am      1 <0>        -0.7278
     20 C16        -1.2036   -8.9696   -1.2257 C.3       1 <0>         0.2583
     21 H1         -0.6648   -8.0225   -1.2547 H         1 <0>         0.0819
     22 C17        -1.8507   -9.2394   -2.5598 C.ar      1 <0>        -0.0636
     23 C18        -2.3404  -10.5004   -2.8488 C.ar      1 <0>        -0.0042
     24 C19        -2.9343  -10.7475   -4.0738 C.ar      1 <0>        -0.1119
     25 C20        -3.0379   -9.7348   -5.0088 C.ar      1 <0>        -0.1052
     26 C21        -2.5488   -8.4746   -4.7205 C.ar      1 <0>        -0.1126
     27 C22        -1.9602   -8.2247   -3.4935 C.ar      1 <0>        -0.0219
     28 Cl1        -1.3528   -6.6398   -3.1287 Cl        1 <0>        -0.0579
     29 Cl2        -2.2093  -11.7727   -1.6751 Cl        1 <0>        -0.0322
     30 O4         -2.6409  -10.2405    1.8467 O.3       1 <0>        -0.6522
     31 H2          1.4243    1.6252    1.9442 H         1 <0>         0.0557
     32 H3          0.0138    1.8213    0.8764 H         1 <0>         0.0549
     33 H4         -0.2201    1.5778    2.6240 H         1 <0>         0.0553
     34 H5          0.9640   -0.4610    0.6854 H         1 <0>         0.0646
     35 H6          0.7301   -0.7046    2.4331 H         1 <0>         0.0652
     36 H7         -1.7109   -0.3710    2.1528 H         1 <0>         0.0727
     37 H8         -1.4770   -0.1275    0.4052 H         1 <0>         0.0722
     38 H9         -0.5268   -2.4098    0.2143 H         1 <0>         0.0610
     39 H10        -0.7607   -2.6534    1.9619 H         1 <0>         0.0621
     40 H11        -0.6402   -4.4044    0.8373 H         1 <0>         0.1255
     41 H12        -1.0257   -6.7996    0.4528 H         1 <0>         0.1340
     42 H13        -5.2230   -6.0353   -0.0227 H         1 <0>         0.1342
     43 H14        -5.2950   -2.9951   -0.6463 H         1 <0>         0.0630
     44 H15        -6.0580   -3.8763    0.6989 H         1 <0>         0.0632
     45 H16        -4.9377   -2.5347    1.0355 H         1 <0>         0.0657
     46 H17         0.4980  -10.3297   -1.3836 H         1 <0>         0.4053
     47 H18        -3.3167  -11.7320   -4.2996 H         1 <0>         0.1349
     48 H19        -3.5010   -9.9284   -5.9651 H         1 <0>         0.1361
     49 H20        -2.6297   -7.6838   -5.4516 H         1 <0>         0.1346
@<TRIPOS>BOND
     1    1    2 1
     2    1   31 1
     3    1   32 1
     4    1   33 1
     5    2    3 1
     6    2   34 1
     7    2   35 1
     8    3    4 1
     9    3   36 1
    10    3   37 1
    11    4    5 1
    12    4   38 1
    13    4   39 1
    14    5    6 1
    15    6   11 ar
    16    6    7 ar
    17    7    8 ar
    18    7   40 1
    19    8    9 ar
    20    8   41 1
    21    9   10 ar
    22    9   13 1
    23   10   11 ar
    24   10   42 1
    25   11   12 1
    26   12   43 1
    27   12   44 1
    28   12   45 1
    29   13   14 2
    30   13   15 1
    31   15   20 1
    32   15   16 2
    33   16   17 1
    34   16   30 1
    35   17   18 2
    36   17   19 am
    37   19   20 1
    38   19   46 1
    39   20   21 1
    40   20   22 1
    41   22   27 ar
    42   22   23 ar
    43   23   24 ar
    44   23   29 1
    45   24   25 ar
    46   24   47 1
    47   25   26 ar
    48   25   48 1
    49   26   27 ar
    50   26   49 1
    51   27   28 1
@<TRIPOS>MOLECULE
ZINC59248604
   53    55     0     0     0
SMALL
USER_CHARGES

@<TRIPOS>ATOM
      1 C1          6.5535   -1.1445   -1.7133 C.3       1 <0>        -0.1138
      2 C2          5.5229   -2.2070   -1.4307 C.ar      1 <0>        -0.1039
      3 C3          5.2393   -3.1649   -2.3872 C.ar      1 <0>        -0.0980
      4 C4          4.2958   -4.1401   -2.1313 C.ar      1 <0>        -0.1172
      5 C5          3.6312   -4.1584   -0.9116 C.ar      1 <0>         0.1499
      6 C6          3.9183   -3.1951    0.0466 C.ar      1 <0>        -0.1451
      7 C7          4.8670   -2.2255   -0.2137 C.ar      1 <0>        -0.0711
      8 C8          5.1833   -1.1831    0.8277 C.3       1 <0>        -0.1144
      9 N1          2.6748   -5.1444   -0.6494 N.am      1 <0>        -0.6769
     10 C9          1.8794   -5.5924   -1.6410 C.2       1 <0>         0.5692
     11 O1          2.0463   -5.1980   -2.7799 O.2       1 <0>        -0.4812
     12 C10         0.8110   -6.5570   -1.3467 C.2       1 <0>        -0.1828
     13 C11        -0.0960   -6.9036   -2.3287 C.2       1 <0>         0.1487
     14 C12        -0.1169   -6.1948   -3.5568 C.2       1 <0>        -0.2109
     15 C13        -0.0321   -4.7384   -3.7407 C.2       1 <0>        -0.0959
     16 C14        -0.0900   -4.5181   -5.0639 C.2       1 <0>         0.0124
     17 N2         -0.2036   -5.7160   -5.7153 N.pl3     1 <0>        -0.3776
     18 C15        -0.2153   -6.7328   -4.8290 C.2       1 <0>         0.1098
     19 C16        -0.3204   -8.1982   -5.1645 C.3       1 <0>        -0.0988
     20 C17        -0.2890   -5.8652   -7.1016 C.ar      1 <0>         0.0971
     21 C18        -1.4533   -6.3684   -7.6747 C.ar      1 <0>        -0.1214
     22 C19        -1.5425   -6.5178   -9.0395 C.ar      1 <0>        -0.0649
     23 C20        -0.4606   -6.1625   -9.8527 C.ar      1 <0>        -0.1122
     24 C21         0.7088   -5.6562   -9.2729 C.ar      1 <0>         0.0028
     25 C22         0.7870   -5.5052   -7.9048 C.ar      1 <0>        -0.1152
     26 Cl1         2.0553   -5.2132  -10.2751 Cl        1 <0>        -0.0322
     27 C23        -0.5515   -6.3211  -11.3135 C.2       1 <0>         0.5146
     28 O2         -1.5741   -6.7642  -11.8182 O.co2     1 <0>        -0.6834
     29 O3          0.3955   -6.0099  -12.0227 O.co2     1 <0>        -0.6552
     30 C24        -0.0389   -3.1655   -5.7266 C.3       1 <0>        -0.0845
     31 C25         0.7102   -7.1377   -0.0416 C.1       1 <0>         0.2567
     32 N3          0.6302   -7.5983    0.9937 N.1       1 <0>        -0.4288
     33 H1          7.5349   -1.4966   -1.3957 H         1 <0>         0.0674
     34 H2          6.5723   -0.9316   -2.7822 H         1 <0>         0.0655
     35 H3          6.2988   -0.2366   -1.1665 H         1 <0>         0.0661
     36 H4          5.7561   -3.1500   -3.3354 H         1 <0>         0.1242
     37 H5          4.0745   -4.8877   -2.8787 H         1 <0>         0.1406
     38 H6          3.4033   -3.2065    0.9959 H         1 <0>         0.1217
     39 H7          4.5265   -0.3238    0.6929 H         1 <0>         0.0700
     40 H8          5.0311   -1.6044    1.8214 H         1 <0>         0.0642
     41 H9          6.2212   -0.8672    0.7220 H         1 <0>         0.0687
     42 H10         2.5838   -5.5059    0.2461 H         1 <0>         0.4049
     43 H11        -0.7895   -7.7145   -2.1614 H         1 <0>         0.1380
     44 H12         0.0585   -3.9930   -2.9644 H         1 <0>         0.1376
     45 H13        -1.3702   -8.4901   -5.1925 H         1 <0>         0.0820
     46 H14         0.1337   -8.3814   -6.1383 H         1 <0>         0.0757
     47 H15         0.1992   -8.7829   -4.4054 H         1 <0>         0.0827
     48 H16        -2.2882   -6.6426   -7.0468 H         1 <0>         0.1271
     49 H17        -2.4463   -6.9091   -9.4826 H         1 <0>         0.1445
     50 H18         1.6868   -5.1109   -7.4562 H         1 <0>         0.1315
     51 H19         0.9974   -2.9057   -5.9425 H         1 <0>         0.0704
     52 H20        -0.6075   -3.1946   -6.6561 H         1 <0>         0.0651
     53 H21        -0.4696   -2.4180   -5.0604 H         1 <0>         0.0763
@<TRIPOS>BOND
     1    1    2 1
     2    1   33 1
     3    1   34 1
     4    1   35 1
     5    2    7 ar
     6    2    3 ar
     7    3    4 ar
     8    3   36 1
     9    4    5 ar
    10    4   37 1
    11    5    6 ar
    12    5    9 1
    13    6    7 ar
    14    6   38 1
    15    7    8 1
    16    8   39 1
    17    8   40 1
    18    8   41 1
    19    9   10 am
    20    9   42 1
    21   10   11 2
    22   10   12 1
    23   12   13 2
    24   12   31 1
    25   13   14 1
    26   13   43 1
    27   14   18 2
    28   14   15 1
    29   15   16 2
    30   15   44 1
    31   16   17 1
    32   16   30 1
    33   17   18 1
    34   17   20 1
    35   18   19 1
    36   19   45 1
    37   19   46 1
    38   19   47 1
    39   20   25 ar
    40   20   21 ar
    41   21   22 ar
    42   21   48 1
    43   22   23 ar
    44   22   49 1
    45   23   24 ar
    46   23   27 1
    47   24   25 ar
    48   24   26 1
    49   25   50 1
    50   27   28 2
    51   27   29 1
    52   30   51 1
    53   30   52 1
    54   30   53 1
    55   31   32 3
@<TRIPOS>MOLECULE
ZINC04599096
   42    44     0     0     0
SMALL
USER_CHARGES
3-[5-[(4-hydroxy-3-methoxy-phenyl)methylene]-3-methyl-4-oxo-thiazolidin-2-ylidene]aminobenzoic acid
@<TRIPOS>ATOM
      1 C1          0.5250   -3.8114    2.7665 C.3       1 <0>         0.0516
      2 N1          1.8762   -4.2723    2.4377 N.am      1 <0>        -0.5708
      3 C2          2.3471   -5.3731    2.9989 C.2       1 <0>         0.5479
      4 O1          1.6827   -6.0192    3.7880 O.2       1 <0>        -0.4935
      5 C3          3.7145   -5.7822    2.6256 C.2       1 <0>        -0.2012
      6 C4          4.4370   -6.8532    3.0422 C.2       1 <0>         0.0414
      7 C5          5.7863   -7.0809    2.5091 C.ar      1 <0>        -0.0488
      8 C6          6.5401   -6.0058    2.0230 C.ar      1 <0>        -0.1153
      9 C7          7.8055   -6.2226    1.5235 C.ar      1 <0>        -0.0999
     10 C8          8.3365   -7.5053    1.5005 C.ar      1 <0>         0.0930
     11 C9          7.5926   -8.5813    1.9830 C.ar      1 <0>         0.1029
     12 C10         6.3252   -8.3731    2.4906 C.ar      1 <0>        -0.1653
     13 O2          8.1174   -9.8357    1.9587 O.3       1 <0>        -0.3061
     14 C11         7.3000  -10.8909    2.4689 C.3       1 <0>         0.0220
     15 O3          9.5851   -7.7126    1.0066 O.3       1 <0>        -0.4841
     16 S1          4.1611   -4.4926    1.4720 S.3       1 <0>         0.0805
     17 C12         2.6440   -3.5543    1.5470 C.2       1 <0>         0.3483
     18 N2          2.3333   -2.4506    0.9047 N.2       1 <0>        -0.4298
     19 C13         1.1629   -1.8002    1.1884 C.ar      1 <0>         0.0564
     20 C14         0.9701   -1.2212    2.4460 C.ar      1 <0>        -0.1389
     21 C15        -0.2095   -0.5646    2.7334 C.ar      1 <0>        -0.1256
     22 C16        -1.2046   -0.4695    1.7805 C.ar      1 <0>        -0.0769
     23 C17        -1.0282   -1.0483    0.5213 C.ar      1 <0>        -0.0976
     24 C18         0.1603   -1.7130    0.2237 C.ar      1 <0>        -0.0785
     25 C19        -2.0966   -0.9507   -0.4947 C.2       1 <0>         0.4892
     26 O4         -1.9398   -1.4502   -1.5907 O.co2     1 <0>        -0.6265
     27 H1          0.0638   -3.3761    1.8799 H         1 <0>         0.0973
     28 H2         -0.0732   -4.6553    3.1101 H         1 <0>         0.0897
     29 H3          0.5790   -3.0598    3.5540 H         1 <0>         0.0828
     30 H4          4.0196   -7.5378    3.7656 H         1 <0>         0.1607
     31 H5          6.1298   -5.0069    2.0400 H         1 <0>         0.1401
     32 H6          8.3863   -5.3926    1.1492 H         1 <0>         0.1454
     33 H7          5.7499   -9.2052    2.8687 H         1 <0>         0.1418
     34 H8          6.3776  -10.9480    1.8909 H         1 <0>         0.0587
     35 H9          7.8367  -11.8364    2.3910 H         1 <0>         0.1028
     36 H10         7.0620  -10.6932    3.5141 H         1 <0>         0.0576
     37 H11        10.2862   -7.6464    1.6693 H         1 <0>         0.3897
     38 H12         1.7460   -1.2876    3.1944 H         1 <0>         0.1150
     39 H13        -0.3531   -0.1187    3.7066 H         1 <0>         0.1235
     40 H14        -2.1232    0.0497    2.0108 H         1 <0>         0.1358
     41 H15         0.3035   -2.1587   -0.7496 H         1 <0>         0.1338
     42 O5         -3.2467   -0.3128   -0.2035 O.co2     1 <0>        -0.7493
@<TRIPOS>BOND
     1    1    2 1
     2    1   27 1
     3    1   28 1
     4    1   29 1
     5    2   17 1
     6    2    3 am
     7    3    4 2
     8    3    5 1
     9    5    6 2
    10    5   16 1
    11    6    7 1
    12    6   30 1
    13    7   12 ar
    14    7    8 ar
    15    8    9 ar
    16    8   31 1
    17    9   10 ar
    18    9   32 1
    19   10   11 ar
    20   10   15 1
    21   11   12 ar
    22   11   13 1
    23   12   33 1
    24   13   14 1
    25   14   34 1
    26   14   35 1
    27   14   36 1
    28   15   37 1
    29   16   17 1
    30   17   18 2
    31   18   19 1
    32   19   24 ar
    33   19   20 ar
    34   20   21 ar
    35   20   38 1
    36   21   22 ar
    37   21   39 1
    38   22   23 ar
    39   22   40 1
    40   23   24 ar
    41   23   25 1
    42   24   41 1
    43   25   26 2
    44   25   42 1
@<TRIPOS>MOLECULE
ZINC13226258
   44    46     0     0     0
SMALL
USER_CHARGES
8-[[(2R)-2-(4-chlorophenoxy)propanoyl]amino]-3,4-dihydro-2H-1,5-benzodioxepine-7-carboxylic acid
@<TRIPOS>ATOM
      1 C1         -2.3882    4.5391    1.0397 C.3       1 <0>        -0.1706
      2 C2         -1.9650    4.2967   -0.4105 C.3       1 <0>         0.0650
      3 H1         -2.7893    3.8395   -0.9580 H         1 <0>         0.1090
      4 C3         -0.7718    3.3766   -0.4386 C.2       1 <0>         0.5091
      5 O1          0.2956    3.7802   -0.8493 O.2       1 <0>        -0.5087
      6 N1         -0.8908    2.1053   -0.0071 N.am      1 <0>        -0.6364
      7 C4          0.2371    1.2906    0.0810 C.ar      1 <0>         0.1892
      8 C5          1.4922    1.8572    0.2464 C.ar      1 <0>        -0.1471
      9 C6          2.6106    1.0445    0.3272 C.ar      1 <0>         0.0854
     10 C7          2.4838   -0.3397    0.2431 C.ar      1 <0>         0.0264
     11 C8          1.2431   -0.9170    0.0795 C.ar      1 <0>        -0.0490
     12 C9          0.1052   -0.1046   -0.0032 C.ar      1 <0>        -0.1395
     13 C10        -1.2237   -0.7112   -0.1781 C.2       1 <0>         0.5007
     14 O2         -2.1972   -0.0035   -0.3480 O.co2     1 <0>        -0.6336
     15 O3          3.5989   -1.1245    0.3234 O.3       1 <0>        -0.3165
     16 C11         4.2511   -1.1558    1.5944 C.3       1 <0>         0.0573
     17 C12         5.2044    0.0198    1.7406 C.3       1 <0>        -0.1846
     18 C13         4.4786    1.3560    1.7479 C.3       1 <0>         0.0601
     19 O4          3.8463    1.5971    0.4897 O.3       1 <0>        -0.3173
     20 O5         -1.6206    5.5421   -1.0208 O.3       1 <0>        -0.2792
     21 C14        -2.5973    6.1771   -1.7211 C.ar      1 <0>         0.1409
     22 C15        -3.8886    5.6703   -1.7276 C.ar      1 <0>        -0.2012
     23 C16        -4.8809    6.3197   -2.4361 C.ar      1 <0>        -0.0657
     24 C17        -4.5852    7.4692   -3.1474 C.ar      1 <0>        -0.0766
     25 C18        -3.2966    7.9733   -3.1463 C.ar      1 <0>        -0.0700
     26 C19        -2.3027    7.3296   -2.4348 C.ar      1 <0>        -0.1379
     27 Cl1        -5.8326    8.2801   -4.0418 Cl        1 <0>        -0.0758
     28 H2         -3.2512    5.2046    1.0599 H         1 <0>         0.0762
     29 H3         -2.6509    3.5891    1.5051 H         1 <0>         0.0855
     30 H4         -1.5639    4.9963    1.5871 H         1 <0>         0.0756
     31 H5         -1.7613    1.7572    0.2420 H         1 <0>         0.4292
     32 H6          1.5972    2.9301    0.3119 H         1 <0>         0.1535
     33 H7          1.1487   -1.9910    0.0150 H         1 <0>         0.1478
     34 H8          3.5009   -1.1097    2.3838 H         1 <0>         0.0558
     35 H9          4.8123   -2.0856    1.6868 H         1 <0>         0.0987
     36 H10         5.7565   -0.0873    2.6743 H         1 <0>         0.0848
     37 H11         5.9113    0.0065    0.9110 H         1 <0>         0.0807
     38 H12         3.7231    1.3494    2.5336 H         1 <0>         0.0554
     39 H13         5.1955    2.1524    1.9475 H         1 <0>         0.0988
     40 H14        -4.1189    4.7709   -1.1759 H         1 <0>         0.1429
     41 H15        -5.8872    5.9278   -2.4381 H         1 <0>         0.1370
     42 H16        -3.0678    8.8708   -3.7017 H         1 <0>         0.1394
     43 H17        -1.2972    7.7236   -2.4339 H         1 <0>         0.1422
     44 O6         -1.3617   -2.0517   -0.1500 O.co2     1 <0>        -0.7371
@<TRIPOS>BOND
     1    1    2 1
     2    1   28 1
     3    1   29 1
     4    1   30 1
     5    2    3 1
     6    2    4 1
     7    2   20 1
     8    4    5 2
     9    4    6 am
    10    6    7 1
    11    6   31 1
    12    7   12 ar
    13    7    8 ar
    14    8    9 ar
    15    8   32 1
    16    9   19 1
    17    9   10 ar
    18   10   11 ar
    19   10   15 1
    20   11   12 ar
    21   11   33 1
    22   12   13 1
    23   13   14 2
    24   13   44 1
    25   15   16 1
    26   16   17 1
    27   16   34 1
    28   16   35 1
    29   17   18 1
    30   17   36 1
    31   17   37 1
    32   18   19 1
    33   18   38 1
    34   18   39 1
    35   20   21 1
    36   21   26 ar
    37   21   22 ar
    38   22   23 ar
    39   22   40 1
    40   23   24 ar
    41   23   41 1
    42   24   25 ar
    43   24   27 1
    44   25   26 ar
    45   25   42 1
    46   26   43 1
@<TRIPOS>MOLECULE
ZINC09374961
   45    48     0     0     0
SMALL
USER_CHARGES
4-[(3-benzyloxyphenyl)methyleneamino]-5-(5-methyl-2H-pyrazol-3-yl)-1,2,4-triazole-3-thiol
@<TRIPOS>ATOM
      1 C1         -2.5740    1.3934    0.0357 C.3       1 <0>        -0.0708
      2 C2         -1.1489    1.8833    0.0262 C.2       1 <0>         0.0659
      3 C3         -0.0125    1.0758    0.0198 C.2       1 <0>        -0.2345
      4 C4          1.0901    1.9052    0.0118 C.2       1 <0>         0.1737
      5 N1          0.6258    3.1891    0.0068 N.pl3     1 <0>        -0.4818
      6 H1          1.3345    4.0302   -0.0075 H         1 <0>         0.4649
      7 N2         -0.7736    3.1371    0.0225 N.2       1 <0>        -0.2780
      8 C5          2.5014    1.4850    0.0036 C.2       1 <0>         0.1631
      9 N3          2.9585    0.2840   -0.2770 N.2       1 <0>        -0.2402
     10 N4          4.2403    0.2697   -0.1890 N.2       1 <0>        -0.3260
     11 C6          4.6851    1.4588    0.1529 C.2       1 <0>         0.3877
     12 N5          3.5953    2.2776    0.2828 N.pl3     1 <0>        -0.3677
     13 N6          3.5918    3.6350    0.6296 N.2       1 <0>        -0.2423
     14 C7          3.5140    3.9859    1.8763 C.2       1 <0>         0.1849
     15 C8          3.5103    5.4149    2.2415 C.ar      1 <0>        -0.0259
     16 C9          3.5961    6.3930    1.2473 C.ar      1 <0>        -0.1040
     17 C10         3.5879    7.7284    1.5925 C.ar      1 <0>        -0.0854
     18 C11         3.5051    8.1034    2.9212 C.ar      1 <0>        -0.1864
     19 C12         3.4244    7.1389    3.9166 C.ar      1 <0>         0.1227
     20 C13         3.4269    5.7954    3.5819 C.ar      1 <0>        -0.1090
     21 O1          3.3433    7.5138    5.2204 O.3       1 <0>        -0.3067
     22 C14         3.3457    8.9165    5.4935 C.3       1 <0>         0.0990
     23 C15         3.2503    9.1389    6.9809 C.ar      1 <0>        -0.0958
     24 C16         2.0122    9.2640    7.5830 C.ar      1 <0>        -0.0952
     25 C17         1.9244    9.4627    8.9482 C.ar      1 <0>        -0.1240
     26 C18         3.0750    9.5471    9.7097 C.ar      1 <0>        -0.1107
     27 C19         4.3132    9.4276    9.1068 C.ar      1 <0>        -0.1235
     28 C20         4.4008    9.2233    7.7425 C.ar      1 <0>        -0.0945
     29 S1          6.3700    1.9154    0.3925 S.3       1 <0>        -0.7774
     30 H2         -3.2579    2.2549    0.0392 H         1 <0>         0.0699
     31 H3         -2.7464    0.7847    0.9356 H         1 <0>         0.0775
     32 H4         -2.7578    0.7829   -0.8607 H         1 <0>         0.0783
     33 H5          0.0022   -0.0041    0.0208 H         1 <0>         0.1536
     34 H6          3.4509    3.2176    2.6609 H         1 <0>         0.1279
     35 H7          3.6654    6.1037    0.2091 H         1 <0>         0.1391
     36 H8          3.6505    8.4837    0.8231 H         1 <0>         0.1321
     37 H9          3.5038    9.1505    3.1855 H         1 <0>         0.1305
     38 H10         3.3648    5.0443    4.3554 H         1 <0>         0.1386
     39 H11         4.2776    9.3620    5.1153 H         1 <0>         0.0736
     40 H12         2.4855    9.3884    4.9963 H         1 <0>         0.0731
     41 H13         1.1134    9.2025    6.9873 H         1 <0>         0.1246
     42 H14         0.9571    9.5557    9.4193 H         1 <0>         0.1249
     43 H15         3.0065    9.7061   10.7757 H         1 <0>         0.1236
     44 H16         5.2121    9.4936    9.7018 H         1 <0>         0.1252
     45 H17         5.3682    9.1299    7.2715 H         1 <0>         0.1253
@<TRIPOS>BOND
     1    1    2 1
     2    1   30 1
     3    1   31 1
     4    1   32 1
     5    2    3 1
     6    2    7 2
     7    3   33 1
     8    3    4 2
     9    4    8 1
    10    4    5 1
    11    5    6 1
    12    5    7 1
    13    8   12 1
    14    8    9 2
    15    9   10 1
    16   10   11 2
    17   11   12 1
    18   11   29 1
    19   12   13 1
    20   13   14 2
    21   14   15 1
    22   14   34 1
    23   15   20 ar
    24   15   16 ar
    25   16   17 ar
    26   16   35 1
    27   17   18 ar
    28   17   36 1
    29   18   19 ar
    30   18   37 1
    31   19   20 ar
    32   19   21 1
    33   20   38 1
    34   21   22 1
    35   22   23 1
    36   22   39 1
    37   22   40 1
    38   23   28 ar
    39   23   24 ar
    40   24   25 ar
    41   24   41 1
    42   25   26 ar
    43   25   42 1
    44   26   27 ar
    45   26   43 1
    46   27   28 ar
    47   27   44 1
    48   28   45 1
@<TRIPOS>MOLECULE
ZINC41630724
   41    43     0     0     0
SMALL
USER_CHARGES

@<TRIPOS>ATOM
      1 C1         -0.0187    1.5258    0.0104 C.3       1 <0>        -0.1423
      2 C2          0.0021   -0.0041    0.0020 C.3       1 <0>        -0.0972
      3 H1         -1.0205   -0.3814    0.0098 H         1 <0>         0.1236
      4 C3          0.7309   -0.5033    1.2229 C.2       1 <0>         0.5333
      5 O1          1.9109   -0.7754    1.1557 O.2       1 <0>        -0.4474
      6 N1          0.0715   -0.6474    2.3895 N.am      1 <0>        -0.6108
      7 C4          0.7442   -1.1081    3.5162 C.2       1 <0>         0.2475
      8 N2          2.0114   -1.4474    3.6472 N.2       1 <0>        -0.3029
      9 N3          2.4839   -1.8528    4.7468 N.2       1 <0>        -0.2267
     10 C5          1.6879   -1.9394    5.7937 C.2       1 <0>         0.0274
     11 S1          0.1538   -1.3716    5.0732 S.3       1 <0>         0.0635
     12 C6          1.9878   -2.3852    7.2017 C.3       1 <0>         0.0075
     13 C7          2.4950   -3.8286    7.1825 C.3       1 <0>        -0.1436
     14 C8          3.0592   -1.4761    7.8071 C.3       1 <0>        -0.1436
     15 S2          0.8511   -0.5891   -1.4904 S.3       1 <0>         0.0301
     16 C9         -0.1893   -0.0568   -2.8091 C.ar      1 <0>         0.3495
     17 N4         -1.2990    0.6172   -2.5142 N.ar      1 <0>        -0.6459
     18 C10        -2.1194    1.0433   -3.4594 C.ar      1 <0>         0.4786
     19 O2         -3.2433    1.7274   -3.1451 O.3       1 <0>        -0.6673
     20 C11        -1.7922    0.7665   -4.8087 C.ar      1 <0>        -0.2333
     21 C12        -2.6050    1.1817   -5.8693 C.ar      1 <0>        -0.0271
     22 C13        -2.2405    0.8875   -7.1506 C.ar      1 <0>        -0.1897
     23 C14        -1.0720    0.1800   -7.4169 C.ar      1 <0>        -0.0816
     24 C15        -0.2586   -0.2391   -6.4061 C.ar      1 <0>        -0.1406
     25 C16        -0.6020    0.0466   -5.0777 C.ar      1 <0>         0.1984
     26 N5          0.1665   -0.3379   -4.0485 N.ar      1 <0>        -0.5887
     27 H2          1.0039    1.9031    0.0027 H         1 <0>         0.0650
     28 H3         -0.5459    1.8868   -0.8726 H         1 <0>         0.1067
     29 H4         -0.5289    1.8773    0.9072 H         1 <0>         0.0597
     30 H5         -0.8722   -0.4298    2.4432 H         1 <0>         0.4312
     31 H6          1.0801   -2.3270    7.8023 H         1 <0>         0.0969
     32 H7          3.4026   -3.8868    6.5818 H         1 <0>         0.0687
     33 H8          2.7119   -4.1510    8.2009 H         1 <0>         0.0707
     34 H9          1.7316   -4.4762    6.7512 H         1 <0>         0.0591
     35 H10         3.9669   -1.5344    7.2064 H         1 <0>         0.0687
     36 H11         2.6979   -0.4479    7.8208 H         1 <0>         0.0588
     37 H12         3.2762   -1.7986    8.8255 H         1 <0>         0.0707
     38 H13        -3.5145    1.7307   -5.6750 H         1 <0>         0.1228
     39 H14        -2.8675    1.2077   -7.9696 H         1 <0>         0.1122
     40 H15        -0.8056   -0.0407   -8.4400 H         1 <0>         0.1152
     41 H16         0.6452   -0.7873   -6.6277 H         1 <0>         0.1228
@<TRIPOS>BOND
     1    1    2 1
     2    1   27 1
     3    1   28 1
     4    1   29 1
     5    2    3 1
     6    2    4 1
     7    2   15 1
     8    4    5 2
     9    4    6 am
    10    6    7 1
    11    6   30 1
    12    7   11 1
    13    7    8 2
    14    8    9 1
    15    9   10 2
    16   10   11 1
    17   10   12 1
    18   12   13 1
    19   12   14 1
    20   12   31 1
    21   13   32 1
    22   13   33 1
    23   13   34 1
    24   14   35 1
    25   14   36 1
    26   14   37 1
    27   15   16 1
    28   16   26 ar
    29   16   17 ar
    30   17   18 ar
    31   18   19 1
    32   18   20 ar
    33   20   21 ar
    34   20   25 ar
    35   21   38 1
    36   21   22 ar
    37   22   39 1
    38   22   23 ar
    39   23   40 1
    40   23   24 ar
    41   24   41 1
    42   24   25 ar
    43   25   26 ar
@<TRIPOS>MOLECULE
ZINC63646833
   44    48     0     0     0
SMALL
USER_CHARGES

@<TRIPOS>ATOM
      1 C1         -0.0184    1.5028    0.0103 C.3       1 <0>        -0.1075
      2 C2          0.0021   -0.0041    0.0020 C.ar      1 <0>        -0.0941
      3 C3          0.0058   -0.6878   -1.2010 C.ar      1 <0>        -0.1433
      4 C4          0.0245   -2.0710   -1.2175 C.ar      1 <0>        -0.1210
      5 C5          0.0401   -2.7779   -0.0326 C.ar      1 <0>        -0.1126
      6 C6          0.0369   -2.0944    1.1841 C.ar      1 <0>         0.0561
      7 C7          0.0228   -0.6986    1.1936 C.ar      1 <0>        -0.1081
      8 C8          0.0535   -2.8454    2.4575 C.2       1 <0>         0.0992
      9 N1          0.0728   -4.2137    2.5997 N.2       1 <0>        -0.5450
     10 C9          0.0832   -4.4443    3.9457 C.2       1 <0>         0.0681
     11 N2          0.0706   -3.2727    4.5416 N.2       1 <0>        -0.3621
     12 N3          0.0584   -2.3324    3.6657 N.2       1 <0>        -0.3390
     13 S1          0.1083   -6.0188    4.7362 S.3       1 <0>        -0.0145
     14 C10         0.1127   -5.6212    6.5061 C.3       1 <0>        -0.0610
     15 C11         0.1339   -6.8972    7.3076 C.2       1 <0>         0.2244
     16 C12         1.2769   -7.3048    7.9325 C.2       1 <0>        -0.2630
     17 C13         1.2737   -8.4829    8.6865 C.2       1 <0>         0.5292
     18 O1          2.2957   -8.8564    9.2386 O.2       1 <0>        -0.5336
     19 N4          0.1247   -9.2167    8.8057 N.am      1 <0>        -0.3897
     20 C14        -0.9638   -8.7541    8.1128 C.2       1 <0>         0.3773
     21 N5         -0.9643   -7.6432    7.4222 N.2       1 <0>        -0.4718
     22 S2         -2.2249   -9.9852    8.3943 S.3       1 <0>        -0.0028
     23 C15        -1.1173  -11.2490    9.1556 C.3       1 <0>         0.1305
     24 H1         -0.7863  -11.9859    8.4238 H         1 <0>         0.1063
     25 N6         -0.0093  -10.3463    9.5633 N.3       1 <0>        -0.4542
     26 C16        -1.7738  -11.9190   10.3643 C.3       1 <0>        -0.1379
     27 C17        -1.6646  -13.4412   10.4741 C.3       1 <0>        -0.1632
     28 C18        -3.0016  -12.7947   10.1062 C.3       1 <0>        -0.1618
     29 H2          1.0042    1.8801    0.0026 H         1 <0>         0.0642
     30 H3         -0.5455    1.8639   -0.8728 H         1 <0>         0.0598
     31 H4         -0.5286    1.8543    0.9071 H         1 <0>         0.0633
     32 H5         -0.0064   -0.1393   -2.1313 H         1 <0>         0.1116
     33 H6          0.0265   -2.5987   -2.1598 H         1 <0>         0.1149
     34 H7          0.0543   -3.8577   -0.0468 H         1 <0>         0.1245
     35 H8          0.0245   -0.1637    2.1318 H         1 <0>         0.1254
     36 H9          0.9963   -5.0285    6.7431 H         1 <0>         0.1123
     37 H10        -0.7835   -5.0520    6.7529 H         1 <0>         0.1145
     38 H11         2.1806   -6.7200    7.8448 H         1 <0>         0.1713
     39 H12         0.8639  -10.8487    9.6209 H         1 <0>         0.3838
     40 H13        -1.7511  -11.3444   11.2903 H         1 <0>         0.1329
     41 H14        -1.1250  -13.9652    9.6852 H         1 <0>         0.0997
     42 H15        -1.5699  -13.8682   11.4725 H         1 <0>         0.1065
     43 H16        -3.7865  -12.7964   10.8626 H         1 <0>         0.1090
     44 H17        -3.3417  -12.8934    9.0753 H         1 <0>         0.1010
@<TRIPOS>BOND
     1    1    2 1
     2    1   29 1
     3    1   30 1
     4    1   31 1
     5    2    7 ar
     6    2    3 ar
     7    3    4 ar
     8    3   32 1
     9    4    5 ar
    10    4   33 1
    11    5    6 ar
    12    5   34 1
    13    6    7 ar
    14    6    8 1
    15    7   35 1
    16    8    9 1
    17    8   12 2
    18    9   10 1
    19   10   13 1
    20   10   11 2
    21   11   12 1
    22   13   14 1
    23   14   15 1
    24   14   36 1
    25   14   37 1
    26   15   21 1
    27   15   16 2
    28   16   17 1
    29   16   38 1
    30   17   18 2
    31   17   19 am
    32   19   25 1
    33   19   20 1
    34   20   21 2
    35   20   22 1
    36   22   23 1
    37   23   24 1
    38   23   25 1
    39   23   26 1
    40   25   39 1
    41   26   28 1
    42   26   27 1
    43   26   40 1
    44   27   28 1
    45   27   41 1
    46   27   42 1
    47   28   43 1
    48   28   44 1
@<TRIPOS>MOLECULE
ZINC03418774
   51    53     0     0     0
SMALL
USER_CHARGES
4-[5-ethoxycarbonyl-4-(4-methoxyphenyl)-6-methyl-2-oxo-3,4-dihydropyrimidin-1-yl]benzoic acid
@<TRIPOS>ATOM
      1 C1          1.1268    0.4262   -4.8005 C.3       1 <0>        -0.1519
      2 C2          1.7379    1.4520   -3.8438 C.3       1 <0>         0.0629
      3 O1          1.1572    1.2991   -2.5471 O.3       1 <0>        -0.3448
      4 C3          1.5904    2.1340   -1.5795 C.2       1 <0>         0.5385
      5 O2          2.4386    2.9692   -1.8315 O.2       1 <0>        -0.5186
      6 C4          1.0582    2.0382   -0.2718 C.2       1 <0>        -0.2973
      7 C5          1.3918    2.9308    0.6846 C.2       1 <0>         0.2743
      8 N1          0.8769    2.8365    1.9481 N.am      1 <0>        -0.4864
      9 C6          0.0234    1.8788    2.3319 C.2       1 <0>         0.7015
     10 O3         -0.3815    1.8769    3.4779 O.2       1 <0>        -0.5407
     11 N2         -0.4018    0.9173    1.4887 N.am      1 <0>        -0.7144
     12 C7          0.0950    0.9300    0.1026 C.3       1 <0>         0.2454
     13 H1          0.5896   -0.0229   -0.0857 H         1 <0>         0.0875
     14 C8         -1.0961    1.0199   -0.8161 C.ar      1 <0>        -0.1408
     15 C9         -2.1291    1.8912   -0.5237 C.ar      1 <0>        -0.0562
     16 C10        -3.2195    1.9795   -1.3673 C.ar      1 <0>        -0.2116
     17 C11        -3.2828    1.1848   -2.5027 C.ar      1 <0>         0.1294
     18 C12        -2.2477    0.3073   -2.7909 C.ar      1 <0>        -0.1565
     19 C13        -1.1568    0.2268   -1.9471 C.ar      1 <0>        -0.0363
     20 O4         -4.3568    1.2662   -3.3314 O.3       1 <0>        -0.3195
     21 C14        -5.3848    2.1915   -2.9722 C.3       1 <0>         0.0272
     22 C15         1.2623    3.7922    2.8901 C.ar      1 <0>         0.1003
     23 C16         0.4441    4.8892    3.1404 C.ar      1 <0>        -0.1102
     24 C17         0.8182    5.8305    4.0727 C.ar      1 <0>        -0.0685
     25 C18         2.0273    5.6892    4.7599 C.ar      1 <0>        -0.0920
     26 C19         2.8496    4.5885    4.5016 C.ar      1 <0>        -0.0777
     27 C20         2.4663    3.6482    3.5721 C.ar      1 <0>        -0.1152
     28 C21         2.4342    6.6985    5.7553 C.2       1 <0>         0.4871
     29 O5          3.4853    6.5739    6.3521 O.co2     1 <0>        -0.6263
     30 C22         2.3473    4.0486    0.3548 C.3       1 <0>        -0.1302
     31 H2          1.3251   -0.5795   -4.4299 H         1 <0>         0.0650
     32 H3          0.0502    0.5845   -4.8635 H         1 <0>         0.0670
     33 H4          1.5697    0.5429   -5.7896 H         1 <0>         0.0753
     34 H5          1.5395    2.4577   -4.2144 H         1 <0>         0.0640
     35 H6          2.8145    1.2938   -3.7808 H         1 <0>         0.0647
     36 H7         -1.0209    0.2330    1.7879 H         1 <0>         0.4311
     37 H8         -2.0814    2.5065    0.3626 H         1 <0>         0.1166
     38 H9         -4.0241    2.6635   -1.1408 H         1 <0>         0.1255
     39 H10        -2.2944   -0.3122   -3.6743 H         1 <0>         0.1287
     40 H11        -0.3509   -0.4565   -2.1708 H         1 <0>         0.1341
     41 H12        -5.7883    1.9250   -1.9953 H         1 <0>         0.0553
     42 H13        -4.9694    3.1984   -2.9314 H         1 <0>         0.0554
     43 H14        -6.1810    2.1567   -3.7159 H         1 <0>         0.0989
     44 H15        -0.4876    5.0002    2.6057 H         1 <0>         0.1192
     45 H16         0.1804    6.6796    4.2696 H         1 <0>         0.1403
     46 H17         3.7843    4.4759    5.0309 H         1 <0>         0.1372
     47 H18         3.1009    2.7974    3.3723 H         1 <0>         0.1215
     48 H19         1.9270    4.6626   -0.4417 H         1 <0>         0.1006
     49 H20         2.5076    4.6628    1.2409 H         1 <0>         0.0817
     50 H21         3.2982    3.6289    0.0267 H         1 <0>         0.1075
     51 O6          1.6404    7.7587    6.0030 O.co2     1 <0>        -0.7488
@<TRIPOS>BOND
     1    1    2 1
     2    1   31 1
     3    1   32 1
     4    1   33 1
     5    2    3 1
     6    2   34 1
     7    2   35 1
     8    3    4 1
     9    4    5 2
    10    4    6 1
    11    6   12 1
    12    6    7 2
    13    7    8 1
    14    7   30 1
    15    8    9 am
    16    8   22 1
    17    9   10 2
    18    9   11 am
    19   11   12 1
    20   11   36 1
    21   12   13 1
    22   12   14 1
    23   14   19 ar
    24   14   15 ar
    25   15   16 ar
    26   15   37 1
    27   16   17 ar
    28   16   38 1
    29   17   18 ar
    30   17   20 1
    31   18   19 ar
    32   18   39 1
    33   19   40 1
    34   20   21 1
    35   21   41 1
    36   21   42 1
    37   21   43 1
    38   22   27 ar
    39   22   23 ar
    40   23   24 ar
    41   23   44 1
    42   24   25 ar
    43   24   45 1
    44   25   26 ar
    45   25   28 1
    46   26   27 ar
    47   26   46 1
    48   27   47 1
    49   28   29 2
    50   28   51 1
    51   30   48 1
    52   30   49 1
    53   30   50 1
@<TRIPOS>MOLECULE
ZINC13354118
   44    46     0     0     0
SMALL
USER_CHARGES
2-[(1S)-2-[(2-chloro-4-nitro-phenyl)amino]-1-methyl-2-oxo-ethyl]sulfanyl-3-(4-fluorophenyl)imidazole-4-carboxylic acid
@<TRIPOS>ATOM
      1 C1          2.2012    7.6250   -1.2662 C.3       1 <0>        -0.1459
      2 C2          1.4325    7.7802    0.0475 C.3       1 <0>        -0.1058
      3 H1          2.0931    7.5523    0.8841 H         1 <0>         0.1291
      4 C3          0.9332    9.1966    0.1731 C.2       1 <0>         0.5447
      5 O1         -0.2197    9.4594   -0.0968 O.2       1 <0>        -0.4903
      6 N1          1.7678   10.1712    0.5853 N.am      1 <0>        -0.6654
      7 C4          1.3317   11.5011    0.6124 C.ar      1 <0>         0.2189
      8 C5          0.0122   11.7942    0.9303 C.ar      1 <0>        -0.1123
      9 C6         -0.4153   13.1073    0.9562 C.ar      1 <0>        -0.0257
     10 C7          0.4690   14.1303    0.6660 C.ar      1 <0>        -0.0548
     11 C8          1.7838   13.8427    0.3495 C.ar      1 <0>        -0.0247
     12 C9          2.2195   12.5311    0.3269 C.ar      1 <0>        -0.0726
     13 Cl1         3.8721   12.1708   -0.0642 Cl        1 <0>        -0.0283
     14 N2          0.0069   15.5362    0.6949 N.pl3     1 <0>         0.0321
     15 O2         -1.1509   15.7911    0.9740 O.2       1 <0>        -0.1535
     16 O3          0.7846   16.4382    0.4395 O.3       1 <0>        -0.1585
     17 S1          0.0259    6.6412    0.0618 S.3       1 <0>         0.0566
     18 C10         0.8801    5.1001    0.0572 C.2       1 <0>         0.1545
     19 N3          2.1903    4.9512    0.0466 N.2       1 <0>        -0.4874
     20 C11         2.5004    3.6575    0.0526 C.2       1 <0>         0.0178
     21 C12         1.3245    2.9366    0.0578 C.2       1 <0>        -0.0096
     22 N4          0.2944    3.8729    0.0645 N.pl3     1 <0>        -0.3706
     23 C13        -1.0812    3.6028    0.0769 C.ar      1 <0>         0.1271
     24 C14        -1.8714    3.9704   -1.0038 C.ar      1 <0>        -0.0769
     25 C15        -3.2255    3.6988   -0.9921 C.ar      1 <0>        -0.1484
     26 C16        -3.7970    3.0700    0.1014 C.ar      1 <0>         0.1048
     27 C17        -3.0113    2.7073    1.1826 C.ar      1 <0>        -0.1438
     28 C18        -1.6560    2.9725    1.1723 C.ar      1 <0>        -0.0219
     29 F1         -5.1226    2.8097    0.1134 F         1 <0>        -0.1407
     30 C19         1.1917    1.5259    0.0617 C.2       1 <0>         0.5088
     31 O4          2.1839    0.8214    0.0548 O.co2     1 <0>        -0.6178
     32 H2          3.0482    8.3110   -1.2748 H         1 <0>         0.0664
     33 H3          2.5623    6.6006   -1.3571 H         1 <0>         0.1036
     34 H4          1.5406    7.8529   -2.1028 H         1 <0>         0.0692
     35 H5          2.6708    9.9512    0.8632 H         1 <0>         0.4237
     36 H6         -0.6792   10.9962    1.1574 H         1 <0>         0.1749
     37 H7         -1.4414   13.3356    1.2038 H         1 <0>         0.1654
     38 H8          2.4720   14.6438    0.1237 H         1 <0>         0.1679
     39 H9          3.4982    3.2442    0.0508 H         1 <0>         0.1828
     40 H10        -1.4270    4.4652   -1.8548 H         1 <0>         0.1348
     41 H11        -3.8399    3.9809   -1.8343 H         1 <0>         0.1404
     42 H12        -3.4588    2.2170    2.0345 H         1 <0>         0.1403
     43 H13        -1.0437    2.6901    2.0159 H         1 <0>         0.1339
     44 O5         -0.0351    0.9636    0.0730 O.co2     1 <0>        -0.7429
@<TRIPOS>BOND
     1    1    2 1
     2    1   32 1
     3    1   33 1
     4    1   34 1
     5    2    3 1
     6    2    4 1
     7    2   17 1
     8    4    5 2
     9    4    6 am
    10    6    7 1
    11    6   35 1
    12    7   12 ar
    13    7    8 ar
    14    8    9 ar
    15    8   36 1
    16    9   10 ar
    17    9   37 1
    18   10   11 ar
    19   10   14 1
    20   11   12 ar
    21   11   38 1
    22   12   13 1
    23   14   15 2
    24   14   16 1
    25   17   18 1
    26   18   22 1
    27   18   19 2
    28   19   20 1
    29   20   21 2
    30   20   39 1
    31   21   22 1
    32   21   30 1
    33   22   23 1
    34   23   28 ar
    35   23   24 ar
    36   24   25 ar
    37   24   40 1
    38   25   26 ar
    39   25   41 1
    40   26   27 ar
    41   26   29 1
    42   27   28 ar
    43   27   42 1
    44   28   43 1
    45   30   31 2
    46   30   44 1
@<TRIPOS>MOLECULE
ZINC32538782
   38    39     0     0     0
SMALL
USER_CHARGES
4-bromo-N-[(3-ethoxy-4-hydroxy-5-nitro-phenyl)methyleneamino]benzamide
@<TRIPOS>ATOM
      1 C1          7.2789   -3.0390    0.0606 C.3       1 <0>        -0.1514
      2 C2          6.0111   -2.1826    0.0747 C.3       1 <0>         0.0496
      3 O1          4.8622   -3.0324    0.0790 O.3       1 <0>        -0.2934
      4 C3          3.6453   -2.4253    0.0914 C.ar      1 <0>         0.0328
      5 C4          3.5614   -1.0456    0.0991 C.ar      1 <0>        -0.1289
      6 C5          2.3094   -0.4253    0.1118 C.ar      1 <0>        -0.2005
      7 C6          1.1485   -1.2028    0.1225 C.ar      1 <0>        -0.0430
      8 C7          1.2402   -2.5786    0.1088 C.ar      1 <0>        -0.1879
      9 C8          2.4835   -3.1941    0.0967 C.ar      1 <0>         0.3164
     10 O2          2.5683   -4.5508    0.0894 O.3       1 <0>        -0.5992
     11 N1          0.0093   -3.4007    0.1134 N.pl3     1 <0>         0.0689
     12 O3         -1.0813   -2.8647    0.0322 O.2       1 <0>        -0.2543
     13 O4          0.0872   -4.6133    0.1985 O.3       1 <0>        -0.1588
     14 C9          2.2137    1.0457    0.1201 C.2       1 <0>         0.1457
     15 N2          1.1129    1.6266   -0.2488 N.2       1 <0>        -0.2588
     16 N3          0.1552    0.9125   -0.9806 N.am      1 <0>        -0.5913
     17 C10        -1.0496    1.4624   -1.2306 C.2       1 <0>         0.5728
     18 O5         -1.2735    2.6115   -0.9017 O.2       1 <0>        -0.5138
     19 C11        -2.0983    0.6691   -1.9043 C.ar      1 <0>        -0.1161
     20 C12        -1.8780   -0.6780   -2.1983 C.ar      1 <0>        -0.0641
     21 C13        -2.8633   -1.4148   -2.8212 C.ar      1 <0>        -0.0856
     22 C14        -4.0643   -0.8181   -3.1666 C.ar      1 <0>        -0.0669
     23 C15        -4.2864    0.5191   -2.8832 C.ar      1 <0>        -0.1017
     24 C16        -3.3115    1.2649   -2.2547 C.ar      1 <0>        -0.0545
     25 Br1        -5.4068   -1.8336   -4.0282 Br        1 <0>        -0.0479
     26 H1          8.1632   -2.3848    0.0573 H         1 <0>         0.0730
     27 H2          7.2856   -3.6692   -0.8409 H         1 <0>         0.0651
     28 H3          7.2993   -3.6786    0.9553 H         1 <0>         0.0654
     29 H4          6.0044   -1.5524    0.9762 H         1 <0>         0.0564
     30 H5          5.9907   -1.5430   -0.8200 H         1 <0>         0.0559
     31 H6          4.4613   -0.4485    0.0950 H         1 <0>         0.1274
     32 H7          0.1794   -0.7262    0.1372 H         1 <0>         0.1379
     33 H8          3.0750    1.6511    0.4389 H         1 <0>         0.1822
     34 H9          0.3866   -0.0970   -1.3512 H         1 <0>         0.4107
     35 H10        -0.9399   -1.1433   -1.9338 H         1 <0>         0.1311
     36 H11        -2.6963   -2.4583   -3.0442 H         1 <0>         0.1419
     37 H12        -5.2253    0.9787   -3.1547 H         1 <0>         0.1394
     38 H13        -3.4862    2.3075   -2.0335 H         1 <0>         0.1455
@<TRIPOS>BOND
     1    1    2 1
     2    1   26 1
     3    1   27 1
     4    1   28 1
     5    2    3 1
     6    2   29 1
     7    2   30 1
     8    3    4 1
     9    4    9 ar
    10    4    5 ar
    11    5    6 ar
    12    5   31 1
    13    6    7 ar
    14    6   14 1
    15    7    8 ar
    16    7   32 1
    17    8    9 ar
    18    8   11 1
    19    9   10 1
    20   11   12 2
    21   11   13 1
    22   14   15 2
    23   14   33 1
    24   15   16 1
    25   16   17 am
    26   16   34 1
    27   17   18 2
    28   17   19 1
    29   19   24 ar
    30   19   20 ar
    31   20   21 ar
    32   20   35 1
    33   21   22 ar
    34   21   36 1
    35   22   23 ar
    36   22   25 1
    37   23   24 ar
    38   23   37 1
    39   24   38 1
@<TRIPOS>MOLECULE
ZINC39690558
   49    52     0     0     0
SMALL
USER_CHARGES

@<TRIPOS>ATOM
      1 C1         -0.9876    0.1555   -0.0654 C.3       1 <0>        -0.1453
      2 C2         -0.8208   -1.3553    0.1098 C.3       1 <0>         0.0771
      3 H1         -1.7931   -1.8221    0.2674 H         1 <0>         0.1504
      4 C3         -0.1537   -1.9476   -1.1110 C.2       1 <0>         0.0170
      5 C4          1.0014   -2.5071   -0.6808 C.2       1 <0>        -0.3297
      6 C5          1.1150   -2.3025    0.7783 C.2       1 <0>         0.4663
      7 N1          2.1863   -2.7841    1.3825 N.2       1 <0>        -0.5900
      8 C6          3.1332   -3.4295    0.7182 C.2       1 <0>         0.4585
      9 N2          3.1214   -3.6586   -0.5702 N.2       1 <0>        -0.6106
     10 C7          2.1064   -3.2402   -1.3491 C.2       1 <0>         0.5447
     11 O1          2.0947   -3.4535   -2.5479 O.2       1 <0>        -0.3946
     12 C8          4.3135   -3.9378    1.5054 C.3       1 <0>        -0.0673
     13 S1          5.4676   -4.7808    0.3882 S.3       1 <0>         0.1516
     14 C9          6.7744   -5.3097    1.4451 C.2       1 <0>         0.0348
     15 N3          6.9113   -5.1533    2.7481 N.2       1 <0>        -0.2883
     16 N4          8.0248   -5.6519    3.3838 N.2       1 <0>        -0.3509
     17 C10         8.9500   -6.2836    2.6881 C.2       1 <0>         0.3239
     18 S2          8.2645   -6.2078    1.0404 S.3       1 <0>         0.0092
     19 N5         10.1391   -6.8591    3.1221 N.pl3     1 <0>        -0.6091
     20 C11        10.4277   -6.9208    4.4876 C.ar      1 <0>         0.1575
     21 C12        11.7477   -6.9636    4.9191 C.ar      1 <0>        -0.1476
     22 C13        12.0294   -7.0241    6.2696 C.ar      1 <0>        -0.0924
     23 C14        10.9994   -7.0421    7.1923 C.ar      1 <0>        -0.0967
     24 C15         9.6844   -6.9997    6.7664 C.ar      1 <0>        -0.0848
     25 C16         9.3956   -6.9337    5.4176 C.ar      1 <0>        -0.1285
     26 C17        11.3107   -7.1087    8.6653 C.3       1 <0>        -0.0540
     27 C18        10.7347   -5.8758    9.3646 C.3       1 <0>        -0.1460
     28 C19        10.6864   -8.3717    9.2619 C.3       1 <0>        -0.1452
     29 O2          0.0393   -1.6277    1.2203 O.3       1 <0>        -0.2513
     30 C20        -0.6639   -1.9209   -2.5037 C.2       1 <0>         0.5215
     31 O3         -0.0185   -2.4419   -3.4007 O.co2     1 <0>        -0.6041
     32 O4         -1.7293   -1.3780   -2.7536 O.co2     1 <0>        -0.6592
     33 H2         -0.0097    0.6147   -0.2098 H         1 <0>         0.0646
     34 H3         -1.6140    0.3534   -0.9352 H         1 <0>         0.1095
     35 H4         -1.4581    0.5747    0.8241 H         1 <0>         0.0785
     36 H5          4.8188   -3.0994    1.9847 H         1 <0>         0.1330
     37 H6          3.9683   -4.6374    2.2666 H         1 <0>         0.1332
     38 H7         10.7682   -7.2176    2.4767 H         1 <0>         0.4287
     39 H8         12.5525   -6.9500    4.1990 H         1 <0>         0.1260
     40 H9         13.0552   -7.0578    6.6057 H         1 <0>         0.1257
     41 H10         8.8824   -7.0142    7.4896 H         1 <0>         0.1254
     42 H11         8.3685   -6.8961    5.0858 H         1 <0>         0.1420
     43 H12        12.3911   -7.1355    8.8075 H         1 <0>         0.0760
     44 H13        11.1795   -4.9760    8.9395 H         1 <0>         0.0561
     45 H14         9.6544   -5.8491    9.2224 H         1 <0>         0.0579
     46 H15        10.9599   -5.9240   10.4300 H         1 <0>         0.0569
     47 H16        11.0968   -9.2501    8.7638 H         1 <0>         0.0554
     48 H17        10.9116   -8.4199   10.3273 H         1 <0>         0.0569
     49 H18         9.6061   -8.3450    9.1198 H         1 <0>         0.0573
@<TRIPOS>BOND
     1    1    2 1
     2    1   33 1
     3    1   34 1
     4    1   35 1
     5    2    3 1
     6    2   29 1
     7    2    4 1
     8    4    5 2
     9    4   30 1
    10    5   10 1
    11    5    6 1
    12    6    7 2
    13    6   29 1
    14    7    8 1
    15    8    9 2
    16    8   12 1
    17    9   10 1
    18   10   11 2
    19   12   13 1
    20   12   36 1
    21   12   37 1
    22   13   14 1
    23   14   18 1
    24   14   15 2
    25   15   16 1
    26   16   17 2
    27   17   18 1
    28   17   19 1
    29   19   20 1
    30   19   38 1
    31   20   25 ar
    32   20   21 ar
    33   21   22 ar
    34   21   39 1
    35   22   23 ar
    36   22   40 1
    37   23   24 ar
    38   23   26 1
    39   24   25 ar
    40   24   41 1
    41   25   42 1
    42   26   27 1
    43   26   28 1
    44   26   43 1
    45   27   44 1
    46   27   45 1
    47   27   46 1
    48   28   47 1
    49   28   48 1
    50   28   49 1
    51   30   31 2
    52   30   32 1
@<TRIPOS>MOLECULE
ZINC13363527
   44    47     0     0     0
SMALL
USER_CHARGES

@<TRIPOS>ATOM
      1 C1         -0.0184    1.5028    0.0103 C.3       1 <0>        -0.1216
      2 C2          0.0021   -0.0041    0.0020 C.ar      1 <0>        -0.0616
      3 C3          0.0057   -0.6863   -1.2020 C.ar      1 <0>        -0.1173
      4 C4          0.0249   -2.0653   -1.2168 C.ar      1 <0>        -0.0838
      5 C5          0.0406   -2.7731   -0.0133 C.ar      1 <0>        -0.0266
      6 C6          0.0368   -2.0787    1.1977 C.ar      1 <0>        -0.0636
      7 C7          0.0229   -0.6990    1.1980 C.ar      1 <0>        -0.0888
      8 C8          0.0245    0.0525    2.5043 C.3       1 <0>        -0.1170
      9 C9          0.0606   -4.2504   -0.0214 C.2       1 <0>         0.2097
     10 N1          0.0708   -5.0320    1.0307 N.2       1 <0>        -0.2651
     11 N2          0.0868   -6.2610    0.6504 N.2       1 <0>        -0.2946
     12 C10         0.0875   -6.3124   -0.6618 C.2       1 <0>         0.1189
     13 O1          0.0659   -5.0445   -1.1150 O.3       1 <0>        -0.1967
     14 S1          0.1066   -7.7722   -1.6482 S.3       1 <0>         0.1759
     15 C11         0.1235   -9.1211   -0.4354 C.3       1 <0>        -0.0849
     16 C12         0.1407  -10.4445   -1.1562 C.2       1 <0>         0.3851
     17 N3          0.1495  -11.5889   -0.4299 N.am      1 <0>        -0.6313
     18 H1          0.1449  -11.5369    0.5386 H         1 <0>         0.4175
     19 C13         0.1641  -12.7974   -1.0255 C.2       1 <0>         0.5610
     20 O2          0.1711  -13.8200   -0.3639 O.2       1 <0>        -0.5104
     21 C14         0.1709  -12.8500   -2.5061 C.2       1 <0>        -0.2108
     22 C15         0.1851  -13.9633   -3.3464 C.2       1 <0>        -0.0617
     23 C16         0.1886  -13.7839   -4.7114 C.2       1 <0>        -0.1589
     24 S2          0.1719  -12.0066   -4.8740 S.3       1 <0>         0.1962
     25 C17         0.1610  -11.5900   -3.1485 C.2       1 <0>         0.0371
     26 N4          0.1413  -10.4549   -2.4615 N.2       1 <0>        -0.4625
     27 C18         0.2030  -14.7667   -5.7338 C.2       1 <0>         0.5518
     28 O3          0.2142  -15.9559   -5.4402 O.co2     1 <0>        -0.6543
     29 O4          0.2041  -14.4264   -6.9106 O.co2     1 <0>        -0.6755
     30 C19         0.1969  -15.3531   -2.7640 C.3       1 <0>        -0.1031
     31 H2          1.0042    1.8801    0.0026 H         1 <0>         0.0759
     32 H3         -0.5455    1.8639   -0.8728 H         1 <0>         0.0705
     33 H4         -0.5286    1.8543    0.9071 H         1 <0>         0.0727
     34 H5         -0.0068   -0.1376   -2.1322 H         1 <0>         0.1335
     35 H6          0.0273   -2.5965   -2.1571 H         1 <0>         0.1336
     36 H7          0.0485   -2.6201    2.1321 H         1 <0>         0.1397
     37 H8         -1.0026    0.2194    2.8287 H         1 <0>         0.0742
     38 H9          0.5535   -0.5304    3.2582 H         1 <0>         0.0705
     39 H10         0.5238    1.0122    2.3707 H         1 <0>         0.0720
     40 H11         1.0122   -9.0364    0.1899 H         1 <0>         0.1352
     41 H12        -0.7676   -9.0592    0.1893 H         1 <0>         0.1350
     42 H13        -0.8279  -15.6985   -2.6273 H         1 <0>         0.0621
     43 H14         0.7200  -16.0270   -3.4426 H         1 <0>         0.0981
     44 H15         0.7071  -15.3392   -1.8009 H         1 <0>         0.0639
@<TRIPOS>BOND
     1    1    2 1
     2    1   31 1
     3    1   32 1
     4    1   33 1
     5    2    7 ar
     6    2    3 ar
     7    3    4 ar
     8    3   34 1
     9    4    5 ar
    10    4   35 1
    11    5    6 ar
    12    5    9 1
    13    6    7 ar
    14    6   36 1
    15    7    8 1
    16    8   37 1
    17    8   38 1
    18    8   39 1
    19    9   13 1
    20    9   10 2
    21   10   11 1
    22   11   12 2
    23   12   13 1
    24   12   14 1
    25   14   15 1
    26   15   16 1
    27   15   40 1
    28   15   41 1
    29   16   26 2
    30   16   17 1
    31   17   18 1
    32   17   19 am
    33   19   20 2
    34   19   21 1
    35   21   25 2
    36   21   22 1
    37   22   23 2
    38   22   30 1
    39   23   24 1
    40   23   27 1
    41   24   25 1
    42   25   26 1
    43   27   28 2
    44   27   29 1
    45   30   42 1
    46   30   43 1
    47   30   44 1
@<TRIPOS>MOLECULE
ZINC02272188
   31    32     0     0     0
SMALL
USER_CHARGES
2-[(5-bromo-2-furyl)carbonylamino]-3-(3-nitrophenyl)-prop-2-enoic acid
@<TRIPOS>ATOM
      1 C1          1.2759   -2.4538    0.7052 C.ar      1 <0>        -0.1115
      2 C2          1.2867   -1.0765    0.6375 C.ar      1 <0>        -0.0743
      3 C3          2.4230   -0.4123    0.1643 C.ar      1 <0>        -0.0266
      4 C4          3.5385   -1.1526   -0.2418 C.ar      1 <0>        -0.0512
      5 C5          3.5136   -2.5287   -0.1634 C.ar      1 <0>        -0.0409
      6 C6          2.3853   -3.1786    0.3065 C.ar      1 <0>        -0.0690
      7 N1          4.6944   -3.3137   -0.5881 N.pl3     1 <0>         0.0310
      8 O1          4.6725   -4.5298   -0.5239 O.2       1 <0>        -0.1677
      9 O2          5.6881   -2.7435   -1.0018 O.3       1 <0>        -0.1604
     10 C7          2.4428    1.0565    0.0883 C.2       1 <0>        -0.1354
     11 C8          1.2866    1.7415   -0.0741 C.2       1 <0>         0.1181
     12 C9          1.2844    3.2081    0.0063 C.2       1 <0>         0.4898
     13 O3          0.2710    3.8294   -0.2490 O.co2     1 <0>        -0.6058
     14 N2          0.0947    1.0531   -0.3185 N.am      1 <0>        -0.6631
     15 C10        -0.9753    1.2553    0.4756 C.2       1 <0>         0.5948
     16 O4         -0.9261    2.0871    1.3631 O.2       1 <0>        -0.4624
     17 C11        -2.1978    0.4740    0.2708 C.2       1 <0>        -0.0397
     18 C12        -3.3484    0.5779    1.0001 C.2       1 <0>        -0.1217
     19 C13        -4.2523   -0.3505    0.4626 C.2       1 <0>        -0.1597
     20 C14        -3.6222   -0.9740   -0.5597 C.2       1 <0>        -0.0124
     21 O5         -2.3863   -0.4702   -0.6750 O.3       1 <0>        -0.1482
     22 Br1        -4.3660   -2.3279   -1.6504 Br        1 <0>         0.0571
     23 H1          0.3991   -2.9682    1.0700 H         1 <0>         0.1446
     24 H2          0.4200   -0.5122    0.9486 H         1 <0>         0.1418
     25 H3          4.4180   -0.6471   -0.6124 H         1 <0>         0.1574
     26 H4          2.3706   -4.2570    0.3620 H         1 <0>         0.1498
     27 H5          3.3798    1.5884    0.1622 H         1 <0>         0.1595
     28 H6          0.0365    0.4328   -1.0620 H         1 <0>         0.4057
     29 H7         -3.5275    1.2456    1.8298 H         1 <0>         0.1723
     30 H8         -5.2616   -0.5330    0.8009 H         1 <0>         0.1682
     31 O6          2.4065    3.8656    0.3634 O.co2     1 <0>        -0.7402
@<TRIPOS>BOND
     1    1    6 ar
     2    1    2 ar
     3    1   23 1
     4    2    3 ar
     5    2   24 1
     6    3    4 ar
     7    3   10 1
     8    4    5 ar
     9    4   25 1
    10    5    6 ar
    11    5    7 1
    12    6   26 1
    13    7    8 2
    14    7    9 1
    15   10   11 2
    16   10   27 1
    17   11   12 1
    18   11   14 1
    19   12   13 2
    20   12   31 1
    21   14   15 am
    22   14   28 1
    23   15   16 2
    24   15   17 1
    25   17   21 1
    26   17   18 2
    27   18   19 1
    28   18   29 1
    29   19   20 2
    30   19   30 1
    31   20   21 1
    32   20   22 1
@<TRIPOS>MOLECULE
ZINC13279359
   46    48     0     0     0
SMALL
USER_CHARGES
5-[[(R)-(4-chlorophenyl)-(1-methylimidazol-2-yl)methyl]-methyl-sulfamoyl]-2-hydroxy-benzoic acid
@<TRIPOS>ATOM
      1 C1         -0.5994   -3.5145    1.9692 C.3       1 <0>         0.0605
      2 N1          0.3288   -2.6029    2.6427 N.pl3     1 <0>        -0.4504
      3 C2          0.3560   -2.3135    3.9803 C.2       1 <0>        -0.0538
      4 C3          1.3595   -1.4354    4.1687 C.2       1 <0>        -0.0268
      5 N2          1.9295   -1.1952    2.9786 N.2       1 <0>        -0.4700
      6 C4          1.3173   -1.8910    2.0599 C.2       1 <0>         0.2017
      7 C5          1.6569   -1.8985    0.5917 C.3       1 <0>         0.2835
      8 H1          1.1109   -2.7015    0.0965 H         1 <0>         0.1162
      9 C6          1.2704   -0.5766   -0.0201 C.ar      1 <0>        -0.0962
     10 C7          1.8283    0.5949    0.4568 C.ar      1 <0>        -0.0740
     11 C8          1.4785    1.8071   -0.1077 C.ar      1 <0>        -0.1130
     12 C9          0.5613    1.8489   -1.1426 C.ar      1 <0>        -0.0249
     13 C10        -0.0009    0.6766   -1.6157 C.ar      1 <0>        -0.1121
     14 C11         0.3539   -0.5355   -1.0542 C.ar      1 <0>        -0.0929
     15 Cl1         0.1165    3.3716   -1.8477 Cl        1 <0>        -0.0723
     16 N3          3.0967   -2.1116    0.4245 N.pl3     1 <0>        -0.9821
     17 C12         4.0497   -1.1587    0.9989 C.3       1 <0>         0.0629
     18 S1          3.6468   -3.4296   -0.4136 S.o2      1 <0>         2.6921
     19 O1          4.9670   -3.6821    0.0474 O.2       1 <0>        -0.9446
     20 O2          2.6183   -4.4082   -0.3523 O.2       1 <0>        -0.9671
     21 C13         3.7865   -2.9511   -2.1037 C.ar      1 <0>        -0.7057
     22 C14         2.7097   -3.1195   -2.9593 C.ar      1 <0>        -0.0123
     23 C15         2.8049   -2.7441   -4.2844 C.ar      1 <0>        -0.1836
     24 C16         3.9863   -2.2042   -4.7711 C.ar      1 <0>         0.1978
     25 C17         5.0800   -2.0370   -3.9100 C.ar      1 <0>        -0.1609
     26 C18         4.9677   -2.4166   -2.5695 C.ar      1 <0>         0.0411
     27 C19         6.3405   -1.4639   -4.4151 C.2       1 <0>         0.4890
     28 O3          6.4342   -1.1352   -5.5812 O.co2     1 <0>        -0.6125
     29 O4          4.0832   -1.8401   -6.0741 O.3       1 <0>        -0.4747
     30 H2         -1.4821   -2.9619    1.6474 H         1 <0>         0.0804
     31 H3         -0.1099   -3.9551    1.1007 H         1 <0>         0.0953
     32 H4         -0.8968   -4.3048    2.6585 H         1 <0>         0.0897
     33 H5         -0.3036   -2.7097    4.7383 H         1 <0>         0.1751
     34 H6          1.6538   -1.0009    5.1126 H         1 <0>         0.1714
     35 H7          2.5409    0.5625    1.2677 H         1 <0>         0.1531
     36 H8          1.9177    2.7218    0.2621 H         1 <0>         0.1353
     37 H9         -0.7172    0.7086   -2.4234 H         1 <0>         0.1349
     38 H10        -0.0852   -1.4506   -1.4232 H         1 <0>         0.1324
     39 H11         3.8503   -1.0429    2.0642 H         1 <0>         0.1000
     40 H12         5.0647   -1.5301    0.8575 H         1 <0>         0.0893
     41 H13         3.9433   -0.1943    0.5023 H         1 <0>         0.0660
     42 H14         1.7890   -3.5432   -2.5863 H         1 <0>         0.1331
     43 H15         1.9599   -2.8751   -4.9441 H         1 <0>         0.1330
     44 H16         5.8058   -2.2913   -1.8999 H         1 <0>         0.1507
     45 H17         4.3967   -2.5449   -6.6572 H         1 <0>         0.3947
     46 O5          7.3891   -1.3046   -3.5839 O.co2     1 <0>        -0.7492
@<TRIPOS>BOND
     1    1    2 1
     2    1   30 1
     3    1   31 1
     4    1   32 1
     5    2    6 1
     6    2    3 1
     7    3    4 2
     8    3   33 1
     9    4    5 1
    10    4   34 1
    11    5    6 2
    12    6    7 1
    13    7    8 1
    14    7    9 1
    15    7   16 1
    16    9   14 ar
    17    9   10 ar
    18   10   11 ar
    19   10   35 1
    20   11   12 ar
    21   11   36 1
    22   12   13 ar
    23   12   15 1
    24   13   14 ar
    25   13   37 1
    26   14   38 1
    27   16   17 1
    28   16   18 1
    29   17   39 1
    30   17   40 1
    31   17   41 1
    32   18   19 2
    33   18   20 2
    34   18   21 1
    35   21   26 ar
    36   21   22 ar
    37   22   23 ar
    38   22   42 1
    39   23   24 ar
    40   23   43 1
    41   24   25 ar
    42   24   29 1
    43   25   26 ar
    44   25   27 1
    45   26   44 1
    46   27   28 2
    47   27   46 1
    48   29   45 1
@<TRIPOS>MOLECULE
ZINC35678978
   28    29     0     0     0
SMALL
USER_CHARGES

@<TRIPOS>ATOM
      1 C1         -0.0167    1.3837    0.0096 C.ar      1 <0>        -0.0452
      2 C2          1.1900    2.0608    0.0018 C.ar      1 <0>        -0.1994
      3 C3          2.3746    1.3325   -0.0135 C.ar      1 <0>         0.4504
      4 N1          2.3520    0.0083   -0.0208 N.ar      1 <0>        -0.5748
      5 C4          1.2160   -0.6643   -0.0136 C.ar      1 <0>         0.1849
      6 C5          0.0021   -0.0041    0.0020 C.ar      1 <0>        -0.2413
      7 Br1         1.2505   -2.5549   -0.0247 Br        1 <0>        -0.0525
      8 N2          3.5937    2.0004   -0.0215 N.2       1 <0>        -1.0679
      9 S1          5.0088    1.1406   -0.0396 S.o2      1 <0>         2.6234
     10 O1          5.0818    0.4523    1.2014 O.2       1 <0>        -1.0032
     11 O2          5.0580    0.4657   -1.2892 O.2       1 <0>        -1.0048
     12 C6          6.3280    2.3087   -0.0460 C.ar      1 <0>        -0.6353
     13 C7          6.8295    2.7770   -1.2466 C.ar      1 <0>         0.0412
     14 C8          7.8636    3.6926   -1.2542 C.ar      1 <0>        -0.1699
     15 C9          8.3989    4.1429   -0.0559 C.ar      1 <0>         0.2113
     16 C10         7.8938    3.6719    1.1471 C.ar      1 <0>        -0.1057
     17 C11         6.8561    2.7597    1.1494 C.ar      1 <0>         0.0562
     18 N3          8.4628    4.1497    2.4271 N.pl3     1 <0>         0.0418
     19 O3          8.0221    3.7389    3.4753 O.2       1 <0>        -0.1658
     20 O4          9.3683    4.9508    2.4245 O.3       1 <0>        -0.1470
     21 O5          9.4167    5.0434   -0.0608 O.3       1 <0>        -0.4746
     22 H1         -0.9523    1.9230    0.0259 H         1 <0>         0.1273
     23 H2          1.2115    3.1406    0.0070 H         1 <0>         0.1289
     24 H3         -0.9225   -0.5623    0.0078 H         1 <0>         0.1247
     25 H4          6.4126    2.4262   -2.1790 H         1 <0>         0.1616
     26 H5          8.2555    4.0576   -2.1921 H         1 <0>         0.1586
     27 H6          6.4600    2.3955    2.0858 H         1 <0>         0.1701
     28 H7          9.1260    5.9656   -0.0493 H         1 <0>         0.4069
@<TRIPOS>BOND
     1    1    6 ar
     2    1    2 ar
     3    1   22 1
     4    2    3 ar
     5    2   23 1
     6    3    4 ar
     7    3    8 1
     8    4    5 ar
     9    5    6 ar
    10    5    7 1
    11    6   24 1
    12    8    9 1
    13    9   10 2
    14    9   11 2
    15    9   12 1
    16   12   17 ar
    17   12   13 ar
    18   13   14 ar
    19   13   25 1
    20   14   15 ar
    21   14   26 1
    22   15   16 ar
    23   15   21 1
    24   16   17 ar
    25   16   18 1
    26   17   27 1
    27   18   19 2
    28   18   20 1
    29   21   28 1
@<TRIPOS>MOLECULE
ZINC55651687
   38    39     0     0     0
SMALL
USER_CHARGES

@<TRIPOS>ATOM
      1 C1         -0.1302    1.4990    0.0194 C.3       1 <0>        -0.1760
      2 C2         -0.0514   -0.0059    0.0064 C.ar      1 <0>         0.0967
      3 C3         -0.0986   -0.6902   -1.1940 C.ar      1 <0>        -0.0765
      4 C4         -0.0264   -2.0704   -1.2060 C.ar      1 <0>        -0.0207
      5 C5          0.0935   -2.7667   -0.0176 C.ar      1 <0>        -0.1488
      6 C6          0.1416   -2.0825    1.1824 C.ar      1 <0>         0.0178
      7 C7          0.0736   -0.7016    1.1940 C.ar      1 <0>        -0.6219
      8 S1          0.1410    0.1709    2.7233 S.o2      1 <0>         2.5938
      9 O1         -0.9385    1.0948    2.7117 O.2       1 <0>        -1.0150
     10 O2          0.2957   -0.8072    3.7425 O.2       1 <0>        -1.0187
     11 N1          1.5325    1.0687    2.7139 N.2       1 <0>        -1.0179
     12 C8          1.8513    1.8668    3.8048 C.ar      1 <0>         0.3372
     13 C9          1.0085    1.9102    4.9079 C.ar      1 <0>        -0.2592
     14 C10         1.3279    2.7047    5.9914 C.ar      1 <0>         0.0516
     15 C11         2.4895    3.4638    5.9873 C.ar      1 <0>        -0.2255
     16 C12         3.3366    3.4330    4.9022 C.ar      1 <0>        -0.0286
     17 C13         3.0300    2.6294    3.8005 C.ar      1 <0>        -0.2109
     18 C14         3.9357    2.5874    2.6387 C.2       1 <0>         0.5620
     19 O3          3.6630    1.8908    1.6799 O.2       1 <0>        -0.4963
     20 N2          5.0663    3.3211    2.6387 N.am      1 <0>        -0.7543
     21 C15         5.9667    3.2794    1.4838 C.3       1 <0>         0.0965
     22 Cl1         0.2696    2.7545    7.3666 Cl        1 <0>        -0.0965
     23 N3         -0.2269    0.0552   -2.4664 N.pl3     1 <0>         0.0366
     24 O4         -0.9068   -0.3896   -3.3617 O.2       1 <0>        -0.1700
     25 O5          0.3481    1.1089   -2.6103 O.3       1 <0>        -0.1406
     26 H1          0.8769    1.9153    0.0449 H         1 <0>         0.1209
     27 H2         -0.6432    1.8438   -0.8784 H         1 <0>         0.0761
     28 H3         -0.6811    1.8264    0.9011 H         1 <0>         0.1184
     29 H4         -0.0639   -2.6050   -2.1436 H         1 <0>         0.1484
     30 H5          0.1492   -3.8452   -0.0269 H         1 <0>         0.1507
     31 H6          0.2348   -2.6264    2.1107 H         1 <0>         0.1569
     32 H7          0.1026    1.3224    4.9182 H         1 <0>         0.1145
     33 H8          2.7302    4.0823    6.8393 H         1 <0>         0.1205
     34 H9          4.2392    4.0261    4.9041 H         1 <0>         0.1192
     35 H10         5.2838    3.8767    3.4035 H         1 <0>         0.3917
     36 H11         6.8207    3.9319    1.6652 H         1 <0>         0.0638
     37 H12         6.3156    2.2580    1.3318 H         1 <0>         0.0514
     38 H13         5.4335    3.6172    0.5951 H         1 <0>         0.0530
@<TRIPOS>BOND
     1    1    2 1
     2    1   26 1
     3    1   27 1
     4    1   28 1
     5    2    7 ar
     6    2    3 ar
     7    3    4 ar
     8    3   23 1
     9    4    5 ar
    10    4   29 1
    11    5    6 ar
    12    5   30 1
    13    6    7 ar
    14    6   31 1
    15    7    8 1
    16    8    9 2
    17    8   10 2
    18    8   11 1
    19   11   12 1
    20   12   17 ar
    21   12   13 ar
    22   13   14 ar
    23   13   32 1
    24   14   15 ar
    25   14   22 1
    26   15   16 ar
    27   15   33 1
    28   16   17 ar
    29   16   34 1
    30   17   18 1
    31   18   19 2
    32   18   20 am
    33   20   21 1
    34   20   35 1
    35   21   36 1
    36   21   37 1
    37   21   38 1
    38   23   24 2
    39   23   25 1
@<TRIPOS>MOLECULE
ZINC02420279
   46    49     0     0     0
SMALL
USER_CHARGES

@<TRIPOS>ATOM
      1 C1          0.1938    1.4996   -0.1373 C.3       1 <0>        -0.1624
      2 C2          0.0002   -0.0119    0.0000 C.3       1 <0>         0.1218
      3 H1          0.3961   -0.5107   -0.8846 H         1 <0>         0.0827
      4 C3         -1.4688   -0.3198    0.1353 C.2       1 <0>         0.4191
      5 O1         -2.0179   -0.4630    1.3586 O.3       1 <0>        -0.6660
      6 N1         -2.2063   -0.4475   -0.9268 N.2       1 <0>        -0.6320
      7 C4         -3.5440   -0.7279   -0.8037 C.2       1 <0>         0.4828
      8 N2         -4.2063   -0.8871    0.3562 N.2       1 <0>        -0.5108
      9 C5         -5.4607   -1.1428    0.1105 C.2       1 <0>         0.4568
     10 N3         -5.6330   -1.1553   -1.2359 N.pl3     1 <0>        -0.4158
     11 N4         -4.3916   -0.8799   -1.8038 N.2       1 <0>        -0.3420
     12 C6         -6.9225   -1.4154   -1.8740 C.3       1 <0>         0.2121
     13 H2         -6.7628   -1.9034   -2.8356 H         1 <0>         0.1228
     14 C7         -7.7445   -2.3318   -0.9631 C.3       1 <0>        -0.1485
     15 C8         -7.6540   -1.8942    0.4717 C.2       1 <0>         0.5291
     16 O2         -8.6262   -2.0094    1.1875 O.2       1 <0>        -0.5198
     17 N5         -6.5159   -1.3759    0.9844 N.am      1 <0>        -0.6260
     18 C9         -7.6550   -0.1150   -2.0824 C.ar      1 <0>        -0.0984
     19 C10        -7.9706    0.6817   -0.9977 C.ar      1 <0>        -0.0885
     20 C11        -8.6424    1.8745   -1.1882 C.ar      1 <0>        -0.1065
     21 C12        -8.9990    2.2710   -2.4648 C.ar      1 <0>        -0.0279
     22 C13        -8.6828    1.4732   -3.5500 C.ar      1 <0>        -0.1111
     23 C14        -8.0060    0.2834   -3.3588 C.ar      1 <0>        -0.0806
     24 Cl1        -9.8433    3.7688   -2.7048 Cl        1 <0>        -0.0729
     25 O3          0.6932   -0.4774    1.1597 O.3       1 <0>        -0.2848
     26 C15         2.0139   -0.7639    1.0157 C.ar      1 <0>         0.1438
     27 C16         2.7206   -1.3304    2.0666 C.ar      1 <0>        -0.1594
     28 C17         4.0628   -1.6212    1.9175 C.ar      1 <0>        -0.0832
     29 C18         4.7021   -1.3476    0.7224 C.ar      1 <0>        -0.1740
     30 C19         4.0001   -0.7826   -0.3262 C.ar      1 <0>        -0.0810
     31 C20         2.6562   -0.4957   -0.1843 C.ar      1 <0>        -0.2161
     32 H3          1.2563    1.7224   -0.2352 H         1 <0>         0.0581
     33 H4         -0.3348    1.8548   -1.0219 H         1 <0>         0.0774
     34 H5         -0.2021    1.9985    0.7472 H         1 <0>         0.0655
     35 H6         -8.7874   -2.3074   -1.2791 H         1 <0>         0.1301
     36 H7         -7.3696   -3.3516   -1.0500 H         1 <0>         0.1198
     37 H8         -6.4383   -1.1733    1.9299 H         1 <0>         0.4302
     38 H9         -7.6925    0.3719   -0.0012 H         1 <0>         0.1256
     39 H10        -8.8893    2.4967   -0.3407 H         1 <0>         0.1341
     40 H11        -8.9611    1.7821   -4.5468 H         1 <0>         0.1363
     41 H12        -7.7549   -0.3372   -4.2063 H         1 <0>         0.1386
     42 H13         2.2218   -1.5437    3.0005 H         1 <0>         0.1286
     43 H14         4.6134   -2.0622    2.7353 H         1 <0>         0.1232
     44 H15         5.7516   -1.5753    0.6080 H         1 <0>         0.1171
     45 H16         4.5017   -0.5695   -1.2586 H         1 <0>         0.1200
     46 H17         2.1073   -0.0584   -1.0052 H         1 <0>         0.1320
@<TRIPOS>BOND
     1    1    2 1
     2    1   32 1
     3    1   33 1
     4    1   34 1
     5    2    3 1
     6    2    4 1
     7    2   25 1
     8    4    5 1
     9    4    6 2
    10    6    7 1
    11    7   11 2
    12    7    8 1
    13    8    9 2
    14    9   17 1
    15    9   10 1
    16   10   11 1
    17   10   12 1
    18   12   13 1
    19   12   14 1
    20   12   18 1
    21   14   15 1
    22   14   35 1
    23   14   36 1
    24   15   16 2
    25   15   17 am
    26   17   37 1
    27   18   23 ar
    28   18   19 ar
    29   19   20 ar
    30   19   38 1
    31   20   21 ar
    32   20   39 1
    33   21   22 ar
    34   21   24 1
    35   22   23 ar
    36   22   40 1
    37   23   41 1
    38   25   26 1
    39   26   31 ar
    40   26   27 ar
    41   27   28 ar
    42   27   42 1
    43   28   29 ar
    44   28   43 1
    45   29   30 ar
    46   29   44 1
    47   30   31 ar
    48   30   45 1
    49   31   46 1
@<TRIPOS>MOLECULE
ZINC66814010
   40    41     0     0     0
SMALL
USER_CHARGES

@<TRIPOS>ATOM
      1 C1          0.1727    1.0887    0.1517 C.3       1 <0>        -0.1511
      2 C2          0.0424   -0.4331    0.2410 C.3       1 <0>        -0.0821
      3 H1          0.4928   -0.8887   -0.6408 H         1 <0>         0.1034
      4 C3          0.7597   -0.9336    1.4964 C.3       1 <0>        -0.0012
      5 C4          0.7379   -2.4052    1.5201 C.1       1 <0>         0.1873
      6 N1          0.7211   -3.5410    1.5384 N.1       1 <0>        -0.4057
      7 S1         -1.7122   -0.8857    0.3261 S.3       1 <0>        -0.1023
      8 C5         -2.3239   -0.5259   -1.2867 C.ar      1 <0>        -0.1054
      9 C6         -1.4503   -0.1346   -2.2908 C.ar      1 <0>        -0.1120
     10 C7         -1.9326    0.1467   -3.5555 C.ar      1 <0>        -0.1198
     11 C8         -3.2848    0.0398   -3.8239 C.ar      1 <0>        -0.0902
     12 C9         -4.1629   -0.3492   -2.8289 C.ar      1 <0>        -0.1555
     13 C10        -3.6875   -0.6393   -1.5592 C.ar      1 <0>         0.1904
     14 N2         -4.5740   -1.0392   -0.5520 N.pl3     1 <0>        -1.0568
     15 S2         -5.8816   -1.9836   -0.9269 S.o2      1 <0>         2.6997
     16 O1         -6.4976   -2.3320    0.3053 O.2       1 <0>        -0.9595
     17 O2         -6.5820   -1.3135   -1.9660 O.2       1 <0>        -0.9605
     18 C11        -5.2618   -3.4799   -1.6209 C.ar      1 <0>        -0.7880
     19 C12        -5.0542   -3.5741   -2.9848 C.ar      1 <0>         0.0292
     20 C13        -4.5684   -4.7460   -3.5313 C.ar      1 <0>        -0.2387
     21 C14        -4.2883   -5.8290   -2.7105 C.ar      1 <0>         0.3336
     22 C15        -4.4969   -5.7318   -1.3426 C.ar      1 <0>        -0.2002
     23 C16        -4.9785   -4.5558   -0.8003 C.ar      1 <0>         0.1008
     24 N3         -4.1996   -6.8852   -0.4642 N.pl3     1 <0>         0.0665
     25 O3         -4.3817   -6.8000    0.7280 O.2       1 <0>        -0.2455
     26 O4         -3.7747   -7.9128   -0.9388 O.3       1 <0>        -0.1517
     27 O5         -3.8106   -6.9832   -3.2458 O.3       1 <0>        -0.6189
     28 H2          1.2264    1.3658    0.1860 H         1 <0>         0.0722
     29 H3         -0.2641    1.4365   -0.7844 H         1 <0>         0.0705
     30 H4         -0.3512    1.5481    0.9900 H         1 <0>         0.0755
     31 H5          1.7926   -0.5856    1.4878 H         1 <0>         0.1263
     32 H6          0.2539   -0.5484    2.3818 H         1 <0>         0.1179
     33 H7         -0.3937   -0.0494   -2.0845 H         1 <0>         0.1276
     34 H8         -1.2513    0.4512   -4.3362 H         1 <0>         0.1269
     35 H9         -3.6564    0.2610   -4.8135 H         1 <0>         0.1323
     36 H10        -5.2185   -0.4313   -3.0421 H         1 <0>         0.1667
     37 H11        -4.4222   -0.7632    0.3654 H         1 <0>         0.4241
     38 H12        -5.2724   -2.7309   -3.6233 H         1 <0>         0.1269
     39 H13        -4.4071   -4.8193   -4.5967 H         1 <0>         0.1274
     40 H14        -5.1376   -4.4783    0.2651 H         1 <0>         0.1395
@<TRIPOS>BOND
     1    1    2 1
     2    1   28 1
     3    1   29 1
     4    1   30 1
     5    2    3 1
     6    2    4 1
     7    2    7 1
     8    4    5 1
     9    4   31 1
    10    4   32 1
    11    5    6 3
    12    7    8 1
    13    8   13 ar
    14    8    9 ar
    15    9   10 ar
    16    9   33 1
    17   10   11 ar
    18   10   34 1
    19   11   12 ar
    20   11   35 1
    21   12   13 ar
    22   12   36 1
    23   13   14 1
    24   14   15 1
    25   14   37 1
    26   15   16 2
    27   15   17 2
    28   15   18 1
    29   18   23 ar
    30   18   19 ar
    31   19   20 ar
    32   19   38 1
    33   20   21 ar
    34   20   39 1
    35   21   22 ar
    36   21   27 1
    37   22   23 ar
    38   22   24 1
    39   23   40 1
    40   24   25 2
    41   24   26 1
@<TRIPOS>MOLECULE
ZINC13231595
   38    38     0     0     0
SMALL
USER_CHARGES
3-bromo-4-[2-[[2-(isopropylamino)-2-oxo-ethyl]amino]-2-oxo-ethoxy]benzoic acid
@<TRIPOS>ATOM
      1 C1          7.5510   -6.9976   -0.7173 C.3       1 <0>        -0.1617
      2 C2          6.2717   -6.4374   -0.0924 C.3       1 <0>         0.1356
      3 C3          6.1388   -6.9495    1.3432 C.3       1 <0>        -0.1652
      4 N1          6.3322   -4.9737   -0.0851 N.am      1 <0>        -0.7228
      5 C4          5.1938   -4.2523   -0.0704 C.2       1 <0>         0.5114
      6 O1          4.1194   -4.8148   -0.0631 O.2       1 <0>        -0.5337
      7 C5          5.2560   -2.7466   -0.0629 C.3       1 <0>         0.1028
      8 N2          3.8962   -2.2017   -0.0470 N.am      1 <0>        -0.7200
      9 C6          3.7048   -0.8676   -0.0380 C.2       1 <0>         0.5217
     10 O2          4.6584   -0.1182   -0.0431 O.2       1 <0>        -0.5097
     11 C7          2.3060   -0.3072   -0.0216 C.3       1 <0>         0.0412
     12 O3          2.3650    1.1206   -0.0145 O.3       1 <0>        -0.2795
     13 C8          1.1823    1.7861    0.0004 C.ar      1 <0>         0.1444
     14 C9         -0.0126    1.0758    0.0080 C.ar      1 <0>        -0.2210
     15 C10        -1.2147    1.7468    0.0173 C.ar      1 <0>        -0.0225
     16 C11        -1.2330    3.1447    0.0303 C.ar      1 <0>        -0.1409
     17 C12        -0.0296    3.8557    0.0226 C.ar      1 <0>        -0.0196
     18 C13         1.1691    3.1766    0.0075 C.ar      1 <0>        -0.1311
     19 Br1         2.7982    4.1366   -0.0029 Br        1 <0>        -0.0504
     20 C14        -2.5185    3.8672    0.0468 C.2       1 <0>         0.4935
     21 O4         -2.5325    5.0821    0.0538 O.co2     1 <0>        -0.6279
     22 H1          8.4127   -6.6724   -0.1343 H         1 <0>         0.0621
     23 H2          7.5060   -8.0866   -0.7227 H         1 <0>         0.0741
     24 H3          7.6457   -6.6328   -1.7400 H         1 <0>         0.0628
     25 H4          5.4100   -6.7626   -0.6754 H         1 <0>         0.0900
     26 H5          5.2274   -6.5504    1.7884 H         1 <0>         0.0614
     27 H6          6.0938   -8.0385    1.3378 H         1 <0>         0.0670
     28 H7          7.0004   -6.6243    1.9262 H         1 <0>         0.0576
     29 H8          7.1915   -4.5237   -0.0909 H         1 <0>         0.4039
     30 H9          5.7759   -2.3999   -0.9560 H         1 <0>         0.1017
     31 H10         5.7929   -2.4095    0.8238 H         1 <0>         0.1016
     32 H11         3.1336   -2.8011   -0.0429 H         1 <0>         0.4138
     33 H12         1.7862   -0.6538    0.8715 H         1 <0>         0.0969
     34 H13         1.7692   -0.6442   -0.9083 H         1 <0>         0.0969
     35 H14         0.0021   -0.0041    0.0020 H         1 <0>         0.1315
     36 H15        -2.1425    1.1940    0.0187 H         1 <0>         0.1418
     37 H16        -0.0394    4.9356    0.0281 H         1 <0>         0.1452
     38 O5         -3.6775    3.1799    0.0542 O.co2     1 <0>        -0.7526
@<TRIPOS>BOND
     1    1    2 1
     2    1   22 1
     3    1   23 1
     4    1   24 1
     5    2    3 1
     6    2    4 1
     7    2   25 1
     8    3   26 1
     9    3   27 1
    10    3   28 1
    11    4    5 am
    12    4   29 1
    13    5    6 2
    14    5    7 1
    15    7    8 1
    16    7   30 1
    17    7   31 1
    18    8    9 am
    19    8   32 1
    20    9   10 2
    21    9   11 1
    22   11   12 1
    23   11   33 1
    24   11   34 1
    25   12   13 1
    26   13   18 ar
    27   13   14 ar
    28   14   15 ar
    29   14   35 1
    30   15   16 ar
    31   15   36 1
    32   16   17 ar
    33   16   20 1
    34   17   18 ar
    35   17   37 1
    36   18   19 1
    37   20   21 2
    38   20   38 1
@<TRIPOS>MOLECULE
ZINC39630296
   53    54     0     0     0
SMALL
USER_CHARGES

@<TRIPOS>ATOM
      1 C1         -0.0280    1.5026    0.0112 C.3       1 <0>        -0.1098
      2 C2         -0.0025   -0.0041    0.0025 C.ar      1 <0>        -0.0189
      3 C3         -0.1017   -0.7075   -1.1840 C.ar      1 <0>        -0.1814
      4 C4         -0.0755   -2.0914   -1.1615 C.ar      1 <0>         0.1144
      5 N1          0.0425   -2.7552   -0.0287 N.ar      1 <0>        -0.5023
      6 C5          0.1412   -2.1338    1.1373 C.ar      1 <0>         0.1098
      7 C6          0.1281   -0.7270    1.1959 C.ar      1 <0>        -0.1334
      8 C7          0.2434   -0.0300    2.4849 C.2       1 <0>         0.5314
      9 O1         -0.7539    0.1641    3.1669 O.co2     1 <0>        -0.6715
     10 O2          1.3368    0.3562    2.8759 O.co2     1 <0>        -0.6735
     11 S1          0.2969   -3.0719    2.6207 S.3       1 <0>         0.0455
     12 C8          0.2738   -4.7951    2.0545 C.3       1 <0>        -0.1560
     13 C9          0.4013   -5.7155    3.2410 C.2       1 <0>         0.5344
     14 O3          0.4982   -5.2545    4.3581 O.2       1 <0>        -0.4406
     15 N2          0.4076   -7.0510    3.0603 N.am      1 <0>        -0.6890
     16 C10         0.5216   -7.8741    4.1215 C.2       1 <0>         0.6941
     17 O4          0.6188   -7.4119    5.2413 O.2       1 <0>        -0.5250
     18 N3          0.5279   -9.2097    3.9408 N.am      1 <0>        -0.7356
     19 C11         0.6518  -10.1044    5.0942 C.3       1 <0>         0.1666
     20 H1          0.1324   -9.6700    5.9484 H         1 <0>         0.0906
     21 C12         2.1310  -10.2914    5.4379 C.3       1 <0>        -0.1331
     22 C13         2.2604  -11.2257    6.6425 C.3       1 <0>        -0.1172
     23 C14         1.6399  -12.5828    6.3044 C.3       1 <0>        -0.1176
     24 C15         0.1608  -12.3957    5.9607 C.3       1 <0>        -0.0843
     25 H2         -0.3587  -11.9614    6.8149 H         1 <0>         0.0735
     26 C16         0.0313  -11.4614    4.7561 C.3       1 <0>        -0.0926
     27 H3         -1.0224  -11.3281    4.5112 H         1 <0>         0.0768
     28 C17         0.7604  -12.0710    3.5571 C.3       1 <0>        -0.1552
     29 C18        -0.4598  -13.7528    5.6226 C.3       1 <0>        -0.1485
     30 C19        -0.1845   -2.8537   -2.4568 C.3       1 <0>        -0.0914
     31 H4          0.9934    1.8833    0.0079 H         1 <0>         0.0758
     32 H5         -0.5527    1.8623   -0.8739 H         1 <0>         0.0632
     33 H6         -0.5430    1.8521    0.9061 H         1 <0>         0.0775
     34 H7         -0.1994   -0.1807   -2.1217 H         1 <0>         0.1278
     35 H8         -0.6653   -4.9955    1.5386 H         1 <0>         0.1208
     36 H9          1.1066   -4.9646    1.3721 H         1 <0>         0.1205
     37 H10         0.3300   -7.4199    2.1666 H         1 <0>         0.4091
     38 H11         0.4503   -9.5786    3.0470 H         1 <0>         0.3957
     39 H12         2.6504  -10.7257    4.5837 H         1 <0>         0.0665
     40 H13         2.5730   -9.3246    5.6788 H         1 <0>         0.0695
     41 H14         3.3142  -11.3590    6.8874 H         1 <0>         0.0650
     42 H15         1.7410  -10.7914    7.4967 H         1 <0>         0.0652
     43 H16         2.1593  -13.0171    5.4502 H         1 <0>         0.0659
     44 H17         1.7321  -13.2484    7.1626 H         1 <0>         0.0627
     45 H18         1.8142  -12.2043    3.8019 H         1 <0>         0.0657
     46 H19         0.3183  -13.0378    3.3162 H         1 <0>         0.0619
     47 H20         0.6682  -11.4054    2.6989 H         1 <0>         0.0508
     48 H21        -0.3675  -14.4184    6.4808 H         1 <0>         0.0550
     49 H22        -1.5135  -13.6195    5.3777 H         1 <0>         0.0544
     50 H23         0.0597  -14.1871    4.7684 H         1 <0>         0.0581
     51 H24         0.8122   -3.0197   -2.8657 H         1 <0>         0.0703
     52 H25        -0.6667   -3.8139   -2.2739 H         1 <0>         0.0693
     53 H26        -0.7778   -2.2788   -3.1679 H         1 <0>         0.0693
@<TRIPOS>BOND
     1    1    2 1
     2    1   31 1
     3    1   32 1
     4    1   33 1
     5    2    7 ar
     6    2    3 ar
     7    3    4 ar
     8    3   34 1
     9    4    5 ar
    10    4   30 1
    11    5    6 ar
    12    6    7 ar
    13    6   11 1
    14    7    8 1
    15    8    9 2
    16    8   10 1
    17   11   12 1
    18   12   13 1
    19   12   35 1
    20   12   36 1
    21   13   14 2
    22   13   15 am
    23   15   16 am
    24   15   37 1
    25   16   17 2
    26   16   18 am
    27   18   19 1
    28   18   38 1
    29   19   20 1
    30   19   26 1
    31   19   21 1
    32   21   22 1
    33   21   39 1
    34   21   40 1
    35   22   23 1
    36   22   41 1
    37   22   42 1
    38   23   24 1
    39   23   43 1
    40   23   44 1
    41   24   25 1
    42   24   26 1
    43   24   29 1
    44   26   27 1
    45   26   28 1
    46   28   45 1
    47   28   46 1
    48   28   47 1
    49   29   48 1
    50   29   49 1
    51   29   50 1
    52   30   51 1
    53   30   52 1
    54   30   53 1
@<TRIPOS>MOLECULE
ZINC18195682
   48    51     0     0     0
SMALL
USER_CHARGES

@<TRIPOS>ATOM
      1 C1         -0.0187    1.5258    0.0104 C.3       1 <0>        -0.1528
      2 C2          0.0021   -0.0041    0.0020 C.3       1 <0>        -0.0528
      3 C3          0.7442   -0.5033   -1.2388 C.3       1 <0>        -0.0831
      4 C4          2.1738   -0.0167   -1.2096 C.2       1 <0>         0.2188
      5 C5          2.8201    0.1857   -0.0427 C.2       1 <0>        -0.2617
      6 C6          4.2480    0.6793    0.0454 C.3       1 <0>         0.0413
      7 H1          4.7467    0.1932    0.8839 H         1 <0>         0.1285
      8 C7          5.0005    0.3588   -1.2456 C.3       1 <0>        -0.1402
      9 C8          4.0538    0.7406   -2.3805 C.2       1 <0>         0.3106
     10 N1          4.6405    1.6147   -3.0961 N.2       1 <0>        -0.2456
     11 N2          5.8954    1.9632   -2.5945 N.am      1 <0>        -0.5670
     12 C9          6.1750    1.2899   -1.4416 C.2       1 <0>         0.5189
     13 O1          7.1470    1.4085   -0.7251 O.2       1 <0>        -0.4628
     14 N3          2.7804    0.1969   -2.4299 N.pl3     1 <0>        -0.6188
     15 C10         4.2479    2.1707    0.2617 C.ar      1 <0>        -0.1331
     16 C11         3.6567    3.0042   -0.6683 C.ar      1 <0>        -0.0768
     17 C12         3.6567    4.3724   -0.4708 C.ar      1 <0>        -0.1786
     18 C13         4.2477    4.9105    0.6578 C.ar      1 <0>        -0.0744
     19 C14         4.8396    4.0815    1.5907 C.ar      1 <0>        -0.2224
     20 C15         4.8363    2.7075    1.3973 C.ar      1 <0>         0.1714
     21 O2          5.4131    1.8894    2.3165 O.3       1 <0>        -0.2605
     22 C16         5.9997    2.5117    3.4614 C.3       1 <0>        -0.0055
     23 C17         6.5856    1.4553    4.3624 C.2       1 <0>         0.5036
     24 O3          6.5079    0.2786    4.0528 O.co2     1 <0>        -0.6646
     25 O4          7.1372    1.7773    5.4009 O.co2     1 <0>        -0.6930
     26 C18         2.1691   -0.0515    1.1846 C.2       1 <0>         0.3864
     27 O5          2.7769    0.1255    2.2220 O.2       1 <0>        -0.4312
     28 C19         0.7422   -0.5179    1.2417 C.3       1 <0>        -0.1574
     29 C20        -1.4311   -0.5396   -0.0023 C.3       1 <0>        -0.1394
     30 H2          1.0039    1.9031    0.0027 H         1 <0>         0.0655
     31 H3         -0.5459    1.8868   -0.8726 H         1 <0>         0.0579
     32 H4         -0.5289    1.8773    0.9072 H         1 <0>         0.0608
     33 H5          0.7325   -1.5931   -1.2541 H         1 <0>         0.0997
     34 H6          0.2505   -0.1239   -2.1335 H         1 <0>         0.0897
     35 H7          5.2980   -0.6887   -1.2935 H         1 <0>         0.1445
     36 H8          2.3435   -0.0194   -3.2685 H         1 <0>         0.4265
     37 H9          3.1946    2.5864   -1.5505 H         1 <0>         0.1180
     38 H10         3.1947    5.0223   -1.1993 H         1 <0>         0.1138
     39 H11         4.2467    5.9797    0.8097 H         1 <0>         0.1173
     40 H12         5.3010    4.5022    2.4719 H         1 <0>         0.1274
     41 H13         6.7875    3.1934    3.1407 H         1 <0>         0.0553
     42 H14         5.2357    3.0688    4.0036 H         1 <0>         0.0559
     43 H15         0.2657   -0.1257    2.1401 H         1 <0>         0.0951
     44 H16         0.7147   -1.6074    1.2577 H         1 <0>         0.0989
     45 H17        -1.9505   -0.1805   -0.8908 H         1 <0>         0.0590
     46 H18        -1.4118   -1.6294   -0.0083 H         1 <0>         0.0596
     47 H19        -1.9522   -0.1904    0.8891 H         1 <0>         0.0626
     48 H20         6.4955    2.5995   -3.0139 H         1 <0>         0.4349
@<TRIPOS>BOND
     1    1    2 1
     2    1   30 1
     3    1   31 1
     4    1   32 1
     5    2   28 1
     6    2    3 1
     7    2   29 1
     8    3    4 1
     9    3   33 1
    10    3   34 1
    11    4   14 1
    12    4    5 2
    13    5    6 1
    14    5   26 1
    15    6    7 1
    16    6    8 1
    17    6   15 1
    18    8   35 1
    19    8   12 1
    20    8    9 1
    21    9   14 1
    22    9   10 2
    23   10   11 1
    24   11   12 am
    25   11   48 1
    26   12   13 2
    27   14   36 1
    28   15   20 ar
    29   15   16 ar
    30   16   17 ar
    31   16   37 1
    32   17   18 ar
    33   17   38 1
    34   18   19 ar
    35   18   39 1
    36   19   20 ar
    37   19   40 1
    38   20   21 1
    39   21   22 1
    40   22   23 1
    41   22   41 1
    42   22   42 1
    43   23   24 2
    44   23   25 1
    45   26   27 2
    46   26   28 1
    47   28   43 1
    48   28   44 1
    49   29   45 1
    50   29   46 1
    51   29   47 1
@<TRIPOS>MOLECULE
ZINC15957902
   54    58     0     0     0
SMALL
USER_CHARGES

@<TRIPOS>ATOM
      1 C1          2.3819    0.0347   -0.8800 C.3       1 <0>        -0.1105
      2 C2          1.1518   -0.7069   -0.4242 C.ar      1 <0>        -0.0772
      3 C3          0.0066   -0.6871   -1.1990 C.ar      1 <0>        -0.1125
      4 C4         -1.1242   -1.3660   -0.7839 C.ar      1 <0>        -0.0681
      5 C5         -1.1128   -2.0664    0.4065 C.ar      1 <0>        -0.0983
      6 C6          0.0355   -2.0885    1.1863 C.ar      1 <0>         0.1248
      7 C7          1.1711   -1.4106    0.7642 C.ar      1 <0>        -0.1084
      8 N1          0.0499   -2.7982    2.3954 N.am      1 <0>        -0.5264
      9 C8         -0.0254   -4.1328    2.4519 C.2       1 <0>         0.5222
     10 O1         -0.1172   -4.8704    1.4942 O.2       1 <0>        -0.4312
     11 C9          0.0217   -4.5779    3.8957 C.3       1 <0>        -0.1500
     12 H1          0.8536   -5.2520    4.1000 H         1 <0>         0.1461
     13 C10        -1.3423   -5.1834    4.2885 C.3       1 <0>         0.0845
     14 H2         -1.2210   -5.8909    5.1088 H         1 <0>         0.1150
     15 N2         -2.1643   -4.0230    4.7235 N.3       1 <0>        -0.6177
     16 C11        -1.2162   -3.1625    5.4550 C.3       1 <0>         0.1203
     17 C12         0.1234   -3.2403    4.6805 C.3       1 <0>        -0.1343
     18 H3          0.9977   -3.1958    5.3299 H         1 <0>         0.1460
     19 C13         0.1459   -2.1963    3.5863 C.2       1 <0>         0.5303
     20 O2          0.2339   -1.0000    3.7614 O.2       1 <0>        -0.4482
     21 C14        -1.0500   -3.6106    6.8791 C.ar      1 <0>        -0.1129
     22 C15        -0.6317   -4.7868    7.4604 C.ar      1 <0>        -0.0490
     23 C16        -0.5842   -4.8996    8.8384 C.ar      1 <0>        -0.1404
     24 C17        -0.9578   -3.8288    9.6298 C.ar      1 <0>        -0.0796
     25 C18        -1.3778   -2.6488    9.0522 C.ar      1 <0>        -0.1415
     26 C19        -1.4286   -2.5266    7.6656 C.ar      1 <0>         0.1540
     27 N3         -1.8121   -1.4543    6.8574 N.am      1 <0>        -0.6575
     28 C20        -1.7170   -1.7467    5.5459 C.2       1 <0>         0.5383
     29 O3         -1.9827   -1.0115    4.6187 O.2       1 <0>        -0.4648
     30 C21        -1.9857   -5.8724    3.0834 C.3       1 <0>        -0.0923
     31 C22        -3.2739   -6.5710    3.5231 C.3       1 <0>        -0.1758
     32 C23        -3.9077   -7.2496    2.3362 C.2       1 <0>         0.4869
     33 O4         -3.3781   -7.1809    1.2401 O.co2     1 <0>        -0.6951
     34 O5         -4.9500   -7.8674    2.4719 O.co2     1 <0>        -0.7090
     35 C24        -2.3704   -1.3415   -1.6310 C.3       1 <0>        -0.1154
     36 H4          2.9981   -0.6246   -1.4913 H         1 <0>         0.0716
     37 H5          2.0855    0.9034   -1.4678 H         1 <0>         0.0682
     38 H6          2.9519    0.3619   -0.0104 H         1 <0>         0.0657
     39 H7         -0.0047   -0.1398   -2.1300 H         1 <0>         0.1268
     40 H8         -1.9966   -2.5959    0.7306 H         1 <0>         0.1283
     41 H9          2.0673   -1.4297    1.3666 H         1 <0>         0.1219
     42 H10        -2.5541   -3.5380    3.9293 H         1 <0>         0.3504
     43 H11        -0.3408   -5.6217    6.8402 H         1 <0>         0.1311
     44 H12        -0.2565   -5.8218    9.2950 H         1 <0>         0.1314
     45 H13        -0.9208   -3.9171   10.7056 H         1 <0>         0.1307
     46 H14        -1.6678   -1.8170    9.6770 H         1 <0>         0.1263
     47 H15        -2.1124   -0.5982    7.2006 H         1 <0>         0.4156
     48 H16        -2.2177   -5.1288    2.3209 H         1 <0>         0.0617
     49 H17        -1.2944   -6.6090    2.6742 H         1 <0>         0.0844
     50 H18        -3.0420   -7.3145    4.2857 H         1 <0>         0.0568
     51 H19        -3.9653   -5.8343    3.9324 H         1 <0>         0.0624
     52 H20        -2.3492   -2.1753   -2.3327 H         1 <0>         0.0765
     53 H21        -3.2474   -1.4285   -0.9896 H         1 <0>         0.0702
     54 H22        -2.4158   -0.4028   -2.1833 H         1 <0>         0.0677
@<TRIPOS>BOND
     1    1    2 1
     2    1   36 1
     3    1   37 1
     4    1   38 1
     5    2    7 ar
     6    2    3 ar
     7    3    4 ar
     8    3   39 1
     9    4    5 ar
    10    4   35 1
    11    5    6 ar
    12    5   40 1
    13    6    7 ar
    14    6    8 1
    15    7   41 1
    16    8   19 am
    17    8    9 am
    18    9   10 2
    19    9   11 1
    20   11   12 1
    21   11   17 1
    22   11   13 1
    23   13   14 1
    24   13   15 1
    25   13   30 1
    26   15   16 1
    27   15   42 1
    28   16   28 1
    29   16   17 1
    30   16   21 1
    31   17   18 1
    32   17   19 1
    33   19   20 2
    34   21   26 ar
    35   21   22 ar
    36   22   23 ar
    37   22   43 1
    38   23   24 ar
    39   23   44 1
    40   24   25 ar
    41   24   45 1
    42   25   26 ar
    43   25   46 1
    44   26   27 1
    45   27   28 am
    46   27   47 1
    47   28   29 2
    48   30   31 1
    49   30   48 1
    50   30   49 1
    51   31   32 1
    52   31   50 1
    53   31   51 1
    54   32   33 2
    55   32   34 1
    56   35   52 1
    57   35   53 1
    58   35   54 1
