@<TRIPOS>MOLECULE
2ZDT-46C
 51 54 0 0 0
SMALL
SF_CHARGES


@<TRIPOS>ATOM
1    C        44.9900    7.7840   32.3550  C.2        1 SUBUNIT     -0.0256
2    C        43.7810    7.7660   33.1860  C.2        1 SUBUNIT     -0.0946
3    C        43.3960    9.0110   33.8360  C.2        1 SUBUNIT     -0.1001
4    C        46.9530    8.9150   31.2900  C.2        1 SUBUNIT     -0.0094
5    N        46.4940    6.5070   30.8710  N.am       1 SUBUNIT     -0.4428
6    C        45.3870    6.5400   31.6110  C.2        1 SUBUNIT      0.6686
7    C        47.7340   10.1060   30.9950  C.2        1 SUBUNIT     -0.0081
8    C        48.5160    7.5860   29.7570  C.2        1 SUBUNIT      0.4826
9    C        50.9310    8.0740   29.1850  C.3        1 SUBUNIT     -0.0916
10   C        46.8430    5.2350   30.2080  C.3        1 SUBUNIT      0.1852
11   C        44.2220   10.2100   33.6400  C.2        1 SUBUNIT      0.0206
12   C        45.4310   10.2140   32.8130  C.2        1 SUBUNIT     -0.1076
13   C        45.7950    8.9730   32.1710  C.2        1 SUBUNIT     -0.0166
14   C        47.2990    7.6610   30.6710  C.2        1 SUBUNIT      0.1305
15   Cl       43.7890   11.6300   34.3890  Cl         1 SUBUNIT     -0.0906
16   O        44.6710    5.5460   31.6800  O.2        1 SUBUNIT     -0.5417
17   O        48.3610    7.2010   28.5990  O.2        1 SUBUNIT     -0.5256
18   C        49.8970    7.9610   30.2860  C.3        1 SUBUNIT     -0.0518
19   C        47.9650    4.5110   30.8820  C.2        1 SUBUNIT     -0.0397
20   C        47.7190    3.9370   32.1980  C.2        1 SUBUNIT     -0.0983
21   C        48.8160    3.2610   32.8770  C.2        1 SUBUNIT     -0.0999
22   C        50.1170    3.1750   32.2150  C.2        1 SUBUNIT     -0.0389
23   C        50.3710    3.7490   30.8860  C.2        1 SUBUNIT     -0.0999
24   C        49.2630    4.4360   30.2040  C.2        1 SUBUNIT     -0.0983
25   C        48.5990   10.6600   32.0400  C.2        1 SUBUNIT     -0.1022
26   C        49.3750   11.8700   31.7400  C.2        1 SUBUNIT     -0.0972
27   C        49.2700   12.5050   30.4110  C.2        1 SUBUNIT     -0.0971
28   C        48.3910   11.9240   29.3760  C.2        1 SUBUNIT     -0.0972
29   C        47.6100   10.7100   29.6630  C.2        1 SUBUNIT     -0.1022
30   C        51.2370    2.4550   32.9530  C.2        1 SUBUNIT      0.7854
31   O        52.4030    2.6410   32.6110  O.co2      1 SUBUNIT     -0.8953
32   O        50.9340    1.6910   33.9090  O.co2      1 SUBUNIT     -0.8953
33   H        43.1990    6.8699   33.3126  H          1 SUBUNIT      0.1144
34   H        42.5149    9.0477   34.4525  H          1 SUBUNIT      0.1125
35   H        51.0391    7.1251   28.6493  H          1 SUBUNIT      0.0533
36   H        51.9107    8.3437   29.5929  H          1 SUBUNIT      0.0533
37   H        50.6468    8.8410   28.4570  H          1 SUBUNIT      0.0533
38   H        45.9577    4.5906   30.2094  H          1 SUBUNIT      0.0290
39   H        47.1351    5.4526   29.1754  H          1 SUBUNIT      0.0290
40   H        46.0275   11.1003   32.6847  H          1 SUBUNIT      0.1062
41   H        49.8276    8.9255   30.7998  H          1 SUBUNIT      0.0443
42   H        50.2238    7.1923   30.9941  H          1 SUBUNIT      0.0443
43   H        46.7491    4.0107   32.6580  H          1 SUBUNIT      0.1053
44   H        48.6690    2.8314   33.8525  H          1 SUBUNIT      0.1052
45   H        51.3401    3.6688   30.4253  H          1 SUBUNIT      0.1052
46   H        49.4002    4.8736   29.2306  H          1 SUBUNIT      0.1053
47   H        48.6634   10.1897   33.0056  H          1 SUBUNIT      0.1069
48   H        50.0197   12.2920   32.4910  H          1 SUBUNIT      0.1068
49   H        49.8361   13.3944   30.1959  H          1 SUBUNIT      0.1067
50   H        48.3201   12.3886   28.4081  H          1 SUBUNIT      0.1068
51   H        46.9658   10.2763   28.9182  H          1 SUBUNIT      0.1069
@<TRIPOS>BOND
     1    1    2 1
     2    1    6 1
     3    1   13 2
     4    2    3 2
     5    3   11 1
     6    4    7 1
     7    4   13 1
     8    4   14 2
     9    5    6 1
    10    5   10 1
    11    5   14 1
    12    6   16 2
    13    7   25 2
    14    7   29 1
    15    8   14 1
    16    8   17 2
    17    8   18 1
    18    9   18 1
    19   10   19 1
    20   11   12 2
    21   11   15 1
    22   12   13 1
    23   19   20 2
    24   19   24 1
    25   20   21 1
    26   21   22 2
    27   22   23 1
    28   22   30 1
    29   23   24 2
    30   25   26 1
    31   26   27 2
    32   27   28 1
    33   28   29 2
    34   30   31 2
    35   30   32 1
    36    2   33 1
    37    3   34 1
    38    9   35 1
    39    9   36 1
    40    9   37 1
    41   10   38 1
    42   10   39 1
    43   12   40 1
    44   18   41 1
    45   18   42 1
    46   20   43 1
    47   21   44 1
    48   23   45 1
    49   24   46 1
    50   25   47 1
    51   26   48 1
    52   27   49 1
    53   28   50 1
    54   29   51 1
