@<TRIPOS>MOLECULE
CHEMBL564385
   60    63     0     0     0
SMALL
USER_CHARGES

@<TRIPOS>ATOM
      1 C1         -0.7130    1.2160    0.5530 C.3       1 <0>        -0.2013
      2 C2         -0.2807   -0.2336    0.3237 C.3       1 <0>         0.1412
      3 H1         -1.0974   -0.9051    0.5887 H         1 <0>         0.0881
      4 C3          0.0915   -0.4327   -1.1508 C.3       1 <0>         0.1348
      5 N1          0.7451   -1.7408   -1.2976 N.pl3     1 <0>        -0.6788
      6 C4          1.9228   -2.0409   -0.4712 C.3       1 <0>         0.1228
      7 C5          1.5505   -1.8419    1.0032 C.3       1 <0>         0.1007
      8 N2          0.8944   -0.5350    1.1532 N.pl3     1 <0>        -0.9867
      9 S1          1.4724    0.5799    2.2327 S.o2      1 <0>         2.6932
     10 O1          0.3423    1.2715    2.7464 O.2       1 <0>        -0.9524
     11 O2          2.3920   -0.1057    3.0714 O.2       1 <0>        -0.9465
     12 C6          2.4088    1.7569    1.3149 C.ar      1 <0>        -0.7266
     13 C7          1.9549    3.0577    1.1953 C.ar      1 <0>         0.0372
     14 C8          2.6862    3.9828    0.4769 C.ar      1 <0>        -0.2088
     15 C9          3.8799    3.6061   -0.1263 C.ar      1 <0>         0.2755
     16 C10         4.3341    2.2995   -0.0045 C.ar      1 <0>        -0.2056
     17 C11         3.5998    1.3792    0.7201 C.ar      1 <0>         0.1052
     18 Cl1         4.1693   -0.2530    0.8790 Cl        1 <0>        -0.0363
     19 N3          4.6213    4.5397   -0.8540 N.pl3     1 <0>        -0.6298
     20 C12         4.2075    5.9438   -0.8646 C.3       1 <0>         0.1225
     21 C13         5.2806    6.7983   -0.1819 C.3       1 <0>        -0.6286
     22 S2          6.8596    6.5602   -1.0494 S.o2      1 <0>         2.4193
     23 O3          7.8944    7.1489   -0.2736 O.2       1 <0>        -0.9327
     24 O4          6.6959    6.9598   -2.4032 O.2       1 <0>        -0.9287
     25 C14         7.0547    4.7542   -0.9969 C.3       1 <0>        -0.6293
     26 C15         5.8076    4.1051   -1.5933 C.3       1 <0>         0.1210
     27 C16         0.2555   -2.6828   -2.2075 C.ar      1 <0>         0.2146
     28 C17        -0.7645   -3.5476   -1.8322 C.ar      1 <0>        -0.0968
     29 C18        -1.2468   -4.4769   -2.7327 C.ar      1 <0>        -0.1126
     30 C19        -0.7144   -4.5469   -4.0091 C.ar      1 <0>         0.0973
     31 C20         0.3023   -3.6858   -4.3855 C.ar      1 <0>        -0.1032
     32 C21         0.7843   -2.7512   -3.4896 C.ar      1 <0>        -0.1674
     33 C22         1.8867   -1.8100   -3.9019 C.3       1 <0>         0.5176
     34 F1          2.1752   -1.9954   -5.2582 F         1 <0>        -0.1788
     35 F2          1.4766   -0.4896   -3.6886 F         1 <0>        -0.1703
     36 F3          3.0316   -2.0714   -3.1416 F         1 <0>        -0.1724
     37 F4         -1.1875   -5.4570   -4.8884 F         1 <0>        -0.1296
     38 H2          0.1597    1.8673    0.5050 H         1 <0>         0.0581
     39 H3         -1.4272    1.5083   -0.2169 H         1 <0>         0.0811
     40 H4         -1.1795    1.3052    1.5341 H         1 <0>         0.1099
     41 H5         -0.8099   -0.4034   -1.7628 H         1 <0>         0.0841
     42 H6          0.7758    0.3554   -1.4649 H         1 <0>         0.0648
     43 H7          2.2307   -3.0737   -0.6346 H         1 <0>         0.0842
     44 H8          2.7375   -1.3673   -0.7370 H         1 <0>         0.0685
     45 H9          0.8662   -2.6300    1.3174 H         1 <0>         0.0801
     46 H10         2.4519   -1.8712    1.6153 H         1 <0>         0.1028
     47 H11         1.0271    3.3504    1.6642 H         1 <0>         0.1551
     48 H12         2.3304    4.9982    0.3835 H         1 <0>         0.1435
     49 H13         5.2613    2.0035   -0.4725 H         1 <0>         0.1459
     50 H14         4.0788    6.2768   -1.8944 H         1 <0>         0.1001
     51 H15         3.2643    6.0485   -0.3284 H         1 <0>         0.1141
     52 H16         4.9940    7.8490   -0.2269 H         1 <0>         0.1513
     53 H17         5.3854    6.4905    0.8584 H         1 <0>         0.1395
     54 H18         7.9313    4.4645   -1.5763 H         1 <0>         0.1516
     55 H19         7.1740    4.4296    0.0367 H         1 <0>         0.1397
     56 H20         5.8991    3.0208   -1.5283 H         1 <0>         0.1118
     57 H21         5.7124    4.3995   -2.6384 H         1 <0>         0.1005
     58 H22        -1.1798   -3.4937   -0.8367 H         1 <0>         0.1468
     59 H23        -2.0397   -5.1498   -2.4411 H         1 <0>         0.1475
     60 H24         0.7161   -3.7422   -5.3815 H         1 <0>         0.1513
@<TRIPOS>BOND
     1    1    2 1
     2    1   38 1
     3    1   39 1
     4    1   40 1
     5    2    3 1
     6    2    8 1
     7    2    4 1
     8    4    5 1
     9    4   41 1
    10    4   42 1
    11    5    6 1
    12    5   27 1
    13    6    7 1
    14    6   43 1
    15    6   44 1
    16    7    8 1
    17    7   45 1
    18    7   46 1
    19    8    9 1
    20    9   10 2
    21    9   11 2
    22    9   12 1
    23   12   17 ar
    24   12   13 ar
    25   13   14 ar
    26   13   47 1
    27   14   15 ar
    28   14   48 1
    29   15   16 ar
    30   15   19 1
    31   16   17 ar
    32   16   49 1
    33   17   18 1
    34   19   26 1
    35   19   20 1
    36   20   21 1
    37   20   50 1
    38   20   51 1
    39   21   22 1
    40   21   52 1
    41   21   53 1
    42   22   23 2
    43   22   24 2
    44   22   25 1
    45   25   26 1
    46   25   54 1
    47   25   55 1
    48   26   56 1
    49   26   57 1
    50   27   32 ar
    51   27   28 ar
    52   28   29 ar
    53   28   58 1
    54   29   30 ar
    55   29   59 1
    56   30   31 ar
    57   30   37 1
    58   31   32 ar
    59   31   60 1
    60   32   33 1
    61   33   34 1
    62   33   35 1
    63   33   36 1
@<TRIPOS>MOLECULE
CHEMBL552943
   46    47     0     0     0
SMALL
USER_CHARGES

@<TRIPOS>ATOM
      1 C1          2.3938   -2.2667   -2.1460 C.3       1 <0>        -0.1680
      2 C2          1.7269   -0.9626   -1.7038 C.3       1 <0>         0.1090
      3 N1          0.3176   -1.2154   -1.3940 N.am      1 <0>        -0.6075
      4 C3         -0.0668   -1.6817   -0.0594 C.3       1 <0>         0.0962
      5 C4         -0.1133   -0.4928    0.9025 C.3       1 <0>        -0.1792
      6 C5         -0.6254   -1.0190   -2.3367 C.2       1 <0>         0.5578
      7 O1         -0.3016   -0.6872   -3.4603 O.2       1 <0>        -0.5284
      8 C6         -2.0536   -1.2072   -2.0041 C.ar      1 <0>        -0.1193
      9 C7         -2.5732   -0.6798   -0.8209 C.ar      1 <0>        -0.1035
     10 C8         -3.9069   -0.8586   -0.5168 C.ar      1 <0>        -0.1070
     11 C9         -4.7288   -1.5593   -1.3814 C.ar      1 <0>        -0.0826
     12 C10        -4.2200   -2.0851   -2.5558 C.ar      1 <0>        -0.1022
     13 C11        -2.8896   -1.9081   -2.8748 C.ar      1 <0>        -0.0685
     14 C12        -6.1846   -1.7511   -1.0425 C.3       1 <0>         0.1541
     15 N2         -6.9645   -0.6390   -1.5914 N.pl3     1 <0>        -1.1119
     16 S1         -8.6124   -0.7589   -1.7030 S.o2      1 <0>         2.6957
     17 O2         -9.0736    0.4726   -2.2415 O.2       1 <0>        -0.9491
     18 O3         -8.8878   -2.0100   -2.3178 O.2       1 <0>        -0.9475
     19 C13        -9.2401   -0.8563   -0.0595 C.ar      1 <0>        -0.6679
     20 C14        -9.3917   -2.0878    0.5506 C.ar      1 <0>        -0.0191
     21 C15        -9.8841   -2.1651    1.8398 C.ar      1 <0>        -0.1245
     22 C16       -10.2257   -1.0110    2.5198 C.ar      1 <0>        -0.0536
     23 C17       -10.0742    0.2213    1.9100 C.ar      1 <0>        -0.0571
     24 C18        -9.5755    0.2984    0.6215 C.ar      1 <0>        -0.0100
     25 Cl1       -10.5030    1.6710    2.7634 Cl        1 <0>        -0.0539
     26 H1          2.3243   -3.0007   -1.3432 H         1 <0>         0.0557
     27 H2          1.8898   -2.6498   -3.0333 H         1 <0>         0.0593
     28 H3          3.4424   -2.0786   -2.3765 H         1 <0>         0.0683
     29 H4          2.2310   -0.5795   -0.8165 H         1 <0>         0.0779
     30 H5          1.7965   -0.2286   -2.5066 H         1 <0>         0.0868
     31 H6         -1.0503   -2.1492   -0.1071 H         1 <0>         0.0885
     32 H7          0.6639   -2.4083    0.2960 H         1 <0>         0.0803
     33 H8          0.8965   -0.2579    1.2389 H         1 <0>         0.0631
     34 H9         -0.5362    0.3719    0.3911 H         1 <0>         0.0654
     35 H10        -0.7333   -0.7454    1.7626 H         1 <0>         0.0724
     36 H11        -1.9324   -0.1333   -0.1448 H         1 <0>         0.1433
     37 H12        -4.3102   -0.4510    0.3985 H         1 <0>         0.1321
     38 H13        -4.8669   -2.6314   -3.2263 H         1 <0>         0.1355
     39 H14        -2.4947   -2.3148   -3.7941 H         1 <0>         0.1337
     40 H15        -6.5372   -2.6889   -1.4719 H         1 <0>         0.0942
     41 H16        -6.3048   -1.7795    0.0405 H         1 <0>         0.0784
     42 H17        -6.5156    0.1676   -1.8894 H         1 <0>         0.4235
     43 H18        -9.1257   -2.9898    0.0194 H         1 <0>         0.1487
     44 H19       -10.0023   -3.1273    2.3158 H         1 <0>         0.1455
     45 H20       -10.6111   -1.0716    3.5269 H         1 <0>         0.1439
     46 H21        -9.4529    1.2605    0.1465 H         1 <0>         0.1516
@<TRIPOS>BOND
     1    1    2 1
     2    1   26 1
     3    1   27 1
     4    1   28 1
     5    2    3 1
     6    2   29 1
     7    2   30 1
     8    3    4 1
     9    3    6 am
    10    4    5 1
    11    4   31 1
    12    4   32 1
    13    5   33 1
    14    5   34 1
    15    5   35 1
    16    6    7 2
    17    6    8 1
    18    8   13 ar
    19    8    9 ar
    20    9   10 ar
    21    9   36 1
    22   10   11 ar
    23   10   37 1
    24   11   12 ar
    25   11   14 1
    26   12   13 ar
    27   12   38 1
    28   13   39 1
    29   14   15 1
    30   14   40 1
    31   14   41 1
    32   15   16 1
    33   15   42 1
    34   16   17 2
    35   16   18 2
    36   16   19 1
    37   19   24 ar
    38   19   20 ar
    39   20   21 ar
    40   20   43 1
    41   21   22 ar
    42   21   44 1
    43   22   23 ar
    44   22   45 1
    45   23   24 ar
    46   23   25 1
    47   24   46 1
@<TRIPOS>MOLECULE
CHEMBL1083395
   38    41     0     0     0
SMALL
USER_CHARGES

@<TRIPOS>ATOM
      1 C1         -0.0845    1.3245    0.0877 C.ar      1 <0>        -0.0822
      2 C2          1.0925    2.0524    0.0642 C.ar      1 <0>        -0.1314
      3 C3          2.3084    1.4030    0.0313 C.ar      1 <0>        -0.0564
      4 C4          2.3504    0.0052    0.0221 C.ar      1 <0>        -0.1741
      5 C5          1.1567   -0.7232    0.0465 C.ar      1 <0>        -0.0727
      6 C6         -0.0513   -0.0591    0.0788 C.ar      1 <0>        -0.1317
      7 C7          3.6439   -0.6958   -0.0134 C.2       1 <0>         0.4074
      8 O1          4.6769   -0.0612   -0.0349 O.2       1 <0>        -0.4432
      9 C8          3.6846   -2.2022   -0.0232 C.3       1 <0>        -0.1933
     10 C9          5.1399   -2.6728   -0.0614 C.3       1 <0>         0.1194
     11 N1          5.1795   -4.1372   -0.0708 N.pl3     1 <0>        -0.3741
     12 C10         5.3045   -4.9649    0.9964 C.2       1 <0>         0.2961
     13 N2          5.2942   -6.1970    0.5323 N.2       1 <0>        -0.3170
     14 N3          5.1718   -6.1948   -0.7460 N.2       1 <0>        -0.0323
     15 N4          5.0900   -4.9866   -1.1875 N.2       1 <0>        -0.0744
     16 C11         5.4293   -4.5598    2.4138 C.ar      1 <0>        -0.0342
     17 C12         5.9517   -5.4506    3.3521 C.ar      1 <0>        -0.0445
     18 C13         6.0671   -5.0718    4.6730 C.ar      1 <0>        -0.0982
     19 C14         5.6654   -3.8057    5.0738 C.ar      1 <0>         0.0647
     20 C15         5.1429   -2.9111    4.1406 C.ar      1 <0>         0.0373
     21 C16         5.0302   -3.2842    2.8141 C.ar      1 <0>        -0.0927
     22 O2          4.8274   -1.7475    4.7815 O.3       1 <0>        -0.3023
     23 C17         4.7798   -2.0809    6.1814 C.3       1 <0>         0.2117
     24 O3          5.6766   -3.2012    6.2973 O.3       1 <0>        -0.3008
     25 H1         -1.0337    1.8389    0.1176 H         1 <0>         0.1302
     26 H2          1.0584    3.1318    0.0713 H         1 <0>         0.1321
     27 H3          3.2259    1.9724    0.0123 H         1 <0>         0.1359
     28 H4          1.1810   -1.8029    0.0392 H         1 <0>         0.1306
     29 H5         -0.9740   -0.6201    0.0976 H         1 <0>         0.1316
     30 H6          3.2026   -2.5845    0.8766 H         1 <0>         0.1115
     31 H7          3.1593   -2.5742   -0.9028 H         1 <0>         0.1217
     32 H8          5.6220   -2.2905   -0.9611 H         1 <0>         0.1223
     33 H9          5.6653   -2.3008    0.8183 H         1 <0>         0.1200
     34 H10         6.2654   -6.4370    3.0439 H         1 <0>         0.1588
     35 H11         6.4710   -5.7630    5.3979 H         1 <0>         0.1518
     36 H12         4.6299   -2.5907    2.0894 H         1 <0>         0.1425
     37 H13         5.1311   -1.2450    6.7863 H         1 <0>         0.1386
     38 H14         3.7693   -2.3676    6.4726 H         1 <0>         0.0915
@<TRIPOS>BOND
     1    1    6 ar
     2    1    2 ar
     3    1   25 1
     4    2    3 ar
     5    2   26 1
     6    3    4 ar
     7    3   27 1
     8    4    5 ar
     9    4    7 1
    10    5    6 ar
    11    5   28 1
    12    6   29 1
    13    7    8 2
    14    7    9 1
    15    9   10 1
    16    9   30 1
    17    9   31 1
    18   10   11 1
    19   10   32 1
    20   10   33 1
    21   11   15 1
    22   11   12 1
    23   12   13 2
    24   12   16 1
    25   13   14 1
    26   14   15 2
    27   16   21 ar
    28   16   17 ar
    29   17   18 ar
    30   17   34 1
    31   18   19 ar
    32   18   35 1
    33   19   24 1
    34   19   20 ar
    35   20   21 ar
    36   20   22 1
    37   21   36 1
    38   22   23 1
    39   23   24 1
    40   23   37 1
    41   23   38 1
@<TRIPOS>MOLECULE
CHEMBL562195
   46    48     0     0     0
SMALL
USER_CHARGES

@<TRIPOS>ATOM
      1 C1          0.3744   -0.5164    1.3270 C.3       1 <0>         0.0242
      2 O1          0.0629    0.0025    0.0325 O.3       1 <0>        -0.3127
      3 C2          0.6511   -0.6013   -1.0312 C.ar      1 <0>         0.1528
      4 C3          1.5077   -1.6774   -0.8310 C.ar      1 <0>        -0.2171
      5 C4          2.1064   -2.2928   -1.9076 C.ar      1 <0>        -0.0478
      6 C5          1.8514   -1.8342   -3.2027 C.ar      1 <0>        -0.1734
      7 C6          0.9892   -0.7524   -3.3997 C.ar      1 <0>        -0.0243
      8 C7          0.3907   -0.1455   -2.3182 C.ar      1 <0>        -0.1579
      9 C8          2.4914   -2.4906   -4.3594 C.2       1 <0>         0.5596
     10 O2          2.8943   -1.8220   -5.2916 O.2       1 <0>        -0.5311
     11 N1          2.6293   -3.8311   -4.3824 N.am      1 <0>        -0.6007
     12 C9          2.0113   -4.6246   -3.3020 C.3       1 <0>         0.0999
     13 C10         1.3295   -5.8980   -3.8344 C.3       1 <0>        -0.1329
     14 C11         0.6052   -5.5979   -5.1235 C.3       1 <0>        -0.1072
     15 C12         1.5365   -5.8678   -6.3015 C.3       1 <0>        -0.0436
     16 C13         2.4219   -4.7442   -6.6438 C.3       1 <0>        -0.1267
     17 C14         3.3714   -4.4330   -5.4674 C.3       1 <0>         0.1189
     18 C15         0.6974   -6.2007   -7.5082 C.ar      1 <0>        -0.0792
     19 C16        -0.2118   -5.2793   -7.9933 C.ar      1 <0>        -0.1138
     20 C17        -0.9814   -5.5847   -9.1003 C.ar      1 <0>        -0.1177
     21 C18        -0.8415   -6.8112   -9.7224 C.ar      1 <0>        -0.1252
     22 C19         0.0684   -7.7321   -9.2378 C.ar      1 <0>        -0.1182
     23 C20         0.8411   -7.4251   -8.1335 C.ar      1 <0>        -0.1188
     24 H1          0.0737   -1.5627    1.3810 H         1 <0>         0.0587
     25 H2          1.4474   -0.4372    1.5017 H         1 <0>         0.0587
     26 H3         -0.1604    0.0550    2.0857 H         1 <0>         0.1037
     27 H4          1.7043   -2.0312    0.1703 H         1 <0>         0.1353
     28 H5          2.7724   -3.1284   -1.7511 H         1 <0>         0.1340
     29 H6          0.7896   -0.3951   -4.3992 H         1 <0>         0.1385
     30 H7         -0.2790    0.6881   -2.4700 H         1 <0>         0.1389
     31 H8          2.7826   -4.9089   -2.5862 H         1 <0>         0.0667
     32 H9          1.2676   -4.0111   -2.7934 H         1 <0>         0.0905
     33 H10         2.0840   -6.6640   -4.0136 H         1 <0>         0.0700
     34 H11         0.6160   -6.2620   -3.0952 H         1 <0>         0.0796
     35 H12        -0.2755   -6.2352   -5.2027 H         1 <0>         0.0679
     36 H13         0.2995   -4.5516   -5.1338 H         1 <0>         0.0666
     37 H14         2.1533   -6.7344   -6.0635 H         1 <0>         0.0741
     38 H15         3.0095   -5.0032   -7.5245 H         1 <0>         0.0758
     39 H16         1.8186   -3.8630   -6.8622 H         1 <0>         0.0708
     40 H17         4.1455   -3.7435   -5.8041 H         1 <0>         0.0855
     41 H18         3.8345   -5.3572   -5.1216 H         1 <0>         0.0772
     42 H19        -0.3211   -4.3211   -7.5073 H         1 <0>         0.1184
     43 H20        -1.6923   -4.8651   -9.4788 H         1 <0>         0.1207
     44 H21        -1.4433   -7.0500  -10.5868 H         1 <0>         0.1204
     45 H22         0.1775   -8.6905   -9.7237 H         1 <0>         0.1210
     46 H23         1.5546   -8.1432   -7.7571 H         1 <0>         0.1199
@<TRIPOS>BOND
     1    1    2 1
     2    1   24 1
     3    1   25 1
     4    1   26 1
     5    2    3 1
     6    3    8 ar
     7    3    4 ar
     8    4    5 ar
     9    4   27 1
    10    5    6 ar
    11    5   28 1
    12    6    7 ar
    13    6    9 1
    14    7    8 ar
    15    7   29 1
    16    8   30 1
    17    9   10 2
    18    9   11 am
    19   11   17 1
    20   11   12 1
    21   12   13 1
    22   12   31 1
    23   12   32 1
    24   13   14 1
    25   13   33 1
    26   13   34 1
    27   14   15 1
    28   14   35 1
    29   14   36 1
    30   15   16 1
    31   15   18 1
    32   15   37 1
    33   16   17 1
    34   16   38 1
    35   16   39 1
    36   17   40 1
    37   17   41 1
    38   18   23 ar
    39   18   19 ar
    40   19   20 ar
    41   19   42 1
    42   20   21 ar
    43   20   43 1
    44   21   22 ar
    45   21   44 1
    46   22   23 ar
    47   22   45 1
    48   23   46 1
@<TRIPOS>MOLECULE
CHEMBL562195__1
   46    48     0     0     0
SMALL
USER_CHARGES

@<TRIPOS>ATOM
      1 C1         -1.3556   -0.5482    0.3461 C.3       1 <0>         0.0243
      2 O1         -0.0894   -0.0140   -0.0458 O.3       1 <0>        -0.3128
      3 C2          0.5356   -0.6138   -1.0904 C.ar      1 <0>         0.1504
      4 C3         -0.0632   -1.6932   -1.7294 C.ar      1 <0>        -0.2146
      5 C4          0.5677   -2.3045   -2.7898 C.ar      1 <0>        -0.0488
      6 C5          1.8114   -1.8380   -3.2235 C.ar      1 <0>        -0.1691
      7 C6          2.4099   -0.7523   -2.5788 C.ar      1 <0>        -0.0285
      8 C7          1.7702   -0.1434   -1.5223 C.ar      1 <0>        -0.1553
      9 C8          2.4914   -2.4906   -4.3594 C.2       1 <0>         0.5600
     10 O2          2.9272   -1.8189   -5.2744 O.2       1 <0>        -0.5307
     11 N1          2.6293   -3.8311   -4.3824 N.am      1 <0>        -0.5993
     12 C9          2.0113   -4.6246   -3.3020 C.3       1 <0>         0.0974
     13 C10         2.9367   -5.7509   -2.8070 C.3       1 <0>        -0.1323
     14 C11         4.3591   -5.2543   -2.7240 C.3       1 <0>        -0.1069
     15 C12         5.0735   -5.5441   -4.0405 C.3       1 <0>        -0.0437
     16 C13         4.8729   -4.5198   -5.0770 C.3       1 <0>        -0.1254
     17 C14         3.3714   -4.4330   -5.4674 C.3       1 <0>         0.1161
     18 C15         6.5505   -5.6650   -3.7669 C.ar      1 <0>        -0.0793
     19 C16         7.2410   -4.6009   -3.2175 C.ar      1 <0>        -0.1140
     20 C17         8.5959   -4.7118   -2.9664 C.ar      1 <0>        -0.1177
     21 C18         9.2601   -5.8870   -3.2644 C.ar      1 <0>        -0.1251
     22 C19         8.5694   -6.9513   -3.8130 C.ar      1 <0>        -0.1181
     23 C20         7.2137   -6.8419   -4.0600 C.ar      1 <0>        -0.1187
     24 H1         -2.0524   -0.4816   -0.4894 H         1 <0>         0.0586
     25 H2         -1.2354   -1.5918    0.6367 H         1 <0>         0.0586
     26 H3         -1.7448    0.0215    1.1900 H         1 <0>         0.1036
     27 H4         -1.0245   -2.0532   -1.3935 H         1 <0>         0.1354
     28 H5          0.1021   -3.1436   -3.2853 H         1 <0>         0.1320
     29 H6          3.3710   -0.3888   -2.9111 H         1 <0>         0.1368
     30 H7          2.2302    0.6984   -1.0260 H         1 <0>         0.1389
     31 H8          1.7792   -3.9643   -2.4663 H         1 <0>         0.0920
     32 H9          1.0849   -5.0643   -3.6713 H         1 <0>         0.0667
     33 H10         2.6104   -6.0795   -1.8203 H         1 <0>         0.0792
     34 H11         2.8869   -6.5905   -3.5003 H         1 <0>         0.0696
     35 H12         4.3590   -4.1801   -2.5390 H         1 <0>         0.0668
     36 H13         4.8752   -5.7638   -1.9103 H         1 <0>         0.0679
     37 H14         4.7170   -6.4998   -4.4247 H         1 <0>         0.0745
     38 H15         5.2043   -3.5531   -4.6979 H         1 <0>         0.0687
     39 H16         5.4592   -4.7790   -5.9586 H         1 <0>         0.0758
     40 H17         2.9868   -5.4349   -5.6583 H         1 <0>         0.0776
     41 H18         3.2598   -3.8247   -6.3649 H         1 <0>         0.0887
     42 H19         6.7221   -3.6828   -2.9846 H         1 <0>         0.1183
     43 H20         9.1355   -3.8803   -2.5378 H         1 <0>         0.1208
     44 H21        10.3187   -5.9734   -3.0689 H         1 <0>         0.1205
     45 H22         9.0884   -7.8693   -4.0461 H         1 <0>         0.1210
     46 H23         6.6733   -7.6748   -4.4852 H         1 <0>         0.1200
@<TRIPOS>BOND
     1    1    2 1
     2    1   24 1
     3    1   25 1
     4    1   26 1
     5    2    3 1
     6    3    8 ar
     7    3    4 ar
     8    4    5 ar
     9    4   27 1
    10    5    6 ar
    11    5   28 1
    12    6    7 ar
    13    6    9 1
    14    7    8 ar
    15    7   29 1
    16    8   30 1
    17    9   10 2
    18    9   11 am
    19   11   17 1
    20   11   12 1
    21   12   13 1
    22   12   31 1
    23   12   32 1
    24   13   14 1
    25   13   33 1
    26   13   34 1
    27   14   15 1
    28   14   35 1
    29   14   36 1
    30   15   16 1
    31   15   18 1
    32   15   37 1
    33   16   17 1
    34   16   38 1
    35   16   39 1
    36   17   40 1
    37   17   41 1
    38   18   23 ar
    39   18   19 ar
    40   19   20 ar
    41   19   42 1
    42   20   21 ar
    43   20   43 1
    44   21   22 ar
    45   21   44 1
    46   22   23 ar
    47   22   45 1
    48   23   46 1
@<TRIPOS>MOLECULE
CHEMBL1098145
   57    61     0     0     0
SMALL
USER_CHARGES

@<TRIPOS>ATOM
      1 C1          1.4647   -2.1484   -0.2682 C.ar      1 <0>        -0.0908
      2 C2          2.7915   -2.4773   -0.4535 C.ar      1 <0>        -0.0672
      3 C3          3.1355   -3.7590   -0.8878 C.ar      1 <0>         0.0186
      4 C4          2.1325   -4.6993   -1.1316 C.ar      1 <0>        -0.0674
      5 C5          0.8097   -4.3569   -0.9422 C.ar      1 <0>        -0.0937
      6 C6          0.4759   -3.0851   -0.5117 C.ar      1 <0>        -0.1316
      7 C7         -0.9714   -2.7185   -0.3066 C.3       1 <0>         0.0242
      8 N1         -1.5205   -2.1742   -1.5556 N.4       1 <0>        -0.3744
      9 C8         -0.8907   -0.8691   -1.8489 C.3       1 <0>        -0.0107
     10 C9         -2.0212   -0.0166   -2.4772 C.3       1 <0>        -0.1379
     11 C10        -3.2535   -0.4740   -1.6531 C.3       1 <0>        -0.1276
     12 C11        -2.9740   -1.9724   -1.4124 C.3       1 <0>         0.0020
     13 H1         -3.5061   -2.5722   -2.1507 H         1 <0>         0.1534
     14 C12        -3.4106   -2.3586   -0.0227 C.2       1 <0>         0.5008
     15 O1         -2.8957   -1.8346    0.9423 O.2       1 <0>        -0.5087
     16 N2         -4.3734   -3.2863    0.1478 N.am      1 <0>        -0.6967
     17 C13        -4.7978   -3.6617    1.4988 C.3       1 <0>         0.1530
     18 C14        -3.8635   -4.7432    2.0449 C.3       1 <0>        -0.0923
     19 C15        -3.9173   -5.9712    1.1337 C.3       1 <0>        -0.1070
     20 C16        -5.3486   -6.5096    1.0874 C.3       1 <0>        -0.0886
     21 C17        -5.7920   -6.9017    2.4983 C.3       1 <0>        -0.1117
     22 C18        -5.7382   -5.6737    3.4095 C.3       1 <0>        -0.0907
     23 C19        -4.3068   -5.1353    3.4558 C.3       1 <0>        -0.1083
     24 C20        -6.6725   -4.5922    2.8634 C.3       1 <0>        -0.1079
     25 C21        -6.2292   -4.2001    1.4525 C.3       1 <0>        -0.0932
     26 C22        -6.2830   -5.4281    0.5413 C.3       1 <0>        -0.1107
     27 C23         4.5108   -4.1073   -1.0827 C.1       1 <0>         0.2271
     28 N3          5.6018   -4.3837   -1.2373 N.1       1 <0>        -0.3736
     29 H2          1.1974   -1.1588    0.0720 H         1 <0>         0.1425
     30 H3          3.5623   -1.7451   -0.2634 H         1 <0>         0.1473
     31 H4          2.3918   -5.6923   -1.4680 H         1 <0>         0.1465
     32 H5          0.0329   -5.0831   -1.1308 H         1 <0>         0.1405
     33 H6         -1.5340   -3.6067   -0.0190 H         1 <0>         0.1305
     34 H7         -1.0483   -1.9690    0.4811 H         1 <0>         0.1681
     35 H8         -0.5321   -0.4057   -0.9297 H         1 <0>         0.1362
     36 H9         -0.0713   -0.9937   -2.5568 H         1 <0>         0.1400
     37 H10        -1.8313    1.0476   -2.3376 H         1 <0>         0.1230
     38 H11        -2.1480   -0.2537   -3.5335 H         1 <0>         0.1027
     39 H12        -3.3062    0.0650   -0.7072 H         1 <0>         0.1097
     40 H13        -4.1713   -0.3403   -2.2258 H         1 <0>         0.1202
     41 H14        -4.7852   -3.7054   -0.6240 H         1 <0>         0.4069
     42 H15        -4.7596   -2.7869    2.1479 H         1 <0>         0.0980
     43 H16        -2.8438   -4.3596    2.0779 H         1 <0>         0.0717
     44 H17        -3.6014   -5.6919    0.1286 H         1 <0>         0.0529
     45 H18        -3.2516   -6.7417    1.5228 H         1 <0>         0.0688
     46 H19        -5.3869   -7.3844    0.4383 H         1 <0>         0.0748
     47 H20        -6.8117   -7.2853    2.4653 H         1 <0>         0.0672
     48 H21        -5.1263   -7.6722    2.8874 H         1 <0>         0.0662
     49 H22        -6.0541   -5.9530    4.4146 H         1 <0>         0.0785
     50 H23        -3.6412   -5.9058    3.8448 H         1 <0>         0.0712
     51 H24        -4.2686   -4.2605    4.1049 H         1 <0>         0.0676
     52 H25        -7.6923   -4.9758    2.8304 H         1 <0>         0.0745
     53 H26        -6.6343   -3.7174    3.5125 H         1 <0>         0.0685
     54 H27        -6.8948   -3.4296    1.0634 H         1 <0>         0.0798
     55 H28        -5.9671   -5.1488   -0.4638 H         1 <0>         0.0551
     56 H29        -7.3027   -5.8117    0.5083 H         1 <0>         0.0747
     57 H30        -1.3396   -2.8143   -2.3143 H         1 <0>         0.4279
@<TRIPOS>BOND
     1    1    6 ar
     2    1    2 ar
     3    1   29 1
     4    2    3 ar
     5    2   30 1
     6    3    4 ar
     7    3   27 1
     8    4    5 ar
     9    4   31 1
    10    5    6 ar
    11    5   32 1
    12    6    7 1
    13    7    8 1
    14    7   33 1
    15    7   34 1
    16    8   12 1
    17    8    9 1
    18    8   57 1
    19    9   10 1
    20    9   35 1
    21    9   36 1
    22   10   11 1
    23   10   37 1
    24   10   38 1
    25   11   12 1
    26   11   39 1
    27   11   40 1
    28   12   13 1
    29   12   14 1
    30   14   15 2
    31   14   16 am
    32   16   17 1
    33   16   41 1
    34   17   25 1
    35   17   18 1
    36   17   42 1
    37   18   23 1
    38   18   19 1
    39   18   43 1
    40   19   20 1
    41   19   44 1
    42   19   45 1
    43   20   26 1
    44   20   21 1
    45   20   46 1
    46   21   22 1
    47   21   47 1
    48   21   48 1
    49   22   23 1
    50   22   24 1
    51   22   49 1
    52   23   50 1
    53   23   51 1
    54   24   25 1
    55   24   52 1
    56   24   53 1
    57   25   26 1
    58   25   54 1
    59   26   55 1
    60   26   56 1
    61   27   28 3
@<TRIPOS>MOLECULE
CHEMBL1098145__1
   56    60     0     0     0
SMALL
USER_CHARGES

@<TRIPOS>ATOM
      1 C1          1.5720   -1.7863   -0.2549 C.ar      1 <0>        -0.1131
      2 C2          2.9124   -2.0539   -0.4413 C.ar      1 <0>        -0.0686
      3 C3          3.3183   -3.3320   -0.8305 C.ar      1 <0>        -0.0313
      4 C4          2.3630   -4.3309   -1.0283 C.ar      1 <0>        -0.0692
      5 C5          1.0259   -4.0496   -0.8384 C.ar      1 <0>        -0.1015
      6 C6          0.6307   -2.7809   -0.4527 C.ar      1 <0>        -0.0446
      7 C7         -0.8318   -2.4812   -0.2467 C.3       1 <0>         0.0764
      8 N1         -1.4185   -2.0137   -1.5097 N.3       1 <0>        -0.4984
      9 C8         -1.0062   -0.6246   -1.8033 C.3       1 <0>         0.0386
     10 C9         -2.2245    0.0059   -2.5229 C.3       1 <0>        -0.1272
     11 C10        -3.4093   -0.6436   -1.7606 C.3       1 <0>        -0.1288
     12 C11        -2.8912   -2.0656   -1.4593 C.3       1 <0>         0.0542
     13 H1         -3.2635   -2.7627   -2.2100 H         1 <0>         0.1033
     14 C12        -3.3424   -2.4958   -0.0873 C.2       1 <0>         0.5031
     15 O1         -2.9024   -1.9411    0.8974 O.2       1 <0>        -0.5360
     16 N2         -4.2349   -3.4969    0.0454 N.am      1 <0>        -0.7185
     17 C13        -4.6736   -3.9151    1.3792 C.3       1 <0>         0.1569
     18 C14        -3.6764   -4.9250    1.9507 C.3       1 <0>        -0.0935
     19 C15        -3.6037   -6.1460    1.0316 C.3       1 <0>        -0.1064
     20 C16        -4.9864   -6.7938    0.9340 C.3       1 <0>        -0.0870
     21 C17        -5.4445   -7.2305    2.3269 C.3       1 <0>        -0.1085
     22 C18        -5.5171   -6.0095    3.2460 C.3       1 <0>        -0.0885
     23 C19        -4.1345   -5.3617    3.3437 C.3       1 <0>        -0.1069
     24 C20        -6.5143   -4.9996    2.6745 C.3       1 <0>        -0.1057
     25 C21        -6.0562   -4.5629    1.2816 C.3       1 <0>        -0.0927
     26 C22        -5.9835   -5.7839    0.3625 C.3       1 <0>        -0.1093
     27 C23         4.7079   -3.6168   -1.0262 C.1       1 <0>         0.2521
     28 N3          5.8104   -3.8428   -1.1815 N.1       1 <0>        -0.4159
     29 H2          1.2570   -0.7994    0.0504 H         1 <0>         0.1301
     30 H3          3.6460   -1.2766   -0.2869 H         1 <0>         0.1326
     31 H4          2.6701   -5.3215   -1.3297 H         1 <0>         0.1325
     32 H5          0.2859   -4.8212   -0.9915 H         1 <0>         0.1312
     33 H6         -1.3455   -3.3854    0.0799 H         1 <0>         0.0809
     34 H7         -0.9405   -1.7071    0.5129 H         1 <0>         0.0805
     35 H8         -0.7924   -0.0887   -0.8786 H         1 <0>         0.0540
     36 H9         -0.1340   -0.6178   -2.4571 H         1 <0>         0.0873
     37 H10        -2.2305    1.0894   -2.4037 H         1 <0>         0.0796
     38 H11        -2.2407   -0.2695   -3.5774 H         1 <0>         0.0798
     39 H12        -3.6146   -0.1043   -0.8358 H         1 <0>         0.0773
     40 H13        -4.2979   -0.6826   -2.3906 H         1 <0>         0.0823
     41 H14        -4.5868   -3.9406   -0.7421 H         1 <0>         0.4001
     42 H15        -4.7253   -3.0452    2.0340 H         1 <0>         0.0872
     43 H16        -2.6914   -4.4635    2.0203 H         1 <0>         0.0732
     44 H17        -3.2773   -5.8349    0.0393 H         1 <0>         0.0608
     45 H18        -2.8933   -6.8655    1.4388 H         1 <0>         0.0631
     46 H19        -4.9346   -7.6637    0.2792 H         1 <0>         0.0709
     47 H20        -6.4295   -7.6921    2.2574 H         1 <0>         0.0625
     48 H21        -4.7341   -7.9500    2.7341 H         1 <0>         0.0628
     49 H22        -5.8435   -6.3206    4.2384 H         1 <0>         0.0723
     50 H23        -3.4241   -6.0812    3.7508 H         1 <0>         0.0660
     51 H24        -4.1863   -4.4918    3.9985 H         1 <0>         0.0639
     52 H25        -7.4993   -5.4611    2.6049 H         1 <0>         0.0684
     53 H26        -6.5661   -4.1297    3.3293 H         1 <0>         0.0650
     54 H27        -6.7666   -3.8434    0.8744 H         1 <0>         0.0757
     55 H28        -5.6572   -5.4728   -0.6299 H         1 <0>         0.0591
     56 H29        -6.9685   -6.2454    0.2929 H         1 <0>         0.0679
@<TRIPOS>BOND
     1    1    6 ar
     2    1    2 ar
     3    1   29 1
     4    2    3 ar
     5    2   30 1
     6    3    4 ar
     7    3   27 1
     8    4    5 ar
     9    4   31 1
    10    5    6 ar
    11    5   32 1
    12    6    7 1
    13    7    8 1
    14    7   33 1
    15    7   34 1
    16    8   12 1
    17    8    9 1
    18    9   10 1
    19    9   35 1
    20    9   36 1
    21   10   11 1
    22   10   37 1
    23   10   38 1
    24   11   12 1
    25   11   39 1
    26   11   40 1
    27   12   13 1
    28   12   14 1
    29   14   15 2
    30   14   16 am
    31   16   17 1
    32   16   41 1
    33   17   25 1
    34   17   18 1
    35   17   42 1
    36   18   23 1
    37   18   19 1
    38   18   43 1
    39   19   20 1
    40   19   44 1
    41   19   45 1
    42   20   26 1
    43   20   21 1
    44   20   46 1
    45   21   22 1
    46   21   47 1
    47   21   48 1
    48   22   23 1
    49   22   24 1
    50   22   49 1
    51   23   50 1
    52   23   51 1
    53   24   25 1
    54   24   52 1
    55   24   53 1
    56   25   26 1
    57   25   54 1
    58   26   55 1
    59   26   56 1
    60   27   28 3
@<TRIPOS>MOLECULE
CHEMBL1082490
   41    43     0     0     0
SMALL
USER_CHARGES

@<TRIPOS>ATOM
      1 C1          0.0005    1.3870   -0.0025 C.ar      1 <0>        -0.1012
      2 C2          0.5435    0.9247    1.1821 C.ar      1 <0>        -0.0978
      3 C3          1.7472    0.2473    1.1737 C.ar      1 <0>        -0.1129
      4 C4          2.4118    0.0308   -0.0256 C.ar      1 <0>         0.1188
      5 C5          1.8642    0.4961   -1.2133 C.ar      1 <0>        -0.0940
      6 C6          0.6602    1.1728   -1.1987 C.ar      1 <0>        -0.1006
      7 N1          3.6345   -0.6564   -0.0373 N.pl3     1 <0>        -0.3299
      8 C7          3.9499   -1.7808    0.6414 C.2       1 <0>         0.2548
      9 N2          5.1875   -2.0795    0.3440 N.2       1 <0>        -0.3236
     10 N3          5.6760   -1.2207   -0.4763 N.2       1 <0>        -0.0322
     11 N4          4.7928   -0.3259   -0.7627 N.2       1 <0>        -0.0740
     12 C8          3.0436   -2.5484    1.5690 C.3       1 <0>        -0.0424
     13 C9          2.3728   -3.6878    0.7993 C.3       1 <0>        -0.1684
     14 C10         1.3799   -4.3829    1.6950 C.2       1 <0>         0.3673
     15 O1          1.2249   -4.0057    2.8317 O.2       1 <0>        -0.4442
     16 C11         0.5806   -5.5485    1.1722 C.3       1 <0>        -0.1335
     17 C12         1.3423   -6.8488    1.4366 C.3       1 <0>        -0.1079
     18 C13         0.5307   -8.0322    0.9058 C.3       1 <0>        -0.1181
     19 C14        -0.8237   -8.0812    1.6157 C.3       1 <0>        -0.1235
     20 C15        -1.5854   -6.7809    1.3513 C.3       1 <0>        -0.1195
     21 C16        -0.7739   -5.5975    1.8821 C.3       1 <0>        -0.1080
     22 H1         -0.9430    1.9126    0.0060 H         1 <0>         0.1365
     23 H2          0.0261    1.0938    2.1149 H         1 <0>         0.1404
     24 H3          2.1710   -0.1132    2.0993 H         1 <0>         0.1362
     25 H4          2.3793    0.3294   -2.1479 H         1 <0>         0.1367
     26 H5          0.2335    1.5347   -2.1225 H         1 <0>         0.1395
     27 H6          3.6295   -2.9604    2.3907 H         1 <0>         0.1186
     28 H7          2.2802   -1.8797    1.9667 H         1 <0>         0.1046
     29 H8          1.8560   -3.2835   -0.0711 H         1 <0>         0.1012
     30 H9          3.1297   -4.4013    0.4735 H         1 <0>         0.1143
     31 H10         0.4246   -5.4304    0.0999 H         1 <0>         0.0961
     32 H11         2.3072   -6.8139    0.9308 H         1 <0>         0.0695
     33 H12         1.4982   -6.9669    2.5089 H         1 <0>         0.0701
     34 H13         0.3748   -7.9141   -0.1665 H         1 <0>         0.0649
     35 H14         1.0733   -8.9586    1.0941 H         1 <0>         0.0678
     36 H15        -1.4019   -8.9243    1.2376 H         1 <0>         0.0641
     37 H16        -0.6678   -8.1993    2.6880 H         1 <0>         0.0636
     38 H17        -1.7414   -6.6627    0.2790 H         1 <0>         0.0630
     39 H18        -2.5503   -6.8158    1.8571 H         1 <0>         0.0661
     40 H19        -0.6179   -5.7156    2.9544 H         1 <0>         0.0740
     41 H20        -1.3165   -4.6711    1.6938 H         1 <0>         0.0636
@<TRIPOS>BOND
     1    1    6 ar
     2    1    2 ar
     3    1   22 1
     4    2    3 ar
     5    2   23 1
     6    3    4 ar
     7    3   24 1
     8    4    5 ar
     9    4    7 1
    10    5    6 ar
    11    5   25 1
    12    6   26 1
    13    7   11 1
    14    7    8 1
    15    8    9 2
    16    8   12 1
    17    9   10 1
    18   10   11 2
    19   12   13 1
    20   12   27 1
    21   12   28 1
    22   13   14 1
    23   13   29 1
    24   13   30 1
    25   14   15 2
    26   14   16 1
    27   16   21 1
    28   16   17 1
    29   16   31 1
    30   17   18 1
    31   17   32 1
    32   17   33 1
    33   18   19 1
    34   18   34 1
    35   18   35 1
    36   19   20 1
    37   19   36 1
    38   19   37 1
    39   20   21 1
    40   20   38 1
    41   20   39 1
    42   21   40 1
    43   21   41 1
@<TRIPOS>MOLECULE
CHEMBL1085963
   39    41     0     0     0
SMALL
USER_CHARGES

@<TRIPOS>ATOM
      1 C1         -0.1662    1.3812   -0.0414 C.3       1 <0>         0.0222
      2 O1         -0.1174   -0.0470   -0.0435 O.3       1 <0>        -0.3106
      3 C2          0.5101   -0.6411   -1.0915 C.ar      1 <0>         0.1591
      4 C3          1.0724    0.1381   -2.0943 C.ar      1 <0>        -0.2080
      5 C4          1.7104   -0.4613   -3.1590 C.ar      1 <0>        -0.0166
      6 C5          1.7908   -1.8527   -3.2286 C.ar      1 <0>        -0.0835
      7 C6          1.2246   -2.6324   -2.2191 C.ar      1 <0>        -0.0662
      8 C7          0.5928   -2.0260   -1.1547 C.ar      1 <0>        -0.1482
      9 C8          2.4743   -2.4997   -4.3699 C.2       1 <0>         0.3005
     10 N1          2.7345   -1.9526   -5.5390 N.2       1 <0>        -0.3257
     11 N2          3.3387   -2.7897   -6.3026 N.2       1 <0>        -0.0341
     12 N3          3.5076   -3.9129   -5.6932 N.2       1 <0>        -0.0802
     13 N4          2.9565   -3.7668   -4.4082 N.pl3     1 <0>        -0.3779
     14 C9          2.9102   -4.7691   -3.3406 C.3       1 <0>         0.1214
     15 C10         1.6709   -5.6483   -3.5200 C.3       1 <0>        -0.1935
     16 C11         1.6232   -6.6793   -2.4219 C.2       1 <0>         0.4077
     17 O2          2.4944   -6.7080   -1.5790 O.2       1 <0>        -0.4440
     18 C12         0.5193   -7.6512   -2.3726 C.ar      1 <0>        -0.1748
     19 C13        -0.4843   -7.6250   -3.3462 C.ar      1 <0>        -0.0724
     20 C14        -1.5151   -8.5393   -3.2934 C.ar      1 <0>        -0.1316
     21 C15        -1.5582   -9.4813   -2.2802 C.ar      1 <0>        -0.0821
     22 C16        -0.5690   -9.5134   -1.3127 C.ar      1 <0>        -0.1316
     23 C17         0.4715   -8.6095   -1.3551 C.ar      1 <0>        -0.0567
     24 H1          0.8485    1.7793   -0.0391 H         1 <0>         0.0608
     25 H2         -0.6906    1.7281   -0.9317 H         1 <0>         0.0611
     26 H3         -0.6936    1.7254    0.8483 H         1 <0>         0.1056
     27 H4          1.0094    1.2149   -2.0399 H         1 <0>         0.1420
     28 H5          2.1471    0.1452   -3.9386 H         1 <0>         0.1450
     29 H6          1.2850   -3.7095   -2.2698 H         1 <0>         0.1362
     30 H7          0.1580   -2.6286   -0.3710 H         1 <0>         0.1430
     31 H8          3.8053   -5.3894   -3.3855 H         1 <0>         0.1200
     32 H9          2.8634   -4.2681   -2.3737 H         1 <0>         0.1196
     33 H10         0.7758   -5.0280   -3.4751 H         1 <0>         0.1123
     34 H11         1.7177   -6.1492   -4.4870 H         1 <0>         0.1205
     35 H12        -0.4523   -6.8903   -4.1372 H         1 <0>         0.1309
     36 H13        -2.2911   -8.5202   -4.0443 H         1 <0>         0.1316
     37 H14        -2.3681  -10.1948   -2.2442 H         1 <0>         0.1301
     38 H15        -0.6097  -10.2512   -0.5251 H         1 <0>         0.1320
     39 H16         1.2450   -8.6387   -0.6020 H         1 <0>         0.1359
@<TRIPOS>BOND
     1    1    2 1
     2    1   24 1
     3    1   25 1
     4    1   26 1
     5    2    3 1
     6    3    8 ar
     7    3    4 ar
     8    4    5 ar
     9    4   27 1
    10    5    6 ar
    11    5   28 1
    12    6    7 ar
    13    6    9 1
    14    7    8 ar
    15    7   29 1
    16    8   30 1
    17    9   13 1
    18    9   10 2
    19   10   11 1
    20   11   12 2
    21   12   13 1
    22   13   14 1
    23   14   15 1
    24   14   31 1
    25   14   32 1
    26   15   16 1
    27   15   33 1
    28   15   34 1
    29   16   17 2
    30   16   18 1
    31   18   23 ar
    32   18   19 ar
    33   19   20 ar
    34   19   35 1
    35   20   21 ar
    36   20   36 1
    37   21   22 ar
    38   21   37 1
    39   22   23 ar
    40   22   38 1
    41   23   39 1
@<TRIPOS>MOLECULE
CHEMBL592717
   47    50     0     0     0
SMALL
USER_CHARGES

@<TRIPOS>ATOM
      1 C1          0.8360   -0.6276   -3.1693 C.ar      1 <0>        -0.1305
      2 C2          1.9690    0.1644   -3.1749 C.ar      1 <0>        -0.1216
      3 C3          3.1095   -0.2561   -2.5167 C.ar      1 <0>        -0.1167
      4 C4          3.1169   -1.4683   -1.8524 C.ar      1 <0>        -0.0708
      5 C5          1.9837   -2.2599   -1.8460 C.ar      1 <0>        -0.1130
      6 C6          0.8436   -1.8401   -2.5054 C.ar      1 <0>        -0.1201
      7 C7          4.3606   -1.9271   -1.1356 C.3       1 <0>        -0.1039
      8 C8          4.3305   -1.4261    0.3097 C.3       1 <0>         0.1415
      9 N1          5.5395   -1.8721    1.0065 N.pl3     1 <0>        -0.8905
     10 C9          5.6354   -3.1686    1.5425 C.2       1 <0>        -0.2321
     11 C10         6.8155   -3.8275    1.6410 C.2       1 <0>         0.2597
     12 C11         8.1054   -3.2806    1.2048 C.ar      1 <0>         0.0217
     13 C12         9.2078   -4.1246    1.0280 C.ar      1 <0>        -0.0992
     14 C13        10.4143   -3.6001    0.6166 C.ar      1 <0>        -0.0827
     15 C14        10.5453   -2.2433    0.3756 C.ar      1 <0>        -0.1450
     16 C15         9.4607   -1.3978    0.5482 C.ar      1 <0>        -0.0305
     17 C16         8.2547   -1.9100    0.9586 C.ar      1 <0>        -0.6532
     18 S1          6.8544   -0.8636    1.1867 S.o2      1 <0>         2.6863
     19 O1          6.8330    0.0469    0.0959 O.2       1 <0>        -0.9715
     20 O2          6.8717   -0.4410    2.5433 O.2       1 <0>        -0.9591
     21 O3          6.8037   -5.0709    2.1769 O.3       1 <0>        -0.6617
     22 C17         4.4570   -3.8085    1.9949 C.2       1 <0>         0.4857
     23 O4          3.6935   -3.2220    2.7420 O.2       1 <0>        -0.5022
     24 C18         4.1521   -5.1893    1.5611 C.ar      1 <0>        -0.1211
     25 C19         4.9583   -5.8201    0.6120 C.ar      1 <0>        -0.0148
     26 C20         4.6683   -7.1079    0.2117 C.ar      1 <0>        -0.1521
     27 C21         3.5811   -7.7744    0.7488 C.ar      1 <0>        -0.1075
     28 C22         2.7779   -7.1549    1.6900 C.ar      1 <0>        -0.1509
     29 C23         3.0601   -5.8694    2.1032 C.ar      1 <0>        -0.0793
     30 H1         -0.0565   -0.2971   -3.6797 H         1 <0>         0.1164
     31 H2          1.9631    1.1115   -3.6939 H         1 <0>         0.1184
     32 H3          3.9949    0.3624   -2.5217 H         1 <0>         0.1248
     33 H4          1.9896   -3.2072   -1.3272 H         1 <0>         0.1227
     34 H5         -0.0416   -2.4588   -2.5007 H         1 <0>         0.1185
     35 H6          4.4027   -3.0163   -1.1418 H         1 <0>         0.0820
     36 H7          5.2397   -1.5268   -1.6407 H         1 <0>         0.0795
     37 H8          4.2885   -0.3369    0.3158 H         1 <0>         0.0739
     38 H9          3.4515   -1.8264    0.8148 H         1 <0>         0.0846
     39 H10         9.1134   -5.1843    1.2138 H         1 <0>         0.1401
     40 H11        11.2639   -4.2528    0.4809 H         1 <0>         0.1253
     41 H12        11.4948   -1.8426    0.0527 H         1 <0>         0.1267
     42 H13         9.5638   -0.3393    0.3601 H         1 <0>         0.1296
     43 H14         5.8070   -5.3009    0.1918 H         1 <0>         0.1302
     44 H15         5.2911   -7.5970   -0.5227 H         1 <0>         0.1143
     45 H16         3.3582   -8.7825    0.4317 H         1 <0>         0.1120
     46 H17         1.9308   -7.6806    2.1052 H         1 <0>         0.1144
     47 H18         2.4352   -5.3888    2.8414 H         1 <0>         0.1218
@<TRIPOS>BOND
     1    1    6 ar
     2    1    2 ar
     3    1   30 1
     4    2    3 ar
     5    2   31 1
     6    3    4 ar
     7    3   32 1
     8    4    5 ar
     9    4    7 1
    10    5    6 ar
    11    5   33 1
    12    6   34 1
    13    7    8 1
    14    7   35 1
    15    7   36 1
    16    8    9 1
    17    8   37 1
    18    8   38 1
    19    9   18 1
    20    9   10 1
    21   10   11 2
    22   10   22 1
    23   11   12 1
    24   11   21 1
    25   12   17 ar
    26   12   13 ar
    27   13   14 ar
    28   13   39 1
    29   14   15 ar
    30   14   40 1
    31   15   16 ar
    32   15   41 1
    33   16   17 ar
    34   16   42 1
    35   17   18 1
    36   18   19 2
    37   18   20 2
    38   22   23 2
    39   22   24 1
    40   24   29 ar
    41   24   25 ar
    42   25   26 ar
    43   25   43 1
    44   26   27 ar
    45   26   44 1
    46   27   28 ar
    47   27   45 1
    48   28   29 ar
    49   28   46 1
    50   29   47 1
@<TRIPOS>MOLECULE
CHEMBL602514
   44    47     0     0     0
SMALL
USER_CHARGES

@<TRIPOS>ATOM
      1 C1          0.6080    2.7445    2.8205 C.ar      1 <0>        -0.1229
      2 C2          1.8433    3.1526    2.3532 C.ar      1 <0>        -0.1257
      3 C3          2.6487    2.2657    1.6635 C.ar      1 <0>        -0.0901
      4 C4          2.2191    0.9707    1.4415 C.ar      1 <0>        -0.0998
      5 C5          0.9842    0.5624    1.9097 C.ar      1 <0>        -0.1023
      6 C6          0.1781    1.4497    2.5981 C.ar      1 <0>        -0.1287
      7 C7          3.0967    0.0042    0.6888 C.3       1 <0>         0.1689
      8 N1          3.9632   -0.7057    1.6329 N.pl3     1 <0>        -0.8851
      9 C8          5.1501   -0.1235    2.1122 C.2       1 <0>        -0.2299
     10 C9          5.6490   -0.4002    3.3415 C.2       1 <0>         0.2605
     11 C10         5.0211   -1.3166    4.3003 C.ar      1 <0>         0.0222
     12 C11         5.3987   -1.2976    5.6478 C.ar      1 <0>        -0.0995
     13 C12         4.8012   -2.1620    6.5398 C.ar      1 <0>        -0.0829
     14 C13         3.8283   -3.0499    6.1140 C.ar      1 <0>        -0.1453
     15 C14         3.4470   -3.0782    4.7818 C.ar      1 <0>        -0.0302
     16 C15         4.0367   -2.2220    3.8848 C.ar      1 <0>        -0.6523
     17 S1          3.5746   -2.2302    2.1836 S.o2      1 <0>         2.6870
     18 O1          2.1587   -2.3408    2.1374 O.2       1 <0>        -0.9702
     19 O2          4.4411   -3.1438    1.5251 O.2       1 <0>        -0.9589
     20 O3          6.8017    0.2080    3.7087 O.3       1 <0>        -0.6622
     21 C16         5.8486    0.7845    1.2811 C.2       1 <0>         0.4859
     22 O4          6.0935    0.4874    0.1250 O.2       1 <0>        -0.5034
     23 C17         6.2812    2.0938    1.8159 C.ar      1 <0>        -0.1228
     24 C18         5.8970    2.4889    3.0985 C.ar      1 <0>        -0.0098
     25 C19         6.3038    3.7114    3.5912 C.ar      1 <0>        -0.1530
     26 C20         7.0911    4.5455    2.8170 C.ar      1 <0>        -0.1065
     27 C21         7.4755    4.1600    1.5449 C.ar      1 <0>        -0.1516
     28 C22         7.0803    2.9376    1.0423 C.ar      1 <0>        -0.0798
     29 H1         -0.0194    3.4361    3.3633 H         1 <0>         0.1147
     30 H2          2.1790    4.1643    2.5266 H         1 <0>         0.1172
     31 H3          3.6135    2.5847    1.2977 H         1 <0>         0.1195
     32 H4          0.6483   -0.4492    1.7360 H         1 <0>         0.1336
     33 H5         -0.7869    1.1308    2.9635 H         1 <0>         0.1168
     34 H6          2.4731   -0.7144    0.1570 H         1 <0>         0.0828
     35 H7          3.7105    0.5520   -0.0264 H         1 <0>         0.0917
     36 H8          6.1568   -0.6076    5.9878 H         1 <0>         0.1396
     37 H9          5.0940   -2.1461    7.5793 H         1 <0>         0.1251
     38 H10         3.3658   -3.7223    6.8213 H         1 <0>         0.1265
     39 H11         2.6880   -3.7713    4.4502 H         1 <0>         0.1294
     40 H12         5.2822    1.8390    3.7036 H         1 <0>         0.1299
     41 H13         6.0070    4.0184    4.5832 H         1 <0>         0.1137
     42 H14         7.4067    5.5018    3.2073 H         1 <0>         0.1118
     43 H15         8.0900    4.8157    0.9458 H         1 <0>         0.1143
     44 H16         7.3849    2.6359    0.0511 H         1 <0>         0.1219
@<TRIPOS>BOND
     1    1    6 ar
     2    1    2 ar
     3    1   29 1
     4    2    3 ar
     5    2   30 1
     6    3    4 ar
     7    3   31 1
     8    4    5 ar
     9    4    7 1
    10    5    6 ar
    11    5   32 1
    12    6   33 1
    13    7    8 1
    14    7   34 1
    15    7   35 1
    16    8   17 1
    17    8    9 1
    18    9   10 2
    19    9   21 1
    20   10   11 1
    21   10   20 1
    22   11   16 ar
    23   11   12 ar
    24   12   13 ar
    25   12   36 1
    26   13   14 ar
    27   13   37 1
    28   14   15 ar
    29   14   38 1
    30   15   16 ar
    31   15   39 1
    32   16   17 1
    33   17   18 2
    34   17   19 2
    35   21   22 2
    36   21   23 1
    37   23   28 ar
    38   23   24 ar
    39   24   25 ar
    40   24   40 1
    41   25   26 ar
    42   25   41 1
    43   26   27 ar
    44   26   42 1
    45   27   28 ar
    46   27   43 1
    47   28   44 1
@<TRIPOS>MOLECULE
CHEMBL489708
   57    59     0     0     0
SMALL
USER_CHARGES

@<TRIPOS>ATOM
      1 C1         -0.4392    1.4380    0.2866 C.3       1 <0>        -0.1872
      2 C2         -0.2028   -0.0679    0.1553 C.3       1 <0>         0.1568
      3 H1         -1.1327   -0.6027    0.3486 H         1 <0>         0.0868
      4 C3          0.2918   -0.3899   -1.2589 C.3       1 <0>         0.0501
      5 N1          0.6636   -1.8092   -1.3328 N.3       1 <0>        -0.5368
      6 C4          1.7816   -2.1148   -0.4302 C.3       1 <0>         0.0387
      7 C5          1.3480   -1.8635    1.0179 C.3       1 <0>         0.1197
      8 N2          0.8217   -0.4932    1.1210 N.pl3     1 <0>        -0.9942
      9 S1          1.3720    0.5442    2.2886 S.o2      1 <0>         2.6877
     10 O1          2.5889   -0.0031    2.7774 O.2       1 <0>        -0.9546
     11 O2          1.2911    1.8526    1.7402 O.2       1 <0>        -0.9467
     12 C6          0.2218    0.4851    3.6221 C.ar      1 <0>        -0.6640
     13 C7         -0.8563    1.3500    3.6439 C.ar      1 <0>        -0.0206
     14 C8         -1.7587    1.3036    4.6900 C.ar      1 <0>        -0.1151
     15 C9         -1.5832    0.3920    5.7143 C.ar      1 <0>        -0.0801
     16 C10        -0.5056   -0.4736    5.6921 C.ar      1 <0>        -0.1122
     17 C11         0.3944   -0.4301    4.6437 C.ar      1 <0>        -0.0164
     18 C12        -2.5664    0.3421    6.8553 C.3       1 <0>         0.1393
     19 C13        -1.8500   -0.1196    8.1259 C.3       1 <0>        -0.1510
     20 C14        -3.6899   -0.6401    6.5178 C.3       1 <0>         0.4277
     21 F1         -3.1495   -1.9139    6.3118 F         1 <0>        -0.1728
     22 F2         -4.6026   -0.6864    7.5770 F         1 <0>        -0.1692
     23 F3         -4.3449   -0.2179    5.3559 F         1 <0>        -0.1795
     24 O3         -3.1183    1.6433    7.0657 O.3       1 <0>        -0.5173
     25 C15         0.9797   -2.1994   -2.7133 C.3       1 <0>         0.0659
     26 C16         1.1172   -3.7210   -2.7944 C.3       1 <0>        -0.0661
     27 C17         1.4415   -4.1213   -4.2106 C.ar      1 <0>         0.1302
     28 C18         2.5598   -4.8936   -4.4632 C.ar      1 <0>        -0.1707
     29 C19         2.8492   -5.2563   -5.7695 C.ar      1 <0>        -0.0723
     30 C20         1.9991   -4.8269   -6.7774 C.ar      1 <0>        -0.1787
     31 C21         0.8997   -4.0571   -6.4487 C.ar      1 <0>         0.1033
     32 N3          0.6523   -3.7354   -5.1938 N.ar      1 <0>        -0.4815
     33 H2          0.4567    1.9750   -0.0249 H         1 <0>         0.0967
     34 H3         -1.2769    1.7309   -0.3464 H         1 <0>         0.0748
     35 H4         -0.6660    1.6811    1.3247 H         1 <0>         0.0662
     36 H5         -0.5015   -0.1839   -1.9774 H         1 <0>         0.0911
     37 H6          1.1609    0.2262   -1.4893 H         1 <0>         0.0435
     38 H7          2.0687   -3.1598   -0.5477 H         1 <0>         0.0930
     39 H8          2.6299   -1.4747   -0.6722 H         1 <0>         0.0422
     40 H9          0.5690   -2.5736    1.2954 H         1 <0>         0.0805
     41 H10         2.2049   -1.9778    1.6818 H         1 <0>         0.1005
     42 H11        -0.9934    2.0622    2.8437 H         1 <0>         0.1507
     43 H12        -2.6006    1.9798    4.7074 H         1 <0>         0.1358
     44 H13        -0.3683   -1.1856    6.4925 H         1 <0>         0.1434
     45 H14         1.2343   -1.1088    4.6245 H         1 <0>         0.1470
     46 H15        -1.0495    0.5801    8.3664 H         1 <0>         0.0938
     47 H16        -2.5611   -0.1557    8.9512 H         1 <0>         0.0870
     48 H17        -1.4290   -1.1121    7.9655 H         1 <0>         0.0908
     49 H18        -3.5883    1.9997    6.2994 H         1 <0>         0.3878
     50 H19         0.1791   -1.8711   -3.3760 H         1 <0>         0.0895
     51 H20         1.9170   -1.7331   -3.0171 H         1 <0>         0.0336
     52 H21         1.9179   -4.0493   -2.1316 H         1 <0>         0.0792
     53 H22         0.1800   -4.1872   -2.4906 H         1 <0>         0.0935
     54 H23         3.2002   -5.2100   -3.6531 H         1 <0>         0.1341
     55 H24         3.7162   -5.8588   -5.9968 H         1 <0>         0.1348
     56 H25         2.1941   -5.0905   -7.8065 H         1 <0>         0.1351
     57 H26         0.2328   -3.7187   -7.2279 H         1 <0>         0.1566
@<TRIPOS>BOND
     1    1    2 1
     2    1   33 1
     3    1   34 1
     4    1   35 1
     5    2    3 1
     6    2    8 1
     7    2    4 1
     8    4    5 1
     9    4   36 1
    10    4   37 1
    11    5    6 1
    12    5   25 1
    13    6    7 1
    14    6   38 1
    15    6   39 1
    16    7    8 1
    17    7   40 1
    18    7   41 1
    19    8    9 1
    20    9   10 2
    21    9   11 2
    22    9   12 1
    23   12   17 ar
    24   12   13 ar
    25   13   14 ar
    26   13   42 1
    27   14   15 ar
    28   14   43 1
    29   15   16 ar
    30   15   18 1
    31   16   17 ar
    32   16   44 1
    33   17   45 1
    34   18   19 1
    35   18   20 1
    36   18   24 1
    37   19   46 1
    38   19   47 1
    39   19   48 1
    40   20   21 1
    41   20   22 1
    42   20   23 1
    43   24   49 1
    44   25   26 1
    45   25   50 1
    46   25   51 1
    47   26   27 1
    48   26   52 1
    49   26   53 1
    50   27   32 ar
    51   27   28 ar
    52   28   29 ar
    53   28   54 1
    54   29   30 ar
    55   29   55 1
    56   30   31 ar
    57   30   56 1
    58   31   32 ar
    59   31   57 1
@<TRIPOS>MOLECULE
CHEMBL489708__1
   58    60     0     0     0
SMALL
USER_CHARGES

@<TRIPOS>ATOM
      1 C1         -0.4486    1.4323    0.2878 C.3       1 <0>        -0.1919
      2 C2         -0.2061   -0.0727    0.1568 C.3       1 <0>         0.1339
      3 H1         -1.1335   -0.6113    0.3518 H         1 <0>         0.1057
      4 C3          0.2879   -0.3934   -1.2577 C.3       1 <0>        -0.0162
      5 N1          0.6489   -1.8144   -1.3386 N.4       1 <0>        -0.3834
      6 C4          1.7847   -2.0931   -0.4507 C.3       1 <0>        -0.0252
      7 C5          1.3648   -1.8566    1.0038 C.3       1 <0>         0.0908
      8 N2          0.8221   -0.4935    1.1210 N.pl3     1 <0>        -1.0106
      9 S1          1.3579    0.5392    2.2994 S.o2      1 <0>         2.6906
     10 O1          2.5781   -0.0006    2.7884 O.2       1 <0>        -0.9389
     11 O2          1.2667    1.8514    1.7617 O.2       1 <0>        -0.9333
     12 C6          0.2031    0.4580    3.6278 C.ar      1 <0>        -0.6720
     13 C7         -0.8832    1.3124    3.6524 C.ar      1 <0>        -0.0216
     14 C8         -1.7892    1.2487    4.6946 C.ar      1 <0>        -0.1123
     15 C9         -1.6091    0.3302    5.7118 C.ar      1 <0>        -0.0685
     16 C10        -0.5232   -0.5249    5.6867 C.ar      1 <0>        -0.1090
     17 C11         0.3805   -0.4641    4.6423 C.ar      1 <0>        -0.0166
     18 C12        -2.5962    0.2613    6.8484 C.3       1 <0>         0.1361
     19 C13        -1.8805   -0.2042    8.1180 C.3       1 <0>        -0.1535
     20 C14        -3.7090   -0.7286    6.4982 C.3       1 <0>         0.4285
     21 F1         -3.1557   -1.9955    6.2837 F         1 <0>        -0.1741
     22 F2         -4.6254   -0.7924    7.5533 F         1 <0>        -0.1645
     23 F3         -4.3635   -0.3029    5.3373 F         1 <0>        -0.1811
     24 O3         -3.1613    1.5554    7.0675 O.3       1 <0>        -0.5135
     25 C15         1.0177   -2.1462   -2.7213 C.3       1 <0>        -0.0029
     26 C16         1.2735   -3.6504   -2.8339 C.3       1 <0>        -0.0880
     27 C17         1.6518   -3.9908   -4.2524 C.ar      1 <0>         0.1053
     28 C18         2.8304   -4.6688   -4.5012 C.ar      1 <0>        -0.1587
     29 C19         3.1691   -4.9770   -5.8096 C.ar      1 <0>        -0.0668
     30 C20         2.3057   -4.5901   -6.8235 C.ar      1 <0>        -0.1571
     31 C21         1.1448   -3.9150   -6.4983 C.ar      1 <0>         0.1088
     32 N3          0.8520   -3.6432   -5.2414 N.ar      1 <0>        -0.4850
     33 H2          0.4468    1.9727   -0.0195 H         1 <0>         0.1084
     34 H3         -1.2845    1.7225   -0.3488 H         1 <0>         0.0893
     35 H4         -0.6808    1.6740    1.3250 H         1 <0>         0.0849
     36 H5         -0.5026   -0.1778   -1.9764 H         1 <0>         0.1476
     37 H6          1.1620    0.2171   -1.4845 H         1 <0>         0.1381
     38 H7          2.0971   -3.1300   -0.5748 H         1 <0>         0.1478
     39 H8          2.6135   -1.4312   -0.7019 H         1 <0>         0.1379
     40 H9          0.5981   -2.5782    1.2856 H         1 <0>         0.1011
     41 H10         2.2307   -1.9639    1.6571 H         1 <0>         0.1424
     42 H11        -1.0240    2.0300    2.8577 H         1 <0>         0.1503
     43 H12        -2.6376    1.9167    4.7142 H         1 <0>         0.1400
     44 H13        -0.3823   -1.2423    6.4816 H         1 <0>         0.1476
     45 H14         1.2268   -1.1346    4.6208 H         1 <0>         0.1481
     46 H15        -1.0877    0.5010    8.3675 H         1 <0>         0.0954
     47 H16        -2.5944   -0.2540    8.9401 H         1 <0>         0.0909
     48 H17        -1.4494   -1.1913    7.9509 H         1 <0>         0.0912
     49 H18        -3.6317    1.9138    6.3024 H         1 <0>         0.3879
     50 H19         0.2055   -1.8646   -3.3915 H         1 <0>         0.1441
     51 H20         1.9212   -1.6023   -2.9968 H         1 <0>         0.1309
     52 H21         2.0857   -3.9321   -2.1638 H         1 <0>         0.1014
     53 H22         0.3699   -4.1943   -2.5584 H         1 <0>         0.1051
     54 H23         3.4794   -4.9544   -3.6866 H         1 <0>         0.1383
     55 H24         4.0837   -5.5056   -6.0341 H         1 <0>         0.1432
     56 H25         2.5380   -4.8134   -7.8544 H         1 <0>         0.1444
     57 H26         0.4672   -3.6102   -7.2821 H         1 <0>         0.1646
     58 H27        -0.1406   -2.3771   -1.0594 H         1 <0>         0.4244
@<TRIPOS>BOND
     1    1    2 1
     2    1   33 1
     3    1   34 1
     4    1   35 1
     5    2    3 1
     6    2    8 1
     7    2    4 1
     8    4    5 1
     9    4   36 1
    10    4   37 1
    11    5    6 1
    12    5   25 1
    13    5   58 1
    14    6    7 1
    15    6   38 1
    16    6   39 1
    17    7    8 1
    18    7   40 1
    19    7   41 1
    20    8    9 1
    21    9   10 2
    22    9   11 2
    23    9   12 1
    24   12   17 ar
    25   12   13 ar
    26   13   14 ar
    27   13   42 1
    28   14   15 ar
    29   14   43 1
    30   15   16 ar
    31   15   18 1
    32   16   17 ar
    33   16   44 1
    34   17   45 1
    35   18   19 1
    36   18   20 1
    37   18   24 1
    38   19   46 1
    39   19   47 1
    40   19   48 1
    41   20   21 1
    42   20   22 1
    43   20   23 1
    44   24   49 1
    45   25   26 1
    46   25   50 1
    47   25   51 1
    48   26   27 1
    49   26   52 1
    50   26   53 1
    51   27   32 ar
    52   27   28 ar
    53   28   29 ar
    54   28   54 1
    55   29   30 ar
    56   29   55 1
    57   30   31 ar
    58   30   56 1
    59   31   32 ar
    60   31   57 1
@<TRIPOS>MOLECULE
CHEMBL489708__2
   57    59     0     0     0
SMALL
USER_CHARGES

@<TRIPOS>ATOM
      1 C1         -0.4392    1.4380    0.2866 C.3       1 <0>        -0.1874
      2 C2         -0.2028   -0.0679    0.1553 C.3       1 <0>         0.1571
      3 H1         -1.1327   -0.6027    0.3486 H         1 <0>         0.0868
      4 C3          0.2918   -0.3899   -1.2589 C.3       1 <0>         0.0498
      5 N1          0.6636   -1.8092   -1.3328 N.3       1 <0>        -0.5367
      6 C4          1.7816   -2.1148   -0.4302 C.3       1 <0>         0.0385
      7 C5          1.3480   -1.8635    1.0179 C.3       1 <0>         0.1199
      8 N2          0.8217   -0.4932    1.1210 N.pl3     1 <0>        -0.9941
      9 S1          1.3720    0.5442    2.2886 S.o2      1 <0>         2.6875
     10 O1          2.5889   -0.0031    2.7774 O.2       1 <0>        -0.9545
     11 O2          1.2911    1.8526    1.7402 O.2       1 <0>        -0.9467
     12 C6          0.2218    0.4851    3.6221 C.ar      1 <0>        -0.6640
     13 C7         -0.8563    1.3500    3.6439 C.ar      1 <0>        -0.0206
     14 C8         -1.7587    1.3036    4.6900 C.ar      1 <0>        -0.1151
     15 C9         -1.5832    0.3920    5.7143 C.ar      1 <0>        -0.0801
     16 C10        -0.5056   -0.4736    5.6921 C.ar      1 <0>        -0.1122
     17 C11         0.3944   -0.4301    4.6437 C.ar      1 <0>        -0.0164
     18 C12        -2.5664    0.3421    6.8553 C.3       1 <0>         0.1395
     19 C13        -2.6408   -1.0848    7.4023 C.3       1 <0>        -0.1504
     20 C14        -2.1083    1.2905    7.9651 C.3       1 <0>         0.4269
     21 F1         -2.0402    2.5952    7.4649 F         1 <0>        -0.1793
     22 F2         -3.0210    1.2441    9.0243 F         1 <0>        -0.1692
     23 F3         -0.8447    0.8992    8.4208 F         1 <0>        -0.1726
     24 O3         -3.8570    0.7417    6.3898 O.3       1 <0>        -0.5174
     25 C15         0.9797   -2.1994   -2.7133 C.3       1 <0>         0.0658
     26 C16         1.1172   -3.7210   -2.7944 C.3       1 <0>        -0.0659
     27 C17         1.4415   -4.1213   -4.2106 C.ar      1 <0>         0.1301
     28 C18         2.5598   -4.8936   -4.4632 C.ar      1 <0>        -0.1707
     29 C19         2.8492   -5.2563   -5.7695 C.ar      1 <0>        -0.0724
     30 C20         1.9991   -4.8269   -6.7774 C.ar      1 <0>        -0.1786
     31 C21         0.8997   -4.0571   -6.4487 C.ar      1 <0>         0.1033
     32 N3          0.6523   -3.7354   -5.1938 N.ar      1 <0>        -0.4815
     33 H2          0.4567    1.9750   -0.0249 H         1 <0>         0.0966
     34 H3         -1.2769    1.7309   -0.3464 H         1 <0>         0.0748
     35 H4         -0.6660    1.6811    1.3247 H         1 <0>         0.0663
     36 H5         -0.5015   -0.1839   -1.9774 H         1 <0>         0.0911
     37 H6          1.1609    0.2262   -1.4893 H         1 <0>         0.0435
     38 H7          2.0687   -3.1598   -0.5477 H         1 <0>         0.0930
     39 H8          2.6299   -1.4747   -0.6722 H         1 <0>         0.0421
     40 H9          0.5690   -2.5736    1.2954 H         1 <0>         0.0804
     41 H10         2.2049   -1.9778    1.6818 H         1 <0>         0.1004
     42 H11        -0.9934    2.0622    2.8437 H         1 <0>         0.1507
     43 H12        -2.6006    1.9798    4.7074 H         1 <0>         0.1358
     44 H13        -0.3683   -1.1856    6.4925 H         1 <0>         0.1434
     45 H14         1.2343   -1.1088    4.6245 H         1 <0>         0.1470
     46 H15        -1.6564   -1.3897    7.7574 H         1 <0>         0.0907
     47 H16        -3.3519   -1.1209    8.2276 H         1 <0>         0.0869
     48 H17        -2.9672   -1.7605    6.6117 H         1 <0>         0.0937
     49 H18        -3.8845    1.6382    6.0284 H         1 <0>         0.3879
     50 H19         0.1791   -1.8711   -3.3760 H         1 <0>         0.0895
     51 H20         1.9170   -1.7331   -3.0171 H         1 <0>         0.0336
     52 H21         1.9179   -4.0493   -2.1316 H         1 <0>         0.0791
     53 H22         0.1800   -4.1872   -2.4906 H         1 <0>         0.0935
     54 H23         3.2002   -5.2100   -3.6531 H         1 <0>         0.1341
     55 H24         3.7162   -5.8588   -5.9968 H         1 <0>         0.1348
     56 H25         2.1941   -5.0905   -7.8065 H         1 <0>         0.1351
     57 H26         0.2328   -3.7187   -7.2279 H         1 <0>         0.1566
@<TRIPOS>BOND
     1    1    2 1
     2    1   33 1
     3    1   34 1
     4    1   35 1
     5    2    3 1
     6    2    8 1
     7    2    4 1
     8    4    5 1
     9    4   36 1
    10    4   37 1
    11    5    6 1
    12    5   25 1
    13    6    7 1
    14    6   38 1
    15    6   39 1
    16    7    8 1
    17    7   40 1
    18    7   41 1
    19    8    9 1
    20    9   10 2
    21    9   11 2
    22    9   12 1
    23   12   17 ar
    24   12   13 ar
    25   13   14 ar
    26   13   42 1
    27   14   15 ar
    28   14   43 1
    29   15   16 ar
    30   15   18 1
    31   16   17 ar
    32   16   44 1
    33   17   45 1
    34   18   19 1
    35   18   20 1
    36   18   24 1
    37   19   46 1
    38   19   47 1
    39   19   48 1
    40   20   21 1
    41   20   22 1
    42   20   23 1
    43   24   49 1
    44   25   26 1
    45   25   50 1
    46   25   51 1
    47   26   27 1
    48   26   52 1
    49   26   53 1
    50   27   32 ar
    51   27   28 ar
    52   28   29 ar
    53   28   54 1
    54   29   30 ar
    55   29   55 1
    56   30   31 ar
    57   30   56 1
    58   31   32 ar
    59   31   57 1
@<TRIPOS>MOLECULE
CHEMBL489708__3
   58    60     0     0     0
SMALL
USER_CHARGES

@<TRIPOS>ATOM
      1 C1         -0.4486    1.4323    0.2878 C.3       1 <0>        -0.1921
      2 C2         -0.2061   -0.0727    0.1568 C.3       1 <0>         0.1343
      3 H1         -1.1335   -0.6113    0.3518 H         1 <0>         0.1057
      4 C3          0.2879   -0.3934   -1.2577 C.3       1 <0>        -0.0164
      5 N1          0.6489   -1.8144   -1.3386 N.4       1 <0>        -0.3832
      6 C4          1.7847   -2.0931   -0.4507 C.3       1 <0>        -0.0254
      7 C5          1.3648   -1.8566    1.0038 C.3       1 <0>         0.0910
      8 N2          0.8221   -0.4935    1.1210 N.pl3     1 <0>        -1.0106
      9 S1          1.3579    0.5392    2.2994 S.o2      1 <0>         2.6903
     10 O1          2.5781   -0.0006    2.7884 O.2       1 <0>        -0.9387
     11 O2          1.2667    1.8514    1.7617 O.2       1 <0>        -0.9332
     12 C6          0.2031    0.4580    3.6278 C.ar      1 <0>        -0.6720
     13 C7         -0.8832    1.3124    3.6524 C.ar      1 <0>        -0.0216
     14 C8         -1.7892    1.2487    4.6946 C.ar      1 <0>        -0.1123
     15 C9         -1.6091    0.3302    5.7118 C.ar      1 <0>        -0.0686
     16 C10        -0.5232   -0.5249    5.6867 C.ar      1 <0>        -0.1091
     17 C11         0.3805   -0.4641    4.6423 C.ar      1 <0>        -0.0165
     18 C12        -2.5962    0.2613    6.8484 C.3       1 <0>         0.1361
     19 C13        -2.6592   -1.1708    7.3831 C.3       1 <0>        -0.1516
     20 C14        -2.1515    1.2046    7.9679 C.3       1 <0>         0.4270
     21 F1         -2.0939    2.5141    7.4790 F         1 <0>        -0.1790
     22 F2         -3.0679    1.1407    9.0231 F         1 <0>        -0.1652
     23 F3         -0.8861    0.8216    8.4254 F         1 <0>        -0.1723
     24 O3         -3.8887    0.6526    6.3811 O.3       1 <0>        -0.5155
     25 C15         1.0177   -2.1462   -2.7213 C.3       1 <0>        -0.0028
     26 C16         1.2735   -3.6504   -2.8339 C.3       1 <0>        -0.0879
     27 C17         1.6518   -3.9908   -4.2524 C.ar      1 <0>         0.1052
     28 C18         2.8304   -4.6688   -4.5012 C.ar      1 <0>        -0.1587
     29 C19         3.1691   -4.9770   -5.8096 C.ar      1 <0>        -0.0669
     30 C20         2.3057   -4.5901   -6.8235 C.ar      1 <0>        -0.1571
     31 C21         1.1448   -3.9150   -6.4983 C.ar      1 <0>         0.1088
     32 N3          0.8520   -3.6432   -5.2414 N.ar      1 <0>        -0.4849
     33 H2          0.4468    1.9727   -0.0195 H         1 <0>         0.1082
     34 H3         -1.2845    1.7225   -0.3488 H         1 <0>         0.0893
     35 H4         -0.6808    1.6740    1.3250 H         1 <0>         0.0850
     36 H5         -0.5026   -0.1778   -1.9764 H         1 <0>         0.1476
     37 H6          1.1620    0.2171   -1.4845 H         1 <0>         0.1380
     38 H7          2.0971   -3.1300   -0.5748 H         1 <0>         0.1478
     39 H8          2.6135   -1.4312   -0.7019 H         1 <0>         0.1378
     40 H9          0.5981   -2.5782    1.2856 H         1 <0>         0.1010
     41 H10         2.2307   -1.9639    1.6571 H         1 <0>         0.1422
     42 H11        -1.0240    2.0300    2.8577 H         1 <0>         0.1503
     43 H12        -2.6376    1.9167    4.7142 H         1 <0>         0.1400
     44 H13        -0.3823   -1.2423    6.4816 H         1 <0>         0.1476
     45 H14         1.2268   -1.1346    4.6208 H         1 <0>         0.1481
     46 H15        -1.6733   -1.4693    7.7396 H         1 <0>         0.0916
     47 H16        -3.3732   -1.2206    8.2052 H         1 <0>         0.0908
     48 H17        -2.9760   -1.8428    6.5856 H         1 <0>         0.0929
     49 H18        -3.9234    1.5518    6.0272 H         1 <0>         0.3886
     50 H19         0.2055   -1.8646   -3.3915 H         1 <0>         0.1441
     51 H20         1.9212   -1.6023   -2.9968 H         1 <0>         0.1308
     52 H21         2.0857   -3.9321   -2.1638 H         1 <0>         0.1014
     53 H22         0.3699   -4.1943   -2.5584 H         1 <0>         0.1050
     54 H23         3.4794   -4.9544   -3.6866 H         1 <0>         0.1383
     55 H24         4.0837   -5.5056   -6.0341 H         1 <0>         0.1432
     56 H25         2.5380   -4.8134   -7.8544 H         1 <0>         0.1444
     57 H26         0.4672   -3.6102   -7.2821 H         1 <0>         0.1647
     58 H27        -0.1406   -2.3771   -1.0594 H         1 <0>         0.4244
@<TRIPOS>BOND
     1    1    2 1
     2    1   33 1
     3    1   34 1
     4    1   35 1
     5    2    3 1
     6    2    8 1
     7    2    4 1
     8    4    5 1
     9    4   36 1
    10    4   37 1
    11    5    6 1
    12    5   25 1
    13    5   58 1
    14    6    7 1
    15    6   38 1
    16    6   39 1
    17    7    8 1
    18    7   40 1
    19    7   41 1
    20    8    9 1
    21    9   10 2
    22    9   11 2
    23    9   12 1
    24   12   17 ar
    25   12   13 ar
    26   13   14 ar
    27   13   42 1
    28   14   15 ar
    29   14   43 1
    30   15   16 ar
    31   15   18 1
    32   16   17 ar
    33   16   44 1
    34   17   45 1
    35   18   19 1
    36   18   20 1
    37   18   24 1
    38   19   46 1
    39   19   47 1
    40   19   48 1
    41   20   21 1
    42   20   22 1
    43   20   23 1
    44   24   49 1
    45   25   26 1
    46   25   50 1
    47   25   51 1
    48   26   27 1
    49   26   52 1
    50   26   53 1
    51   27   32 ar
    52   27   28 ar
    53   28   29 ar
    54   28   54 1
    55   29   30 ar
    56   29   55 1
    57   30   31 ar
    58   30   56 1
    59   31   32 ar
    60   31   57 1
@<TRIPOS>MOLECULE
CHEMBL218570
   63    68     0     0     0
SMALL
USER_CHARGES

@<TRIPOS>ATOM
      1 C1         -0.7070    1.1317    0.3700 C.3       1 <0>        -0.1386
      2 C2         -0.2113   -0.2680    0.0012 C.3       1 <0>        -0.0863
      3 C3          0.9183   -0.1822   -1.0513 C.3       1 <0>        -0.0965
      4 C4          1.8481   -1.3341   -0.6099 C.3       1 <0>         0.1025
      5 N1          1.5956   -1.5135    0.8246 N.am      1 <0>        -0.6057
      6 C5          0.4426   -0.9295    1.1942 C.2       1 <0>         0.5244
      7 O1         -0.0076   -0.9322    2.3204 O.2       1 <0>        -0.5160
      8 C6          2.4857   -2.2361    1.7367 C.3       1 <0>         0.1712
      9 C7          3.2824   -3.2798    0.9514 C.3       1 <0>        -0.0896
     10 C8          2.3178   -4.2671    0.2913 C.3       1 <0>        -0.1061
     11 C9          1.4861   -4.9653    1.3690 C.3       1 <0>        -0.0855
     12 C10         0.6893   -3.9216    2.1543 C.3       1 <0>        -0.0950
     13 C11         1.6539   -2.9343    2.8144 C.3       1 <0>        -0.1014
     14 C12         2.5835   -3.6890    3.7669 C.3       1 <0>        -0.0850
     15 C13         3.3802   -4.7327    2.9816 C.3       1 <0>         0.0646
     16 C14         2.4156   -5.7200    2.3215 C.3       1 <0>        -0.0921
     17 C15         4.2120   -4.0345    1.9038 C.3       1 <0>        -0.0896
     18 C16         4.2958   -5.4760    3.9198 C.2       1 <0>         0.0643
     19 N2          4.4126   -5.2855    5.2259 N.2       1 <0>        -0.3861
     20 N3          5.2963   -6.1162    5.6634 N.2       1 <0>        -0.2032
     21 N4          5.7358   -6.8187    4.6779 N.2       1 <0>        -0.2030
     22 N5          5.1349   -6.4499    3.5984 N.2       1 <0>        -0.3876
     23 C17         1.6395    1.1648   -0.9718 C.3       1 <0>         0.0741
     24 O2          2.5959    1.2562   -2.0296 O.3       1 <0>        -0.2948
     25 C18         3.3265    2.3971   -2.1026 C.ar      1 <0>         0.3579
     26 C19         4.2684    2.5475   -3.1126 C.ar      1 <0>        -0.1903
     27 C20         5.0066    3.7161   -3.1762 C.ar      1 <0>         0.0090
     28 C21         4.7756    4.6980   -2.2223 C.ar      1 <0>        -0.2843
     29 C22         3.8236    4.4808   -1.2464 C.ar      1 <0>         0.2014
     30 N6          3.1315    3.3576   -1.2147 N.ar      1 <0>        -0.5358
     31 C23         5.5560    5.9868   -2.2515 C.3       1 <0>         0.5211
     32 F1          4.8783    6.9246   -3.0379 F         1 <0>        -0.1758
     33 F2          5.6903    6.4802   -0.9493 F         1 <0>        -0.1747
     34 F3          6.8238    5.7521   -2.7943 F         1 <0>        -0.1758
     35 C24        -1.3677   -1.1244   -0.5188 C.3       1 <0>        -0.1299
     36 H1          0.1316    1.7337    0.7198 H         1 <0>         0.0626
     37 H2         -1.1515    1.6025   -0.5069 H         1 <0>         0.0661
     38 H3         -1.4544    1.0561    1.1598 H         1 <0>         0.0712
     39 H4          0.5304   -0.3566   -2.0549 H         1 <0>         0.1094
     40 H5          1.6023   -2.2465   -1.1532 H         1 <0>         0.0820
     41 H6          2.8904   -1.0632   -0.7784 H         1 <0>         0.0827
     42 H7          3.1729   -1.5327    2.2069 H         1 <0>         0.0692
     43 H8          3.8750   -2.7823    0.1836 H         1 <0>         0.0695
     44 H9          1.6556   -3.7294   -0.3873 H         1 <0>         0.0604
     45 H10         2.8854   -5.0106   -0.2682 H         1 <0>         0.0637
     46 H11         0.7989   -5.6687    0.8988 H         1 <0>         0.0643
     47 H12         0.0271   -3.3840    1.4758 H         1 <0>         0.0522
     48 H13         0.0967   -4.4191    2.9221 H         1 <0>         0.0592
     49 H14         1.0863   -2.1908    3.3739 H         1 <0>         0.1009
     50 H15         3.2707   -2.9856    4.2372 H         1 <0>         0.0632
     51 H16         1.9909   -4.1864    4.5347 H         1 <0>         0.0687
     52 H17         1.8231   -6.2175    3.0893 H         1 <0>         0.0559
     53 H18         2.9833   -6.4636    1.7620 H         1 <0>         0.0657
     54 H19         4.7796   -4.7780    1.3444 H         1 <0>         0.0729
     55 H20         4.8992   -3.3311    2.3741 H         1 <0>         0.0578
     56 H21         0.9134    1.9720   -1.0677 H         1 <0>         0.0829
     57 H22         2.1501    1.2475   -0.0123 H         1 <0>         0.0749
     58 H23         4.4225    1.7627   -3.8384 H         1 <0>         0.1562
     59 H24         5.7460    3.8609   -3.9500 H         1 <0>         0.1550
     60 H25         3.6400    5.2414   -0.5020 H         1 <0>         0.1720
     61 H26        -1.7894   -0.6621   -1.4113 H         1 <0>         0.0685
     62 H27        -1.0000   -2.1206   -0.7648 H         1 <0>         0.0622
     63 H28        -2.1374   -1.2006    0.2492 H         1 <0>         0.0691
@<TRIPOS>BOND
     1    1    2 1
     2    1   36 1
     3    1   37 1
     4    1   38 1
     5    2    6 1
     6    2    3 1
     7    2   35 1
     8    3    4 1
     9    3   23 1
    10    3   39 1
    11    4    5 1
    12    4   40 1
    13    4   41 1
    14    5    6 am
    15    5    8 1
    16    6    7 2
    17    8   13 1
    18    8    9 1
    19    8   42 1
    20    9   17 1
    21    9   10 1
    22    9   43 1
    23   10   11 1
    24   10   44 1
    25   10   45 1
    26   11   16 1
    27   11   12 1
    28   11   46 1
    29   12   13 1
    30   12   47 1
    31   12   48 1
    32   13   14 1
    33   13   49 1
    34   14   15 1
    35   14   50 1
    36   14   51 1
    37   15   16 1
    38   15   17 1
    39   15   18 1
    40   16   52 1
    41   16   53 1
    42   17   54 1
    43   17   55 1
    44   18   22 2
    45   18   19 1
    46   19   20 1
    47   20   21 2
    48   21   22 1
    49   23   24 1
    50   23   56 1
    51   23   57 1
    52   24   25 1
    53   25   30 ar
    54   25   26 ar
    55   26   27 ar
    56   26   58 1
    57   27   28 ar
    58   27   59 1
    59   28   29 ar
    60   28   31 1
    61   29   30 ar
    62   29   60 1
    63   31   32 1
    64   31   33 1
    65   31   34 1
    66   35   61 1
    67   35   62 1
    68   35   63 1
@<TRIPOS>MOLECULE
CHEMBL218570__1
   64    69     0     0     0
SMALL
USER_CHARGES

@<TRIPOS>ATOM
      1 C1         -0.7070    1.1317    0.3700 C.3       1 <0>        -0.1407
      2 C2         -0.2113   -0.2680    0.0012 C.3       1 <0>        -0.0853
      3 C3          0.9183   -0.1822   -1.0513 C.3       1 <0>        -0.0967
      4 C4          1.8481   -1.3341   -0.6099 C.3       1 <0>         0.1032
      5 N1          1.5956   -1.5135    0.8246 N.am      1 <0>        -0.6098
      6 C5          0.4426   -0.9295    1.1942 C.2       1 <0>         0.5275
      7 O1         -0.0076   -0.9322    2.3204 O.2       1 <0>        -0.5143
      8 C6          2.4857   -2.2361    1.7367 C.3       1 <0>         0.1697
      9 C7          3.2824   -3.2798    0.9514 C.3       1 <0>        -0.0901
     10 C8          2.3178   -4.2671    0.2913 C.3       1 <0>        -0.1122
     11 C9          1.4861   -4.9653    1.3690 C.3       1 <0>        -0.0838
     12 C10         0.6893   -3.9216    2.1543 C.3       1 <0>        -0.1012
     13 C11         1.6539   -2.9343    2.8144 C.3       1 <0>        -0.1021
     14 C12         2.5835   -3.6890    3.7669 C.3       1 <0>        -0.0940
     15 C13         3.3802   -4.7327    2.9816 C.3       1 <0>         0.0450
     16 C14         2.4156   -5.7200    2.3215 C.3       1 <0>        -0.0984
     17 C15         4.2120   -4.0345    1.9038 C.3       1 <0>        -0.0958
     18 C16         4.2958   -5.4760    3.9198 C.2       1 <0>         0.1839
     19 N2          5.1291   -6.4355    3.5999 N.2       1 <0>        -0.2980
     20 N3          5.7306   -6.8132    4.6753 N.pl3     1 <0>        -0.2313
     21 N4          5.2977   -6.1155    5.6675 N.2       1 <0>        -0.0516
     22 N5          4.4170   -5.2792    5.2327 N.2       1 <0>        -0.2712
     23 C17         1.6395    1.1648   -0.9718 C.3       1 <0>         0.0736
     24 O2          2.5959    1.2562   -2.0296 O.3       1 <0>        -0.2964
     25 C18         3.3265    2.3971   -2.1026 C.ar      1 <0>         0.3552
     26 C19         4.2684    2.5475   -3.1126 C.ar      1 <0>        -0.1899
     27 C20         5.0066    3.7161   -3.1762 C.ar      1 <0>         0.0096
     28 C21         4.7756    4.6980   -2.2223 C.ar      1 <0>        -0.2808
     29 C22         3.8236    4.4808   -1.2464 C.ar      1 <0>         0.2010
     30 N6          3.1315    3.3576   -1.2147 N.ar      1 <0>        -0.5363
     31 C23         5.5560    5.9868   -2.2515 C.3       1 <0>         0.5204
     32 F1          4.8783    6.9246   -3.0379 F         1 <0>        -0.1741
     33 F2          5.6903    6.4802   -0.9493 F         1 <0>        -0.1745
     34 F3          6.8238    5.7521   -2.7943 F         1 <0>        -0.1753
     35 C24        -1.3677   -1.1244   -0.5188 C.3       1 <0>        -0.1311
     36 H1          0.1316    1.7337    0.7198 H         1 <0>         0.0634
     37 H2         -1.1515    1.6025   -0.5069 H         1 <0>         0.0690
     38 H3         -1.4544    1.0561    1.1598 H         1 <0>         0.0724
     39 H4          0.5304   -0.3566   -2.0549 H         1 <0>         0.1118
     40 H5          1.6023   -2.2465   -1.1532 H         1 <0>         0.0823
     41 H6          2.8904   -1.0632   -0.7784 H         1 <0>         0.0838
     42 H7          3.1729   -1.5327    2.2069 H         1 <0>         0.0720
     43 H8          3.8750   -2.7823    0.1836 H         1 <0>         0.0811
     44 H9          1.6556   -3.7294   -0.3873 H         1 <0>         0.0706
     45 H10         2.8854   -5.0106   -0.2682 H         1 <0>         0.0676
     46 H11         0.7989   -5.6687    0.8988 H         1 <0>         0.0760
     47 H12         0.0271   -3.3840    1.4758 H         1 <0>         0.0621
     48 H13         0.0967   -4.4191    2.9221 H         1 <0>         0.0646
     49 H14         1.0863   -2.1908    3.3739 H         1 <0>         0.1118
     50 H15         3.2707   -2.9856    4.2372 H         1 <0>         0.0731
     51 H16         1.9909   -4.1864    4.5347 H         1 <0>         0.0782
     52 H17         1.8231   -6.2175    3.0893 H         1 <0>         0.0665
     53 H18         2.9833   -6.4636    1.7620 H         1 <0>         0.0721
     54 H19         4.7796   -4.7780    1.3444 H         1 <0>         0.0789
     55 H20         4.8992   -3.3311    2.3741 H         1 <0>         0.0683
     56 H21         0.9134    1.9720   -1.0677 H         1 <0>         0.0843
     57 H22         2.1501    1.2475   -0.0123 H         1 <0>         0.0736
     58 H23         4.4225    1.7627   -3.8384 H         1 <0>         0.1561
     59 H24         5.7460    3.8609   -3.9500 H         1 <0>         0.1561
     60 H25         3.6400    5.2414   -0.5020 H         1 <0>         0.1730
     61 H26        -1.7894   -0.6621   -1.4113 H         1 <0>         0.0716
     62 H27        -1.0000   -2.1206   -0.7648 H         1 <0>         0.0611
     63 H28        -2.1374   -1.2006    0.2492 H         1 <0>         0.0701
     64 H29         6.4020   -7.5112    4.7289 H         1 <0>         0.4744
@<TRIPOS>BOND
     1    1    2 1
     2    1   36 1
     3    1   37 1
     4    1   38 1
     5    2    6 1
     6    2    3 1
     7    2   35 1
     8    3    4 1
     9    3   23 1
    10    3   39 1
    11    4    5 1
    12    4   40 1
    13    4   41 1
    14    5    6 am
    15    5    8 1
    16    6    7 2
    17    8   13 1
    18    8    9 1
    19    8   42 1
    20    9   17 1
    21    9   10 1
    22    9   43 1
    23   10   11 1
    24   10   44 1
    25   10   45 1
    26   11   16 1
    27   11   12 1
    28   11   46 1
    29   12   13 1
    30   12   47 1
    31   12   48 1
    32   13   14 1
    33   13   49 1
    34   14   15 1
    35   14   50 1
    36   14   51 1
    37   15   16 1
    38   15   17 1
    39   15   18 1
    40   16   52 1
    41   16   53 1
    42   17   54 1
    43   17   55 1
    44   18   22 1
    45   18   19 2
    46   19   20 1
    47   20   21 1
    48   20   64 1
    49   21   22 2
    50   23   24 1
    51   23   56 1
    52   23   57 1
    53   24   25 1
    54   25   30 ar
    55   25   26 ar
    56   26   27 ar
    57   26   58 1
    58   27   28 ar
    59   27   59 1
    60   28   29 ar
    61   28   31 1
    62   29   30 ar
    63   29   60 1
    64   31   32 1
    65   31   33 1
    66   31   34 1
    67   35   61 1
    68   35   62 1
    69   35   63 1
@<TRIPOS>MOLECULE
CHEMBL218570__2
   64    69     0     0     0
SMALL
USER_CHARGES

@<TRIPOS>ATOM
      1 C1         -0.7070    1.1317    0.3700 C.3       1 <0>        -0.1411
      2 C2         -0.2113   -0.2680    0.0012 C.3       1 <0>        -0.0850
      3 C3          0.9183   -0.1822   -1.0513 C.3       1 <0>        -0.0965
      4 C4          1.8481   -1.3341   -0.6099 C.3       1 <0>         0.1032
      5 N1          1.5956   -1.5135    0.8246 N.am      1 <0>        -0.6107
      6 C5          0.4426   -0.9295    1.1942 C.2       1 <0>         0.5278
      7 O1         -0.0076   -0.9322    2.3204 O.2       1 <0>        -0.5133
      8 C6          2.4857   -2.2361    1.7367 C.3       1 <0>         0.1697
      9 C7          3.2824   -3.2798    0.9514 C.3       1 <0>        -0.0897
     10 C8          2.3178   -4.2671    0.2913 C.3       1 <0>        -0.1142
     11 C9          1.4861   -4.9653    1.3690 C.3       1 <0>        -0.0819
     12 C10         0.6893   -3.9216    2.1543 C.3       1 <0>        -0.1022
     13 C11         1.6539   -2.9343    2.8144 C.3       1 <0>        -0.1031
     14 C12         2.5835   -3.6890    3.7669 C.3       1 <0>        -0.0906
     15 C13         3.3802   -4.7327    2.9816 C.3       1 <0>         0.0268
     16 C14         2.4156   -5.7200    2.3215 C.3       1 <0>        -0.1075
     17 C15         4.2120   -4.0345    1.9038 C.3       1 <0>        -0.0994
     18 C16         4.2958   -5.4760    3.9198 C.2       1 <0>         0.2045
     19 N2          4.6238   -5.1210    5.1381 N.2       1 <0>        -0.2933
     20 N3          5.4229   -6.0140    5.6113 N.2       1 <0>        -0.0669
     21 N4          5.6132   -6.9295    4.7265 N.2       1 <0>        -0.0870
     22 N5          4.9309   -6.6365    3.6714 N.pl3     1 <0>        -0.4055
     23 C17         1.6395    1.1648   -0.9718 C.3       1 <0>         0.0734
     24 O2          2.5959    1.2562   -2.0296 O.3       1 <0>        -0.2968
     25 C18         3.3265    2.3971   -2.1026 C.ar      1 <0>         0.3547
     26 C19         4.2684    2.5475   -3.1126 C.ar      1 <0>        -0.1899
     27 C20         5.0066    3.7161   -3.1762 C.ar      1 <0>         0.0098
     28 C21         4.7756    4.6980   -2.2223 C.ar      1 <0>        -0.2802
     29 C22         3.8236    4.4808   -1.2464 C.ar      1 <0>         0.2011
     30 N6          3.1315    3.3576   -1.2147 N.ar      1 <0>        -0.5363
     31 C23         5.5560    5.9868   -2.2515 C.3       1 <0>         0.5203
     32 F1          4.8783    6.9246   -3.0379 F         1 <0>        -0.1740
     33 F2          5.6903    6.4802   -0.9493 F         1 <0>        -0.1743
     34 F3          6.8238    5.7521   -2.7943 F         1 <0>        -0.1752
     35 C24        -1.3677   -1.1244   -0.5188 C.3       1 <0>        -0.1312
     36 H1          0.1316    1.7337    0.7198 H         1 <0>         0.0637
     37 H2         -1.1515    1.6025   -0.5069 H         1 <0>         0.0695
     38 H3         -1.4544    1.0561    1.1598 H         1 <0>         0.0726
     39 H4          0.5304   -0.3566   -2.0549 H         1 <0>         0.1121
     40 H5          1.6023   -2.2465   -1.1532 H         1 <0>         0.0818
     41 H6          2.8904   -1.0632   -0.7784 H         1 <0>         0.0840
     42 H7          3.1729   -1.5327    2.2069 H         1 <0>         0.0743
     43 H8          3.8750   -2.7823    0.1836 H         1 <0>         0.0840
     44 H9          1.6556   -3.7294   -0.3873 H         1 <0>         0.0738
     45 H10         2.8854   -5.0106   -0.2682 H         1 <0>         0.0674
     46 H11         0.7989   -5.6687    0.8988 H         1 <0>         0.0789
     47 H12         0.0271   -3.3840    1.4758 H         1 <0>         0.0644
     48 H13         0.0967   -4.4191    2.9221 H         1 <0>         0.0660
     49 H14         1.0863   -2.1908    3.3739 H         1 <0>         0.1146
     50 H15         3.2707   -2.9856    4.2372 H         1 <0>         0.0808
     51 H16         1.9909   -4.1864    4.5347 H         1 <0>         0.0783
     52 H17         1.8231   -6.2175    3.0893 H         1 <0>         0.0741
     53 H18         2.9833   -6.4636    1.7620 H         1 <0>         0.0638
     54 H19         4.7796   -4.7780    1.3444 H         1 <0>         0.0719
     55 H20         4.8992   -3.3311    2.3741 H         1 <0>         0.0773
     56 H21         0.9134    1.9720   -1.0677 H         1 <0>         0.0845
     57 H22         2.1501    1.2475   -0.0123 H         1 <0>         0.0737
     58 H23         4.4225    1.7627   -3.8384 H         1 <0>         0.1560
     59 H24         5.7460    3.8609   -3.9500 H         1 <0>         0.1563
     60 H25         3.6400    5.2414   -0.5020 H         1 <0>         0.1732
     61 H26        -1.7894   -0.6621   -1.4113 H         1 <0>         0.0721
     62 H27        -1.0000   -2.1206   -0.7648 H         1 <0>         0.0607
     63 H28        -2.1374   -1.2006    0.2492 H         1 <0>         0.0704
     64 H29         4.8860   -7.1540    2.8522 H         1 <0>         0.4546
@<TRIPOS>BOND
     1    1    2 1
     2    1   36 1
     3    1   37 1
     4    1   38 1
     5    2    6 1
     6    2    3 1
     7    2   35 1
     8    3    4 1
     9    3   23 1
    10    3   39 1
    11    4    5 1
    12    4   40 1
    13    4   41 1
    14    5    6 am
    15    5    8 1
    16    6    7 2
    17    8   13 1
    18    8    9 1
    19    8   42 1
    20    9   17 1
    21    9   10 1
    22    9   43 1
    23   10   11 1
    24   10   44 1
    25   10   45 1
    26   11   16 1
    27   11   12 1
    28   11   46 1
    29   12   13 1
    30   12   47 1
    31   12   48 1
    32   13   14 1
    33   13   49 1
    34   14   15 1
    35   14   50 1
    36   14   51 1
    37   15   16 1
    38   15   17 1
    39   15   18 1
    40   16   52 1
    41   16   53 1
    42   17   54 1
    43   17   55 1
    44   18   19 2
    45   18   22 1
    46   19   20 1
    47   20   21 2
    48   21   22 1
    49   22   64 1
    50   23   24 1
    51   23   56 1
    52   23   57 1
    53   24   25 1
    54   25   30 ar
    55   25   26 ar
    56   26   27 ar
    57   26   58 1
    58   27   28 ar
    59   27   59 1
    60   28   29 ar
    61   28   31 1
    62   29   30 ar
    63   29   60 1
    64   31   32 1
    65   31   33 1
    66   31   34 1
    67   35   61 1
    68   35   62 1
    69   35   63 1
@<TRIPOS>MOLECULE
CHEMBL218570__3
   63    68     0     0     0
SMALL
USER_CHARGES

@<TRIPOS>ATOM
      1 C1         -0.7070    1.1317    0.3700 C.3       1 <0>        -0.1308
      2 C2         -0.2113   -0.2680    0.0012 C.3       1 <0>        -0.0863
      3 C3          0.9183   -0.1822   -1.0513 C.3       1 <0>        -0.0971
      4 C4          1.8481   -1.3341   -0.6099 C.3       1 <0>         0.1044
      5 N1          1.5956   -1.5135    0.8246 N.am      1 <0>        -0.6055
      6 C5          0.4426   -0.9295    1.1942 C.2       1 <0>         0.5272
      7 O1         -0.0076   -0.9322    2.3204 O.2       1 <0>        -0.5157
      8 C6          2.4857   -2.2361    1.7367 C.3       1 <0>         0.1707
      9 C7          3.2824   -3.2798    0.9514 C.3       1 <0>        -0.0897
     10 C8          2.3178   -4.2671    0.2913 C.3       1 <0>        -0.1062
     11 C9          1.4861   -4.9653    1.3690 C.3       1 <0>        -0.0855
     12 C10         0.6893   -3.9216    2.1543 C.3       1 <0>        -0.0952
     13 C11         1.6539   -2.9343    2.8144 C.3       1 <0>        -0.1017
     14 C12         2.5835   -3.6890    3.7669 C.3       1 <0>        -0.0849
     15 C13         3.3802   -4.7327    2.9816 C.3       1 <0>         0.0647
     16 C14         2.4156   -5.7200    2.3215 C.3       1 <0>        -0.0922
     17 C15         4.2120   -4.0345    1.9038 C.3       1 <0>        -0.0897
     18 C16         4.2958   -5.4760    3.9198 C.2       1 <0>         0.0643
     19 N2          4.4126   -5.2855    5.2259 N.2       1 <0>        -0.3861
     20 N3          5.2963   -6.1162    5.6634 N.2       1 <0>        -0.2032
     21 N4          5.7358   -6.8187    4.6779 N.2       1 <0>        -0.2031
     22 N5          5.1349   -6.4499    3.5984 N.2       1 <0>        -0.3876
     23 C17         0.3739   -0.4271   -2.4600 C.3       1 <0>         0.0803
     24 O2          1.4173   -0.2262   -3.4155 O.3       1 <0>        -0.2945
     25 C18         1.0987   -0.4049   -4.7221 C.ar      1 <0>         0.3578
     26 C19         2.0720   -0.2297   -5.6978 C.ar      1 <0>        -0.1899
     27 C20         1.7343   -0.4155   -7.0267 C.ar      1 <0>         0.0091
     28 C21         0.4282   -0.7717   -7.3344 C.ar      1 <0>        -0.2843
     29 C22        -0.4874   -0.9288   -6.3133 C.ar      1 <0>         0.2008
     30 N6         -0.1341   -0.7496   -5.0545 N.ar      1 <0>        -0.5363
     31 C23         0.0143   -0.9842   -8.7678 C.3       1 <0>         0.5209
     32 F1          0.2116   -2.3247   -9.1163 F         1 <0>        -0.1746
     33 F2         -1.3380   -0.6580   -8.9159 F         1 <0>        -0.1756
     34 F3          0.7852   -0.1673   -9.6018 F         1 <0>        -0.1764
     35 C24        -1.3677   -1.1244   -0.5188 C.3       1 <0>        -0.1385
     36 H1          0.1316    1.7337    0.7198 H         1 <0>         0.0598
     37 H2         -1.1515    1.6025   -0.5069 H         1 <0>         0.0640
     38 H3         -1.4544    1.0561    1.1598 H         1 <0>         0.0706
     39 H4          1.4321    0.7774   -0.9946 H         1 <0>         0.1038
     40 H5          1.6023   -2.2465   -1.1532 H         1 <0>         0.0774
     41 H6          2.8904   -1.0632   -0.7784 H         1 <0>         0.0834
     42 H7          3.1729   -1.5327    2.2069 H         1 <0>         0.0709
     43 H8          3.8750   -2.7823    0.1836 H         1 <0>         0.0701
     44 H9          1.6556   -3.7294   -0.3873 H         1 <0>         0.0591
     45 H10         2.8854   -5.0106   -0.2682 H         1 <0>         0.0635
     46 H11         0.7989   -5.6687    0.8988 H         1 <0>         0.0640
     47 H12         0.0271   -3.3840    1.4758 H         1 <0>         0.0517
     48 H13         0.0967   -4.4191    2.9221 H         1 <0>         0.0595
     49 H14         1.0863   -2.1908    3.3739 H         1 <0>         0.1012
     50 H15         3.2707   -2.9856    4.2372 H         1 <0>         0.0636
     51 H16         1.9909   -4.1864    4.5347 H         1 <0>         0.0687
     52 H17         1.8231   -6.2175    3.0893 H         1 <0>         0.0560
     53 H18         2.9833   -6.4636    1.7620 H         1 <0>         0.0657
     54 H19         4.7796   -4.7780    1.3444 H         1 <0>         0.0728
     55 H20         4.8992   -3.3311    2.3741 H         1 <0>         0.0585
     56 H21         0.0052   -1.4501   -2.5343 H         1 <0>         0.0804
     57 H22        -0.4412    0.2683   -2.6605 H         1 <0>         0.0796
     58 H23         3.0788    0.0482   -5.4227 H         1 <0>         0.1564
     59 H24         2.4698   -0.2859   -7.8069 H         1 <0>         0.1549
     60 H25        -1.5047   -1.2059   -6.5473 H         1 <0>         0.1720
     61 H26        -1.7894   -0.6621   -1.4113 H         1 <0>         0.0710
     62 H27        -1.0000   -2.1206   -0.7648 H         1 <0>         0.0621
     63 H28        -2.1374   -1.2006    0.2492 H         1 <0>         0.0698
@<TRIPOS>BOND
     1    1    2 1
     2    1   36 1
     3    1   37 1
     4    1   38 1
     5    2    6 1
     6    2    3 1
     7    2   35 1
     8    3    4 1
     9    3   23 1
    10    3   39 1
    11    4    5 1
    12    4   40 1
    13    4   41 1
    14    5    6 am
    15    5    8 1
    16    6    7 2
    17    8   13 1
    18    8    9 1
    19    8   42 1
    20    9   17 1
    21    9   10 1
    22    9   43 1
    23   10   11 1
    24   10   44 1
    25   10   45 1
    26   11   16 1
    27   11   12 1
    28   11   46 1
    29   12   13 1
    30   12   47 1
    31   12   48 1
    32   13   14 1
    33   13   49 1
    34   14   15 1
    35   14   50 1
    36   14   51 1
    37   15   16 1
    38   15   17 1
    39   15   18 1
    40   16   52 1
    41   16   53 1
    42   17   54 1
    43   17   55 1
    44   18   22 2
    45   18   19 1
    46   19   20 1
    47   20   21 2
    48   21   22 1
    49   23   24 1
    50   23   56 1
    51   23   57 1
    52   24   25 1
    53   25   30 ar
    54   25   26 ar
    55   26   27 ar
    56   26   58 1
    57   27   28 ar
    58   27   59 1
    59   28   29 ar
    60   28   31 1
    61   29   30 ar
    62   29   60 1
    63   31   32 1
    64   31   33 1
    65   31   34 1
    66   35   61 1
    67   35   62 1
    68   35   63 1
@<TRIPOS>MOLECULE
CHEMBL218570__4
   64    69     0     0     0
SMALL
USER_CHARGES

@<TRIPOS>ATOM
      1 C1         -0.7070    1.1317    0.3700 C.3       1 <0>        -0.1329
      2 C2         -0.2113   -0.2680    0.0012 C.3       1 <0>        -0.0854
      3 C3          0.9183   -0.1822   -1.0513 C.3       1 <0>        -0.0968
      4 C4          1.8481   -1.3341   -0.6099 C.3       1 <0>         0.1050
      5 N1          1.5956   -1.5135    0.8246 N.am      1 <0>        -0.6097
      6 C5          0.4426   -0.9295    1.1942 C.2       1 <0>         0.5303
      7 O1         -0.0076   -0.9322    2.3204 O.2       1 <0>        -0.5141
      8 C6          2.4857   -2.2361    1.7367 C.3       1 <0>         0.1693
      9 C7          3.2824   -3.2798    0.9514 C.3       1 <0>        -0.0902
     10 C8          2.3178   -4.2671    0.2913 C.3       1 <0>        -0.1124
     11 C9          1.4861   -4.9653    1.3690 C.3       1 <0>        -0.0838
     12 C10         0.6893   -3.9216    2.1543 C.3       1 <0>        -0.1014
     13 C11         1.6539   -2.9343    2.8144 C.3       1 <0>        -0.1023
     14 C12         2.5835   -3.6890    3.7669 C.3       1 <0>        -0.0938
     15 C13         3.3802   -4.7327    2.9816 C.3       1 <0>         0.0449
     16 C14         2.4156   -5.7200    2.3215 C.3       1 <0>        -0.0985
     17 C15         4.2120   -4.0345    1.9038 C.3       1 <0>        -0.0958
     18 C16         4.2958   -5.4760    3.9198 C.2       1 <0>         0.1839
     19 N2          5.1291   -6.4355    3.5999 N.2       1 <0>        -0.2980
     20 N3          5.7306   -6.8132    4.6753 N.pl3     1 <0>        -0.2313
     21 N4          5.2977   -6.1155    5.6675 N.2       1 <0>        -0.0516
     22 N5          4.4170   -5.2792    5.2327 N.2       1 <0>        -0.2712
     23 C17         0.3739   -0.4271   -2.4600 C.3       1 <0>         0.0794
     24 O2          1.4173   -0.2262   -3.4155 O.3       1 <0>        -0.2964
     25 C18         1.0987   -0.4049   -4.7221 C.ar      1 <0>         0.3551
     26 C19         2.0720   -0.2297   -5.6978 C.ar      1 <0>        -0.1896
     27 C20         1.7343   -0.4155   -7.0267 C.ar      1 <0>         0.0098
     28 C21         0.4282   -0.7717   -7.3344 C.ar      1 <0>        -0.2807
     29 C22        -0.4874   -0.9288   -6.3133 C.ar      1 <0>         0.2008
     30 N6         -0.1341   -0.7496   -5.0545 N.ar      1 <0>        -0.5365
     31 C23         0.0143   -0.9842   -8.7678 C.3       1 <0>         0.5202
     32 F1          0.2116   -2.3247   -9.1163 F         1 <0>        -0.1743
     33 F2         -1.3380   -0.6580   -8.9159 F         1 <0>        -0.1745
     34 F3          0.7852   -0.1673   -9.6018 F         1 <0>        -0.1752
     35 C24        -1.3677   -1.1244   -0.5188 C.3       1 <0>        -0.1396
     36 H1          0.1316    1.7337    0.7198 H         1 <0>         0.0605
     37 H2         -1.1515    1.6025   -0.5069 H         1 <0>         0.0670
     38 H3         -1.4544    1.0561    1.1598 H         1 <0>         0.0718
     39 H4          1.4321    0.7774   -0.9946 H         1 <0>         0.1055
     40 H5          1.6023   -2.2465   -1.1532 H         1 <0>         0.0778
     41 H6          2.8904   -1.0632   -0.7784 H         1 <0>         0.0843
     42 H7          3.1729   -1.5327    2.2069 H         1 <0>         0.0737
     43 H8          3.8750   -2.7823    0.1836 H         1 <0>         0.0815
     44 H9          1.6556   -3.7294   -0.3873 H         1 <0>         0.0693
     45 H10         2.8854   -5.0106   -0.2682 H         1 <0>         0.0674
     46 H11         0.7989   -5.6687    0.8988 H         1 <0>         0.0757
     47 H12         0.0271   -3.3840    1.4758 H         1 <0>         0.0617
     48 H13         0.0967   -4.4191    2.9221 H         1 <0>         0.0648
     49 H14         1.0863   -2.1908    3.3739 H         1 <0>         0.1121
     50 H15         3.2707   -2.9856    4.2372 H         1 <0>         0.0735
     51 H16         1.9909   -4.1864    4.5347 H         1 <0>         0.0782
     52 H17         1.8231   -6.2175    3.0893 H         1 <0>         0.0666
     53 H18         2.9833   -6.4636    1.7620 H         1 <0>         0.0720
     54 H19         4.7796   -4.7780    1.3444 H         1 <0>         0.0788
     55 H20         4.8992   -3.3311    2.3741 H         1 <0>         0.0689
     56 H21         0.0052   -1.4501   -2.5343 H         1 <0>         0.0798
     57 H22        -0.4412    0.2683   -2.6605 H         1 <0>         0.0810
     58 H23         3.0788    0.0482   -5.4227 H         1 <0>         0.1560
     59 H24         2.4698   -0.2859   -7.8069 H         1 <0>         0.1560
     60 H25        -1.5047   -1.2059   -6.5473 H         1 <0>         0.1732
     61 H26        -1.7894   -0.6621   -1.4113 H         1 <0>         0.0740
     62 H27        -1.0000   -2.1206   -0.7648 H         1 <0>         0.0611
     63 H28        -2.1374   -1.2006    0.2492 H         1 <0>         0.0708
     64 H29         6.4020   -7.5112    4.7289 H         1 <0>         0.4744
@<TRIPOS>BOND
     1    1    2 1
     2    1   36 1
     3    1   37 1
     4    1   38 1
     5    2    6 1
     6    2    3 1
     7    2   35 1
     8    3    4 1
     9    3   23 1
    10    3   39 1
    11    4    5 1
    12    4   40 1
    13    4   41 1
    14    5    6 am
    15    5    8 1
    16    6    7 2
    17    8   13 1
    18    8    9 1
    19    8   42 1
    20    9   17 1
    21    9   10 1
    22    9   43 1
    23   10   11 1
    24   10   44 1
    25   10   45 1
    26   11   16 1
    27   11   12 1
    28   11   46 1
    29   12   13 1
    30   12   47 1
    31   12   48 1
    32   13   14 1
    33   13   49 1
    34   14   15 1
    35   14   50 1
    36   14   51 1
    37   15   16 1
    38   15   17 1
    39   15   18 1
    40   16   52 1
    41   16   53 1
    42   17   54 1
    43   17   55 1
    44   18   22 1
    45   18   19 2
    46   19   20 1
    47   20   21 1
    48   20   64 1
    49   21   22 2
    50   23   24 1
    51   23   56 1
    52   23   57 1
    53   24   25 1
    54   25   30 ar
    55   25   26 ar
    56   26   27 ar
    57   26   58 1
    58   27   28 ar
    59   27   59 1
    60   28   29 ar
    61   28   31 1
    62   29   30 ar
    63   29   60 1
    64   31   32 1
    65   31   33 1
    66   31   34 1
    67   35   61 1
    68   35   62 1
    69   35   63 1
@<TRIPOS>MOLECULE
CHEMBL218570__5
   64    69     0     0     0
SMALL
USER_CHARGES

@<TRIPOS>ATOM
      1 C1         -0.7070    1.1317    0.3700 C.3       1 <0>        -0.1334
      2 C2         -0.2113   -0.2680    0.0012 C.3       1 <0>        -0.0852
      3 C3          0.9183   -0.1822   -1.0513 C.3       1 <0>        -0.0968
      4 C4          1.8481   -1.3341   -0.6099 C.3       1 <0>         0.1051
      5 N1          1.5956   -1.5135    0.8246 N.am      1 <0>        -0.6106
      6 C5          0.4426   -0.9295    1.1942 C.2       1 <0>         0.5306
      7 O1         -0.0076   -0.9322    2.3204 O.2       1 <0>        -0.5131
      8 C6          2.4857   -2.2361    1.7367 C.3       1 <0>         0.1693
      9 C7          3.2824   -3.2798    0.9514 C.3       1 <0>        -0.0898
     10 C8          2.3178   -4.2671    0.2913 C.3       1 <0>        -0.1144
     11 C9          1.4861   -4.9653    1.3690 C.3       1 <0>        -0.0819
     12 C10         0.6893   -3.9216    2.1543 C.3       1 <0>        -0.1024
     13 C11         1.6539   -2.9343    2.8144 C.3       1 <0>        -0.1033
     14 C12         2.5835   -3.6890    3.7669 C.3       1 <0>        -0.0905
     15 C13         3.3802   -4.7327    2.9816 C.3       1 <0>         0.0267
     16 C14         2.4156   -5.7200    2.3215 C.3       1 <0>        -0.1075
     17 C15         4.2120   -4.0345    1.9038 C.3       1 <0>        -0.0994
     18 C16         4.2958   -5.4760    3.9198 C.2       1 <0>         0.2045
     19 N2          4.6238   -5.1210    5.1381 N.2       1 <0>        -0.2933
     20 N3          5.4229   -6.0140    5.6113 N.2       1 <0>        -0.0669
     21 N4          5.6132   -6.9295    4.7265 N.2       1 <0>        -0.0870
     22 N5          4.9309   -6.6365    3.6714 N.pl3     1 <0>        -0.4055
     23 C17         0.3739   -0.4271   -2.4600 C.3       1 <0>         0.0793
     24 O2          1.4173   -0.2262   -3.4155 O.3       1 <0>        -0.2967
     25 C18         1.0987   -0.4049   -4.7221 C.ar      1 <0>         0.3547
     26 C19         2.0720   -0.2297   -5.6978 C.ar      1 <0>        -0.1895
     27 C20         1.7343   -0.4155   -7.0267 C.ar      1 <0>         0.0099
     28 C21         0.4282   -0.7717   -7.3344 C.ar      1 <0>        -0.2801
     29 C22        -0.4874   -0.9288   -6.3133 C.ar      1 <0>         0.2007
     30 N6         -0.1341   -0.7496   -5.0545 N.ar      1 <0>        -0.5366
     31 C23         0.0143   -0.9842   -8.7678 C.3       1 <0>         0.5201
     32 F1          0.2116   -2.3247   -9.1163 F         1 <0>        -0.1743
     33 F2         -1.3380   -0.6580   -8.9159 F         1 <0>        -0.1744
     34 F3          0.7852   -0.1673   -9.6018 F         1 <0>        -0.1750
     35 C24        -1.3677   -1.1244   -0.5188 C.3       1 <0>        -0.1396
     36 H1          0.1316    1.7337    0.7198 H         1 <0>         0.0608
     37 H2         -1.1515    1.6025   -0.5069 H         1 <0>         0.0674
     38 H3         -1.4544    1.0561    1.1598 H         1 <0>         0.0720
     39 H4          1.4321    0.7774   -0.9946 H         1 <0>         0.1060
     40 H5          1.6023   -2.2465   -1.1532 H         1 <0>         0.0774
     41 H6          2.8904   -1.0632   -0.7784 H         1 <0>         0.0845
     42 H7          3.1729   -1.5327    2.2069 H         1 <0>         0.0759
     43 H8          3.8750   -2.7823    0.1836 H         1 <0>         0.0845
     44 H9          1.6556   -3.7294   -0.3873 H         1 <0>         0.0726
     45 H10         2.8854   -5.0106   -0.2682 H         1 <0>         0.0671
     46 H11         0.7989   -5.6687    0.8988 H         1 <0>         0.0786
     47 H12         0.0271   -3.3840    1.4758 H         1 <0>         0.0640
     48 H13         0.0967   -4.4191    2.9221 H         1 <0>         0.0662
     49 H14         1.0863   -2.1908    3.3739 H         1 <0>         0.1148
     50 H15         3.2707   -2.9856    4.2372 H         1 <0>         0.0812
     51 H16         1.9909   -4.1864    4.5347 H         1 <0>         0.0783
     52 H17         1.8231   -6.2175    3.0893 H         1 <0>         0.0743
     53 H18         2.9833   -6.4636    1.7620 H         1 <0>         0.0638
     54 H19         4.7796   -4.7780    1.3444 H         1 <0>         0.0718
     55 H20         4.8992   -3.3311    2.3741 H         1 <0>         0.0779
     56 H21         0.0052   -1.4501   -2.5343 H         1 <0>         0.0796
     57 H22        -0.4412    0.2683   -2.6605 H         1 <0>         0.0812
     58 H23         3.0788    0.0482   -5.4227 H         1 <0>         0.1560
     59 H24         2.4698   -0.2859   -7.8069 H         1 <0>         0.1562
     60 H25        -1.5047   -1.2059   -6.5473 H         1 <0>         0.1733
     61 H26        -1.7894   -0.6621   -1.4113 H         1 <0>         0.0744
     62 H27        -1.0000   -2.1206   -0.7648 H         1 <0>         0.0606
     63 H28        -2.1374   -1.2006    0.2492 H         1 <0>         0.0710
     64 H29         4.8860   -7.1540    2.8522 H         1 <0>         0.4547
@<TRIPOS>BOND
     1    1    2 1
     2    1   36 1
     3    1   37 1
     4    1   38 1
     5    2    6 1
     6    2    3 1
     7    2   35 1
     8    3    4 1
     9    3   23 1
    10    3   39 1
    11    4    5 1
    12    4   40 1
    13    4   41 1
    14    5    6 am
    15    5    8 1
    16    6    7 2
    17    8   13 1
    18    8    9 1
    19    8   42 1
    20    9   17 1
    21    9   10 1
    22    9   43 1
    23   10   11 1
    24   10   44 1
    25   10   45 1
    26   11   16 1
    27   11   12 1
    28   11   46 1
    29   12   13 1
    30   12   47 1
    31   12   48 1
    32   13   14 1
    33   13   49 1
    34   14   15 1
    35   14   50 1
    36   14   51 1
    37   15   16 1
    38   15   17 1
    39   15   18 1
    40   16   52 1
    41   16   53 1
    42   17   54 1
    43   17   55 1
    44   18   19 2
    45   18   22 1
    46   19   20 1
    47   20   21 2
    48   21   22 1
    49   22   64 1
    50   23   24 1
    51   23   56 1
    52   23   57 1
    53   24   25 1
    54   25   30 ar
    55   25   26 ar
    56   26   27 ar
    57   26   58 1
    58   27   28 ar
    59   27   59 1
    60   28   29 ar
    61   28   31 1
    62   29   30 ar
    63   29   60 1
    64   31   32 1
    65   31   33 1
    66   31   34 1
    67   35   61 1
    68   35   62 1
    69   35   63 1
@<TRIPOS>MOLECULE
CHEMBL562644
   59    61     0     0     0
SMALL
USER_CHARGES

@<TRIPOS>ATOM
      1 C1         -0.2886    1.4467   -0.0243 C.3       1 <0>        -0.1396
      2 C2         -0.0956   -0.0706    0.0130 C.3       1 <0>        -0.0378
      3 C3          0.6413   -0.4596    1.2962 C.3       1 <0>        -0.1411
      4 C4         -1.4614   -0.7594   -0.0196 C.3       1 <0>        -0.1479
      5 C5          0.7140   -0.5035   -1.1821 C.ar      1 <0>        -0.0093
      6 C6          0.1771   -1.3910   -2.0959 C.ar      1 <0>        -0.1402
      7 C7          0.9197   -1.7881   -3.1921 C.ar      1 <0>        -0.0154
      8 C8          2.1991   -1.2974   -3.3748 C.ar      1 <0>        -0.6821
      9 C9          2.7356   -0.4092   -2.4614 C.ar      1 <0>        -0.0201
     10 C10         1.9914   -0.0088   -1.3675 C.ar      1 <0>        -0.1366
     11 S1          3.1461   -1.8044   -4.7715 S.o2      1 <0>         2.6814
     12 O1          4.5119   -1.6254   -4.4227 O.2       1 <0>        -0.9548
     13 O2          2.6231   -3.0601   -5.1826 O.2       1 <0>        -0.9541
     14 N1          2.8258   -0.7350   -5.9946 N.pl3     1 <0>        -0.9842
     15 C11         1.7028   -1.0212   -6.9087 C.3       1 <0>         0.1202
     16 C12         0.8754    0.2383   -7.2235 C.3       1 <0>        -0.1341
     17 C13         0.7020    1.0696   -5.9764 C.3       1 <0>        -0.0946
     18 C14         1.8272    2.0966   -5.8927 C.3       1 <0>         0.1724
     19 C15         3.0631    1.5923   -5.2747 C.3       1 <0>        -0.1780
     20 C16         3.6540    0.4435   -6.1194 C.3       1 <0>         0.1147
     21 C17         1.3393    3.2769   -5.0928 C.ar      1 <0>        -0.1152
     22 C18         0.8608    4.4004   -5.7404 C.ar      1 <0>        -0.1031
     23 C19         0.4133    5.4831   -5.0066 C.ar      1 <0>        -0.1210
     24 C20         0.4439    5.4421   -3.6252 C.ar      1 <0>        -0.1188
     25 C21         0.9216    4.3181   -2.9776 C.ar      1 <0>        -0.1188
     26 C22         1.3651    3.2338   -3.7113 C.ar      1 <0>        -0.1110
     27 O3          2.1314    2.5450   -7.2150 O.3       1 <0>        -0.3693
     28 C23         3.2452    3.4377   -7.2841 C.3       1 <0>         0.0159
     29 H1          0.6844    1.9374   -0.0011 H         1 <0>         0.0585
     30 H2         -0.8136    1.7238   -0.9385 H         1 <0>         0.0589
     31 H3         -0.8742    1.7598    0.8401 H         1 <0>         0.0630
     32 H4          0.0557   -0.1465    2.1606 H         1 <0>         0.0636
     33 H5          0.7788   -1.5405    1.3228 H         1 <0>         0.0585
     34 H6          1.6143    0.0311    1.3194 H         1 <0>         0.0591
     35 H7         -1.9863   -0.4823   -0.9338 H         1 <0>         0.0608
     36 H8         -1.3239   -1.8404    0.0069 H         1 <0>         0.0609
     37 H9         -2.0470   -0.4463    0.8448 H         1 <0>         0.0627
     38 H10        -0.8224   -1.7743   -1.9532 H         1 <0>         0.1369
     39 H11         0.5005   -2.4819   -3.9057 H         1 <0>         0.1383
     40 H12         3.7353   -0.0261   -2.6040 H         1 <0>         0.1380
     41 H13         2.4092    0.6879   -0.6559 H         1 <0>         0.1311
     42 H14         2.0989   -1.4263   -7.8399 H         1 <0>         0.0752
     43 H15         1.0531   -1.7657   -6.4488 H         1 <0>         0.0828
     44 H16         1.3893    0.8281   -7.9825 H         1 <0>         0.0957
     45 H17        -0.1039   -0.0574   -7.5998 H         1 <0>         0.0778
     46 H18        -0.2581    1.5844   -6.0130 H         1 <0>         0.0724
     47 H19         0.7347    0.4221   -5.1001 H         1 <0>         0.0743
     48 H20         3.7892    2.4024   -5.2070 H         1 <0>         0.0885
     49 H21         2.8416    1.2252   -4.2726 H         1 <0>         0.0789
     50 H22         4.6603    0.2191   -5.7655 H         1 <0>         0.0964
     51 H23         3.6969    0.7479   -7.1651 H         1 <0>         0.0984
     52 H24         0.8368    4.4325   -6.8197 H         1 <0>         0.1286
     53 H25         0.0400    6.3612   -5.5126 H         1 <0>         0.1217
     54 H26         0.0949    6.2882   -3.0520 H         1 <0>         0.1206
     55 H27         0.9458    4.2862   -1.8983 H         1 <0>         0.1203
     56 H28         1.7349    2.3542   -3.2053 H         1 <0>         0.1197
     57 H29         3.0928    4.2634   -6.5891 H         1 <0>         0.0479
     58 H30         4.1568    2.9025   -7.0182 H         1 <0>         0.0466
     59 H31         3.3355    3.8280   -8.2978 H         1 <0>         0.0864
@<TRIPOS>BOND
     1    1    2 1
     2    1   29 1
     3    1   30 1
     4    1   31 1
     5    2    3 1
     6    2    4 1
     7    2    5 1
     8    3   32 1
     9    3   33 1
    10    3   34 1
    11    4   35 1
    12    4   36 1
    13    4   37 1
    14    5   10 ar
    15    5    6 ar
    16    6    7 ar
    17    6   38 1
    18    7    8 ar
    19    7   39 1
    20    8    9 ar
    21    8   11 1
    22    9   10 ar
    23    9   40 1
    24   10   41 1
    25   11   12 2
    26   11   13 2
    27   11   14 1
    28   14   20 1
    29   14   15 1
    30   15   16 1
    31   15   42 1
    32   15   43 1
    33   16   17 1
    34   16   44 1
    35   16   45 1
    36   17   18 1
    37   17   46 1
    38   17   47 1
    39   18   19 1
    40   18   21 1
    41   18   27 1
    42   19   20 1
    43   19   48 1
    44   19   49 1
    45   20   50 1
    46   20   51 1
    47   21   26 ar
    48   21   22 ar
    49   22   23 ar
    50   22   52 1
    51   23   24 ar
    52   23   53 1
    53   24   25 ar
    54   24   54 1
    55   25   26 ar
    56   25   55 1
    57   26   56 1
    58   27   28 1
    59   28   57 1
    60   28   58 1
    61   28   59 1
@<TRIPOS>MOLECULE
CHEMBL562644__1
   59    61     0     0     0
SMALL
USER_CHARGES

@<TRIPOS>ATOM
      1 C1         -1.1979    2.6629   -0.7901 C.3       1 <0>        -0.1397
      2 C2         -1.0973    1.1566   -0.5417 C.3       1 <0>        -0.0386
      3 C3         -0.4971    0.9070    0.8433 C.3       1 <0>        -0.1411
      4 C4         -2.4929    0.5336   -0.6126 C.3       1 <0>        -0.1478
      5 C5         -0.2146    0.5323   -1.5916 C.ar      1 <0>        -0.0130
      6 C6         -0.7217   -0.4424   -2.4305 C.ar      1 <0>        -0.1422
      7 C7          0.0879   -1.0151   -3.3935 C.ar      1 <0>        -0.0167
      8 C8          1.4045   -0.6128   -3.5179 C.ar      1 <0>        -0.6817
      9 C9          1.9114    0.3625   -2.6796 C.ar      1 <0>        -0.0188
     10 C10         1.1006    0.9383   -1.7194 C.ar      1 <0>        -0.1370
     11 S1          2.4368   -1.3436   -4.7447 S.o2      1 <0>         2.6854
     12 O1          3.7758   -1.1835   -4.2966 O.2       1 <0>        -0.9588
     13 O2          1.8790   -2.6170   -5.0388 O.2       1 <0>        -0.9521
     14 N1          2.2854   -0.4317   -6.1186 N.pl3     1 <0>        -0.9864
     15 C11         1.2740   -0.7377   -7.0886 C.3       1 <0>         0.1153
     16 C12         1.6694   -1.7563   -8.1865 C.3       1 <0>        -0.1245
     17 C13         3.1122   -1.4799   -8.6757 C.3       1 <0>        -0.1072
     18 C14         3.3721   -0.0039   -8.7635 C.3       1 <0>         0.1705
     19 C15         4.0933    0.3583   -7.4693 C.3       1 <0>        -0.1679
     20 C16         3.2006    0.7329   -6.3663 C.3       1 <0>         0.1319
     21 C17         4.2474    0.3019   -9.9515 C.ar      1 <0>        -0.1087
     22 C18         5.6230    0.2388   -9.8310 C.ar      1 <0>        -0.1108
     23 C19         6.4259    0.5193  -10.9208 C.ar      1 <0>        -0.1195
     24 C20         5.8531    0.8625  -12.1312 C.ar      1 <0>        -0.1173
     25 C21         4.4775    0.9248  -12.2519 C.ar      1 <0>        -0.1213
     26 C22         3.6745    0.6401  -11.1633 C.ar      1 <0>        -0.1026
     27 O3          2.1383    0.7107   -8.8589 O.3       1 <0>        -0.3538
     28 C23         2.2945    2.1247   -8.9939 C.3       1 <0>         0.0098
     29 H1         -0.2037    3.1067   -0.7396 H         1 <0>         0.0590
     30 H2         -1.6255    2.8407   -1.7768 H         1 <0>         0.0580
     31 H3         -1.8364    3.1145   -0.0307 H         1 <0>         0.0635
     32 H4         -1.1355    1.3586    1.6027 H         1 <0>         0.0638
     33 H5         -0.4253   -0.1661    1.0203 H         1 <0>         0.0586
     34 H6          0.4972    1.3509    0.8938 H         1 <0>         0.0593
     35 H7         -2.9205    0.7114   -1.5993 H         1 <0>         0.0609
     36 H8         -2.4212   -0.5395   -0.4356 H         1 <0>         0.0610
     37 H9         -3.1313    0.9852    0.1468 H         1 <0>         0.0629
     38 H10        -1.7504   -0.7567   -2.3332 H         1 <0>         0.1372
     39 H11        -0.3081   -1.7771   -4.0484 H         1 <0>         0.1387
     40 H12         2.9402    0.6766   -2.7766 H         1 <0>         0.1377
     41 H13         1.4955    1.7029   -1.0670 H         1 <0>         0.1314
     42 H14         0.4039   -1.1279   -6.5607 H         1 <0>         0.0590
     43 H15         0.9798    0.1912   -7.5772 H         1 <0>         0.1116
     44 H16         1.6130   -2.7660   -7.7798 H         1 <0>         0.0696
     45 H17         0.9801   -1.6682   -9.0263 H         1 <0>         0.0792
     46 H18         3.8196   -1.9277   -7.9777 H         1 <0>         0.0737
     47 H19         3.2491   -1.9273   -9.6602 H         1 <0>         0.0695
     48 H20         4.6933   -0.4963   -7.1564 H         1 <0>         0.0835
     49 H21         4.7644    1.1936   -7.6689 H         1 <0>         0.0782
     50 H22         2.6162    1.6106   -6.6423 H         1 <0>         0.0845
     51 H23         3.7836    0.9426   -5.4695 H         1 <0>         0.0931
     52 H24         6.0705   -0.0294   -8.8854 H         1 <0>         0.1244
     53 H25         7.5007    0.4706  -10.8264 H         1 <0>         0.1231
     54 H26         6.4804    1.0824  -12.9824 H         1 <0>         0.1218
     55 H27         4.0300    1.1933  -13.1975 H         1 <0>         0.1226
     56 H28         2.5997    0.6852  -11.2586 H         1 <0>         0.1277
     57 H29         2.9308    2.4983   -8.1916 H         1 <0>         0.0458
     58 H30         2.7542    2.3492   -9.9565 H         1 <0>         0.0495
     59 H31         1.3179    2.6053   -8.9368 H         1 <0>         0.0857
@<TRIPOS>BOND
     1    1    2 1
     2    1   29 1
     3    1   30 1
     4    1   31 1
     5    2    3 1
     6    2    4 1
     7    2    5 1
     8    3   32 1
     9    3   33 1
    10    3   34 1
    11    4   35 1
    12    4   36 1
    13    4   37 1
    14    5   10 ar
    15    5    6 ar
    16    6    7 ar
    17    6   38 1
    18    7    8 ar
    19    7   39 1
    20    8    9 ar
    21    8   11 1
    22    9   10 ar
    23    9   40 1
    24   10   41 1
    25   11   12 2
    26   11   13 2
    27   11   14 1
    28   14   20 1
    29   14   15 1
    30   15   16 1
    31   15   42 1
    32   15   43 1
    33   16   17 1
    34   16   44 1
    35   16   45 1
    36   17   18 1
    37   17   46 1
    38   17   47 1
    39   18   19 1
    40   18   21 1
    41   18   27 1
    42   19   20 1
    43   19   48 1
    44   19   49 1
    45   20   50 1
    46   20   51 1
    47   21   26 ar
    48   21   22 ar
    49   22   23 ar
    50   22   52 1
    51   23   24 ar
    52   23   53 1
    53   24   25 ar
    54   24   54 1
    55   25   26 ar
    56   25   55 1
    57   26   56 1
    58   27   28 1
    59   28   57 1
    60   28   58 1
    61   28   59 1
@<TRIPOS>MOLECULE
CHEMBL549772
   51    54     0     0     0
SMALL
USER_CHARGES

@<TRIPOS>ATOM
      1 C1         -0.6741    1.3304    0.4578 C.3       1 <0>        -0.2018
      2 C2         -0.2933   -0.1340    0.2310 C.3       1 <0>         0.1400
      3 H1         -1.1442   -0.7737    0.4651 H         1 <0>         0.0915
      4 C3          0.1171   -0.3385   -1.2326 C.3       1 <0>         0.1336
      5 N1          0.7220   -1.6709   -1.3689 N.pl3     1 <0>        -0.6790
      6 C4          1.8600   -2.0235   -0.5084 C.3       1 <0>         0.1226
      7 C5          1.4496   -1.8191    0.9551 C.3       1 <0>         0.0994
      8 N2          0.8421   -0.4878    1.0945 N.pl3     1 <0>        -0.9844
      9 S1          1.4299    0.5959    2.2001 S.o2      1 <0>         2.6905
     10 O1          0.3135    1.3328    2.6796 O.2       1 <0>        -0.9437
     11 O2          2.2902   -0.1326    3.0651 O.2       1 <0>        -0.9387
     12 C6          2.4465    1.7363    1.3222 C.ar      1 <0>        -0.6846
     13 C7          2.0535    3.0560    1.1962 C.ar      1 <0>         0.0153
     14 C8          2.8480    3.9523    0.5087 C.ar      1 <0>        -0.1291
     15 C9          4.0431    3.5276   -0.0568 C.ar      1 <0>         0.2263
     16 C10         4.4359    2.2025    0.0706 C.ar      1 <0>        -0.1490
     17 C11         3.6394    1.3108    0.7648 C.ar      1 <0>         0.0819
     18 Cl1         4.1330   -0.3452    0.9317 Cl        1 <0>        -0.0208
     19 N3          4.8511    4.4355   -0.7556 N.pl3     1 <0>        -0.3449
     20 C12         6.0265    4.1724   -1.3591 C.2       1 <0>         0.2717
     21 N4          6.4624    5.2821   -1.8983 N.2       1 <0>        -0.5269
     22 C13         5.5990    6.2693   -1.6622 C.2       1 <0>         0.2200
     23 N5          4.5935    5.7993   -0.9711 N.2       1 <0>        -0.3083
     24 C14         0.2240   -2.5865   -2.3009 C.ar      1 <0>         0.2131
     25 C15        -0.7993   -3.4554   -1.9440 C.ar      1 <0>        -0.0959
     26 C16        -1.2899   -4.3586   -2.8663 C.ar      1 <0>        -0.1127
     27 C17        -0.7626   -4.3984   -4.1462 C.ar      1 <0>         0.0985
     28 C18         0.2574   -3.5334   -4.5041 C.ar      1 <0>        -0.1033
     29 C19         0.7476   -2.6247   -3.5864 C.ar      1 <0>        -0.1664
     30 C20         1.8536   -1.6790   -3.9784 C.3       1 <0>         0.5173
     31 F1          2.1384   -1.8332   -5.3394 F         1 <0>        -0.1783
     32 F2          1.4502   -0.3622   -3.7327 F         1 <0>        -0.1712
     33 F3          2.9989   -1.9638   -3.2272 F         1 <0>        -0.1721
     34 F4         -1.2438   -5.2831   -5.0467 F         1 <0>        -0.1292
     35 H2          0.2248    1.9466    0.4397 H         1 <0>         0.0546
     36 H3         -1.3533    1.6554   -0.3304 H         1 <0>         0.0836
     37 H4         -1.1651    1.4325    1.4255 H         1 <0>         0.1119
     38 H5         -0.7627   -0.2689   -1.8723 H         1 <0>         0.0859
     39 H6          0.8420    0.4234   -1.5191 H         1 <0>         0.0640
     40 H7          2.1313   -3.0668   -0.6700 H         1 <0>         0.0862
     41 H8          2.7090   -1.3816   -0.7434 H         1 <0>         0.0675
     42 H9          0.7247   -2.5810    1.2417 H         1 <0>         0.0832
     43 H10         2.3294   -1.8886    1.5949 H         1 <0>         0.1033
     44 H11         1.1238    3.3863    1.6358 H         1 <0>         0.1661
     45 H12         2.5400    4.9828    0.4107 H         1 <0>         0.1568
     46 H13         5.3649    1.8695   -0.3682 H         1 <0>         0.1528
     47 H14         6.5224    3.2135   -1.3918 H         1 <0>         0.2268
     48 H15         5.7096    7.2916   -1.9925 H         1 <0>         0.2296
     49 H16        -1.2106   -3.4249   -0.9459 H         1 <0>         0.1471
     50 H17        -2.0853   -5.0345   -2.5891 H         1 <0>         0.1478
     51 H18         0.6672   -3.5662   -5.5028 H         1 <0>         0.1516
@<TRIPOS>BOND
     1    1    2 1
     2    1   35 1
     3    1   36 1
     4    1   37 1
     5    2    3 1
     6    2    8 1
     7    2    4 1
     8    4    5 1
     9    4   38 1
    10    4   39 1
    11    5    6 1
    12    5   24 1
    13    6    7 1
    14    6   40 1
    15    6   41 1
    16    7    8 1
    17    7   42 1
    18    7   43 1
    19    8    9 1
    20    9   10 2
    21    9   11 2
    22    9   12 1
    23   12   17 ar
    24   12   13 ar
    25   13   14 ar
    26   13   44 1
    27   14   15 ar
    28   14   45 1
    29   15   16 ar
    30   15   19 1
    31   16   17 ar
    32   16   46 1
    33   17   18 1
    34   19   23 1
    35   19   20 1
    36   20   21 2
    37   20   47 1
    38   21   22 1
    39   22   23 2
    40   22   48 1
    41   24   29 ar
    42   24   25 ar
    43   25   26 ar
    44   25   49 1
    45   26   27 ar
    46   26   50 1
    47   27   28 ar
    48   27   34 1
    49   28   29 ar
    50   28   51 1
    51   29   30 1
    52   30   31 1
    53   30   32 1
    54   30   33 1
@<TRIPOS>MOLECULE
CHEMBL564733
   58    61     0     0     0
SMALL
USER_CHARGES

@<TRIPOS>ATOM
      1 C1         -0.6470    1.2472    0.3995 C.3       1 <0>        -0.2018
      2 C2         -0.2270   -0.2111    0.2053 C.3       1 <0>         0.1400
      3 H1         -1.0677   -0.8671    0.4311 H         1 <0>         0.0906
      4 C3          0.2207   -0.4290   -1.2454 C.3       1 <0>         0.1345
      5 N1          0.8596   -1.7486   -1.3465 N.pl3     1 <0>        -0.6791
      6 C4          1.9861   -2.0603   -0.4556 C.3       1 <0>         0.1230
      7 C5          1.5384   -1.8425    0.9950 C.3       1 <0>         0.0997
      8 N2          0.8968   -0.5240    1.0992 N.pl3     1 <0>        -0.9848
      9 S1          1.4342    0.5908    2.1995 S.o2      1 <0>         2.6900
     10 O1          0.2905    1.3089    2.6418 O.2       1 <0>        -0.9456
     11 O2          2.2914   -0.1033    3.0954 O.2       1 <0>        -0.9399
     12 C6          2.4437    1.7405    1.3256 C.ar      1 <0>        -0.6757
     13 C7          2.0228    3.0484    1.1687 C.ar      1 <0>         0.0020
     14 C8          2.8118    3.9521    0.4847 C.ar      1 <0>        -0.1191
     15 C9          4.0297    3.5469   -0.0462 C.ar      1 <0>         0.2061
     16 C10         4.4504    2.2334    0.1124 C.ar      1 <0>        -0.1295
     17 C11         3.6588    1.3344    0.8026 C.ar      1 <0>         0.0670
     18 Cl1         4.1863   -0.3067    1.0076 Cl        1 <0>        -0.0316
     19 N3          4.8308    4.4606   -0.7400 N.am      1 <0>        -0.5737
     20 C12         5.0262    4.2684   -2.1742 C.3       1 <0>         0.0713
     21 C13         5.5266    5.5650   -2.8135 C.3       1 <0>         0.0414
     22 N4          6.6736    6.0629   -2.0370 N.3       1 <0>        -0.6746
     23 C14         6.2284    6.5259   -0.7159 C.3       1 <0>         0.0495
     24 C15         5.3787    5.4739   -0.0611 C.2       1 <0>         0.4835
     25 O3          5.1858    5.5441    1.1342 O.2       1 <0>        -0.5226
     26 C16         0.4041   -2.6905   -2.2741 C.ar      1 <0>         0.2138
     27 C17        -0.6112   -3.5729   -1.9280 C.ar      1 <0>        -0.0962
     28 C18        -1.0598   -4.5021   -2.8459 C.ar      1 <0>        -0.1126
     29 C19        -0.4981   -4.5545   -4.1106 C.ar      1 <0>         0.0980
     30 C20         0.5140   -3.6760   -4.4578 C.ar      1 <0>        -0.1033
     31 C21         0.9622   -2.7414   -3.5446 C.ar      1 <0>        -0.1670
     32 C22         2.0596   -1.7812   -3.9252 C.3       1 <0>         0.5176
     33 F1          2.3828   -1.9539   -5.2753 F         1 <0>        -0.1785
     34 F2          1.6245   -0.4684   -3.7140 F         1 <0>        -0.1713
     35 F3          3.1901   -2.0299   -3.1395 F         1 <0>        -0.1720
     36 F4         -0.9382   -5.4646   -5.0069 F         1 <0>        -0.1293
     37 H2          0.2375    1.8841    0.3925 H         1 <0>         0.0557
     38 H3         -1.3148    1.5438   -0.4093 H         1 <0>         0.0827
     39 H4         -1.1630    1.3526    1.3539 H         1 <0>         0.1113
     40 H5         -0.6460   -0.3906   -1.9053 H         1 <0>         0.0854
     41 H6          0.9337    0.3453   -1.5284 H         1 <0>         0.0638
     42 H7          2.2853   -3.0993   -0.5940 H         1 <0>         0.0855
     43 H8          2.8248   -1.4022   -0.6824 H         1 <0>         0.0680
     44 H9          0.8254   -2.6168    1.2780 H         1 <0>         0.0823
     45 H10         2.4050   -1.8809    1.6550 H         1 <0>         0.1031
     46 H11         1.0757    3.3634    1.5813 H         1 <0>         0.1600
     47 H12         2.4820    4.9733    0.3625 H         1 <0>         0.1402
     48 H13         5.3969    1.9154   -0.2993 H         1 <0>         0.1443
     49 H14         5.7597    3.4786   -2.3365 H         1 <0>         0.0762
     50 H15         4.0802    3.9807   -2.6327 H         1 <0>         0.0888
     51 H16         5.8369    5.3703   -3.8401 H         1 <0>         0.1080
     52 H17         4.7292    6.3081   -2.8051 H         1 <0>         0.0891
     53 H18         7.3866    5.3543   -1.9505 H         1 <0>         0.3520
     54 H19         7.0985    6.7316   -0.0925 H         1 <0>         0.1199
     55 H20         5.6435    7.4385   -0.8305 H         1 <0>         0.1175
     56 H21        -1.0492   -3.5327   -0.9416 H         1 <0>         0.1470
     57 H22        -1.8489   -5.1887   -2.5770 H         1 <0>         0.1478
     58 H23         0.9505   -3.7186   -5.4447 H         1 <0>         0.1515
@<TRIPOS>BOND
     1    1    2 1
     2    1   37 1
     3    1   38 1
     4    1   39 1
     5    2    3 1
     6    2    8 1
     7    2    4 1
     8    4    5 1
     9    4   40 1
    10    4   41 1
    11    5    6 1
    12    5   26 1
    13    6    7 1
    14    6   42 1
    15    6   43 1
    16    7    8 1
    17    7   44 1
    18    7   45 1
    19    8    9 1
    20    9   10 2
    21    9   11 2
    22    9   12 1
    23   12   17 ar
    24   12   13 ar
    25   13   14 ar
    26   13   46 1
    27   14   15 ar
    28   14   47 1
    29   15   16 ar
    30   15   19 1
    31   16   17 ar
    32   16   48 1
    33   17   18 1
    34   19   24 am
    35   19   20 1
    36   20   21 1
    37   20   49 1
    38   20   50 1
    39   21   22 1
    40   21   51 1
    41   21   52 1
    42   22   23 1
    43   22   53 1
    44   23   24 1
    45   23   54 1
    46   23   55 1
    47   24   25 2
    48   26   31 ar
    49   26   27 ar
    50   27   28 ar
    51   27   56 1
    52   28   29 ar
    53   28   57 1
    54   29   30 ar
    55   29   36 1
    56   30   31 ar
    57   30   58 1
    58   31   32 1
    59   32   33 1
    60   32   34 1
    61   32   35 1
@<TRIPOS>MOLECULE
CHEMBL564733__1
   59    62     0     0     0
SMALL
USER_CHARGES

@<TRIPOS>ATOM
      1 C1         -0.6468    1.2458    0.3994 C.3       1 <0>        -0.1995
      2 C2         -0.2265   -0.2126    0.2062 C.3       1 <0>         0.1376
      3 H1         -1.0671   -0.8686    0.4324 H         1 <0>         0.0944
      4 C3          0.2215   -0.4315   -1.2442 C.3       1 <0>         0.1354
      5 N1          0.8606   -1.7511   -1.3442 N.pl3     1 <0>        -0.6779
      6 C4          1.9870   -2.0619   -0.4528 C.3       1 <0>         0.1234
      7 C5          1.5390   -1.8431    0.9976 C.3       1 <0>         0.0980
      8 N2          0.8972   -0.5247    1.1006 N.pl3     1 <0>        -0.9820
      9 S1          1.4341    0.5911    2.2002 S.o2      1 <0>         2.6844
     10 O1          0.2902    1.3092    2.6418 O.2       1 <0>        -0.9398
     11 O2          2.2913   -0.1022    3.0967 O.2       1 <0>        -0.9347
     12 C6          2.4435    1.7404    1.3257 C.ar      1 <0>        -0.6625
     13 C7          2.0224    3.0481    1.1678 C.ar      1 <0>         0.0040
     14 C8          2.8112    3.9515    0.4833 C.ar      1 <0>        -0.1269
     15 C9          4.0293    3.5462   -0.0472 C.ar      1 <0>         0.1780
     16 C10         4.4503    2.2329    0.1124 C.ar      1 <0>        -0.1090
     17 C11         3.6587    1.3342    0.8031 C.ar      1 <0>         0.0669
     18 Cl1         4.1866   -0.3067    1.0093 Cl        1 <0>        -0.0163
     19 N3          4.8302    4.4596   -0.7416 N.am      1 <0>        -0.5710
     20 C12         5.4357    5.5648   -0.0028 C.3       1 <0>         0.0798
     21 C13         6.5836    6.1671   -0.8152 C.3       1 <0>        -0.0182
     22 N4          6.1000    6.4614   -2.1732 N.4       1 <0>        -0.5066
     23 C14         5.8750    5.1957   -2.8824 C.3       1 <0>        -0.0100
     24 C15         5.0155    4.2830   -2.0547 C.2       1 <0>         0.4957
     25 O3          4.4637    3.3507   -2.6000 O.2       1 <0>        -0.4623
     26 C16         0.4055   -2.6937   -2.2712 C.ar      1 <0>         0.2096
     27 C17        -0.6097   -3.5761   -1.9246 C.ar      1 <0>        -0.0952
     28 C18        -1.0579   -4.5060   -2.8419 C.ar      1 <0>        -0.1115
     29 C19        -0.4960   -4.5592   -4.1065 C.ar      1 <0>         0.1014
     30 C20         0.5160   -3.6808   -4.4541 C.ar      1 <0>        -0.1037
     31 C21         0.9639   -2.7455   -3.5415 C.ar      1 <0>        -0.1674
     32 C22         2.0612   -1.7854   -3.9225 C.3       1 <0>         0.5183
     33 F1          2.3848   -1.9590   -5.2725 F         1 <0>        -0.1780
     34 F2          1.6259   -0.4725   -3.7125 F         1 <0>        -0.1723
     35 F3          3.1916   -2.0333   -3.1364 F         1 <0>        -0.1734
     36 F4         -0.9358   -5.4701   -5.0022 F         1 <0>        -0.1272
     37 H2          0.2376    1.8828    0.3918 H         1 <0>         0.0504
     38 H3         -1.3146    1.5416   -0.4098 H         1 <0>         0.0845
     39 H4         -1.1629    1.3519    1.3536 H         1 <0>         0.1125
     40 H5         -0.6450   -0.3937   -1.9043 H         1 <0>         0.0867
     41 H6          0.9345    0.3428   -1.5276 H         1 <0>         0.0615
     42 H7          2.2864   -3.1009   -0.5904 H         1 <0>         0.0877
     43 H8          2.8257   -1.4038   -0.6799 H         1 <0>         0.0651
     44 H9          0.8260   -2.6173    1.2810 H         1 <0>         0.0864
     45 H10         2.4055   -1.8809    1.6578 H         1 <0>         0.1030
     46 H11         1.0751    3.3631    1.5800 H         1 <0>         0.1659
     47 H12         2.4812    4.9725    0.3603 H         1 <0>         0.1448
     48 H13         5.3969    1.9148   -0.2990 H         1 <0>         0.1449
     49 H14         4.6831    6.3310    0.1837 H         1 <0>         0.1077
     50 H15         5.8196    5.1970    0.9488 H         1 <0>         0.1320
     51 H16         6.9231    7.0879   -0.3408 H         1 <0>         0.1638
     52 H17         7.4074    5.4552   -0.8670 H         1 <0>         0.1459
     53 H18         5.2344    6.9771   -2.1193 H         1 <0>         0.4372
     54 H19         5.3815    5.3970   -3.8332 H         1 <0>         0.1745
     55 H20         6.8333    4.7115   -3.0704 H         1 <0>         0.1700
     56 H21        -1.0479   -3.5351   -0.9384 H         1 <0>         0.1473
     57 H22        -1.8471   -5.1924   -2.5727 H         1 <0>         0.1494
     58 H23         0.9528   -3.7241   -5.4409 H         1 <0>         0.1520
     59 H24         6.7902    7.0073   -2.6668 H         1 <0>         0.4453
@<TRIPOS>BOND
     1    1    2 1
     2    1   37 1
     3    1   38 1
     4    1   39 1
     5    2    3 1
     6    2    8 1
     7    2    4 1
     8    4    5 1
     9    4   40 1
    10    4   41 1
    11    5    6 1
    12    5   26 1
    13    6    7 1
    14    6   42 1
    15    6   43 1
    16    7    8 1
    17    7   44 1
    18    7   45 1
    19    8    9 1
    20    9   10 2
    21    9   11 2
    22    9   12 1
    23   12   17 ar
    24   12   13 ar
    25   13   14 ar
    26   13   46 1
    27   14   15 ar
    28   14   47 1
    29   15   16 ar
    30   15   19 1
    31   16   17 ar
    32   16   48 1
    33   17   18 1
    34   19   24 am
    35   19   20 1
    36   20   21 1
    37   20   49 1
    38   20   50 1
    39   21   22 1
    40   21   51 1
    41   21   52 1
    42   22   23 1
    43   22   53 1
    44   22   59 1
    45   23   24 1
    46   23   54 1
    47   23   55 1
    48   24   25 2
    49   26   31 ar
    50   26   27 ar
    51   27   28 ar
    52   27   56 1
    53   28   29 ar
    54   28   57 1
    55   29   30 ar
    56   29   36 1
    57   30   31 ar
    58   30   58 1
    59   31   32 1
    60   32   33 1
    61   32   34 1
    62   32   35 1
@<TRIPOS>MOLECULE
CHEMBL554289
   45    48     0     0     0
SMALL
USER_CHARGES

@<TRIPOS>ATOM
      1 C1         -2.4241   -0.3859    2.2216 C.ar      1 <0>        -0.1635
      2 C2         -2.3530   -0.1230    3.5766 C.ar      1 <0>         0.1072
      3 N1         -1.1868    0.0131    4.1769 N.ar      1 <0>        -0.4847
      4 C3         -0.0503   -0.0950    3.5170 C.ar      1 <0>         0.1058
      5 C4         -0.0429   -0.3574    2.1601 C.ar      1 <0>        -0.1716
      6 C5         -1.2499   -0.5064    1.4942 C.ar      1 <0>         0.0062
      7 C6         -1.2847   -0.7931    0.0151 C.3       1 <0>        -0.1269
      8 C7         -0.6838   -2.1167   -0.4622 C.3       1 <0>        -0.1271
      9 C8          0.0491   -0.8015   -0.7344 C.3       1 <0>        -0.1529
     10 C9         -2.4926   -0.2716   -0.7198 C.2       1 <0>         0.5696
     11 O1         -3.2803   -1.0470   -1.2189 O.2       1 <0>        -0.5291
     12 N2         -2.6975    1.0566   -0.8224 N.am      1 <0>        -0.6094
     13 C10        -1.7683    2.1075   -0.3672 C.3       1 <0>         0.1020
     14 C11        -2.1226    3.3507   -1.2229 C.3       1 <0>        -0.1261
     15 C12        -3.6575    3.2170   -1.3404 C.3       1 <0>        -0.0658
     16 C13        -3.8828    1.6988   -1.4130 C.3       1 <0>         0.1163
     17 C14        -4.1478    3.8917   -2.6143 C.3       1 <0>        -0.1043
     18 C15        -3.8673    5.3951   -2.5379 C.3       1 <0>        -0.1186
     19 C16        -4.5769    5.9832   -1.3165 C.3       1 <0>        -0.1211
     20 C17        -4.0508    5.3128   -0.0457 C.3       1 <0>        -0.1202
     21 C18        -4.3321    3.8088   -0.1105 C.3       1 <0>        -0.1051
     22 H1         -3.3822   -0.5004    1.7364 H         1 <0>         0.1300
     23 H2         -3.2630   -0.0277    4.1503 H         1 <0>         0.1577
     24 H3          0.8856    0.0231    4.0428 H         1 <0>         0.1588
     25 H4          0.8912   -0.4448    1.6251 H         1 <0>         0.1378
     26 H5         -0.2633   -2.7801    0.2935 H         1 <0>         0.1086
     27 H6         -1.1622   -2.6106   -1.3080 H         1 <0>         0.1121
     28 H7          0.0529   -0.4302   -1.7592 H         1 <0>         0.1055
     29 H8          0.9518   -0.5997   -0.1577 H         1 <0>         0.1114
     30 H9         -1.9237    2.3187    0.6908 H         1 <0>         0.0682
     31 H10        -0.7366    1.8052   -0.5468 H         1 <0>         0.0771
     32 H11        -1.8486    4.2711   -0.7073 H         1 <0>         0.0899
     33 H12        -1.6494    3.2981   -2.2035 H         1 <0>         0.0783
     34 H13        -3.9950    1.3873   -2.4515 H         1 <0>         0.0720
     35 H14        -4.7728    1.4302   -0.8440 H         1 <0>         0.0697
     36 H15        -3.6269    3.4683   -3.4731 H         1 <0>         0.0657
     37 H16        -5.2198    3.7273   -2.7229 H         1 <0>         0.0666
     38 H17        -2.7936    5.5606   -2.4492 H         1 <0>         0.0636
     39 H18        -4.2367    5.8802   -3.4414 H         1 <0>         0.0637
     40 H19        -4.3860    7.0552   -1.2670 H         1 <0>         0.0619
     41 H20        -5.6496    5.8093   -1.4012 H         1 <0>         0.0621
     42 H21        -2.9765    5.4786    0.0348 H         1 <0>         0.0644
     43 H22        -4.5509    5.7391    0.8239 H         1 <0>         0.0637
     44 H23        -5.4077    3.6428   -0.1711 H         1 <0>         0.0667
     45 H24        -3.9405    3.3272    0.7855 H         1 <0>         0.0636
@<TRIPOS>BOND
     1    1    6 ar
     2    1    2 ar
     3    1   22 1
     4    2    3 ar
     5    2   23 1
     6    3    4 ar
     7    4    5 ar
     8    4   24 1
     9    5    6 ar
    10    5   25 1
    11    6    7 1
    12    7    9 1
    13    7    8 1
    14    7   10 1
    15    8    9 1
    16    8   26 1
    17    8   27 1
    18    9   28 1
    19    9   29 1
    20   10   11 2
    21   10   12 am
    22   12   16 1
    23   12   13 1
    24   13   14 1
    25   13   30 1
    26   13   31 1
    27   14   15 1
    28   14   32 1
    29   14   33 1
    30   15   21 1
    31   15   16 1
    32   15   17 1
    33   16   34 1
    34   16   35 1
    35   17   18 1
    36   17   36 1
    37   17   37 1
    38   18   19 1
    39   18   38 1
    40   18   39 1
    41   19   20 1
    42   19   40 1
    43   19   41 1
    44   20   21 1
    45   20   42 1
    46   20   43 1
    47   21   44 1
    48   21   45 1
@<TRIPOS>MOLECULE
CHEMBL559408
   44    46     0     0     0
SMALL
USER_CHARGES

@<TRIPOS>ATOM
      1 C1         -0.0184    1.5028    0.0103 C.3       1 <0>        -0.1264
      2 C2          0.0021   -0.0041    0.0020 C.ar      1 <0>        -0.0281
      3 C3          0.0057   -0.6887   -1.1989 C.ar      1 <0>        -0.1423
      4 C4          0.0245   -2.0709   -1.2065 C.ar      1 <0>        -0.0165
      5 C5          0.0400   -2.7685   -0.0132 C.ar      1 <0>        -0.6852
      6 C6          0.0373   -2.0839    1.1877 C.ar      1 <0>        -0.0168
      7 C7          0.0229   -0.7016    1.1953 C.ar      1 <0>        -0.1422
      8 S1          0.0628   -4.5303   -0.0229 S.o2      1 <0>         2.6914
      9 O1         -0.4759   -4.9503    1.2232 O.2       1 <0>        -0.9484
     10 O2         -0.4897   -4.9367   -1.2674 O.2       1 <0>        -0.9544
     11 N1          1.6509   -4.9994   -0.0343 N.pl3     1 <0>        -0.9927
     12 C8          2.3698   -5.2007   -1.2826 C.3       1 <0>         0.1096
     13 C9          3.4099   -6.3163   -1.0697 C.3       1 <0>        -0.1259
     14 C10         2.6676   -7.5896   -0.6561 C.3       1 <0>        -0.0796
     15 C11         2.4369   -7.6555    0.8221 C.2       1 <0>        -0.0653
     16 C12         2.2389   -6.6550    1.6517 C.2       1 <0>        -0.1618
     17 C13         2.3882   -5.2220    1.2145 C.3       1 <0>         0.1562
     18 C14         2.4307   -9.0073    1.4199 C.ar      1 <0>        -0.0608
     19 C15         3.5936   -9.7786    1.4202 C.ar      1 <0>        -0.1089
     20 C16         3.5813  -11.0395    1.9803 C.ar      1 <0>        -0.1190
     21 C17         2.4194  -11.5394    2.5407 C.ar      1 <0>        -0.1214
     22 C18         1.2632  -10.7798    2.5436 C.ar      1 <0>        -0.1176
     23 C19         1.2636   -9.5153    1.9914 C.ar      1 <0>        -0.1110
     24 H1          1.0042    1.8801    0.0026 H         1 <0>         0.0802
     25 H2         -0.5455    1.8639   -0.8728 H         1 <0>         0.0737
     26 H3         -0.5286    1.8543    0.9071 H         1 <0>         0.0737
     27 H4         -0.0064   -0.1436   -2.1312 H         1 <0>         0.1335
     28 H5          0.0266   -2.6057   -2.1448 H         1 <0>         0.1395
     29 H6          0.0491   -2.6289    2.1200 H         1 <0>         0.1397
     30 H7          0.0245   -0.1667    2.1335 H         1 <0>         0.1335
     31 H8          1.6708   -5.4950   -2.0655 H         1 <0>         0.0917
     32 H9          2.8746   -4.2778   -1.5684 H         1 <0>         0.0665
     33 H10         3.9548   -6.4930   -1.9970 H         1 <0>         0.0844
     34 H11         4.1062   -6.0248   -0.2833 H         1 <0>         0.0774
     35 H12         1.7046   -7.6190   -1.1660 H         1 <0>         0.0795
     36 H13         3.2541   -8.4560   -0.9616 H         1 <0>         0.0749
     37 H14         1.9627   -6.8662    2.6742 H         1 <0>         0.1243
     38 H15         3.4435   -5.0005    1.0549 H         1 <0>         0.0969
     39 H16         1.9962   -4.5612    1.9877 H         1 <0>         0.0844
     40 H17         4.5011   -9.3896    0.9827 H         1 <0>         0.1222
     41 H18         4.4806  -11.6376    1.9809 H         1 <0>         0.1227
     42 H19         2.4149  -12.5271    2.9775 H         1 <0>         0.1214
     43 H20         0.3594  -11.1758    2.9826 H         1 <0>         0.1231
     44 H21         0.3614   -8.9217    1.9979 H         1 <0>         0.1237
@<TRIPOS>BOND
     1    1    2 1
     2    1   24 1
     3    1   25 1
     4    1   26 1
     5    2    7 ar
     6    2    3 ar
     7    3    4 ar
     8    3   27 1
     9    4    5 ar
    10    4   28 1
    11    5    6 ar
    12    5    8 1
    13    6    7 ar
    14    6   29 1
    15    7   30 1
    16    8    9 2
    17    8   10 2
    18    8   11 1
    19   11   17 1
    20   11   12 1
    21   12   13 1
    22   12   31 1
    23   12   32 1
    24   13   14 1
    25   13   33 1
    26   13   34 1
    27   14   15 1
    28   14   35 1
    29   14   36 1
    30   15   16 2
    31   15   18 1
    32   16   17 1
    33   16   37 1
    34   17   38 1
    35   17   39 1
    36   18   23 ar
    37   18   19 ar
    38   19   20 ar
    39   19   40 1
    40   20   21 ar
    41   20   41 1
    42   21   22 ar
    43   21   42 1
    44   22   23 ar
    45   22   43 1
    46   23   44 1
@<TRIPOS>MOLECULE
CHEMBL516636
   66    69     0     0     0
SMALL
USER_CHARGES

@<TRIPOS>ATOM
      1 C1         -0.2465    1.4317    0.3538 C.3       1 <0>        -0.1850
      2 C2         -0.0050   -0.0730    0.2178 C.3       1 <0>         0.1576
      3 H1         -0.9118   -0.6150    0.4863 H         1 <0>         0.0862
      4 C3          0.3834   -0.4034   -1.2273 C.3       1 <0>         0.0499
      5 N1          0.7633   -1.8196   -1.3172 N.3       1 <0>        -0.5281
      6 C4          1.9502   -2.1058   -0.5002 C.3       1 <0>         0.0461
      7 C5          1.6260   -1.8451    0.9746 C.3       1 <0>         0.1205
      8 N2          1.0948   -0.4791    1.1059 N.pl3     1 <0>        -0.9930
      9 S1          1.7218    0.5746    2.2189 S.o2      1 <0>         2.6877
     10 O1          2.9799    0.0459    2.6149 O.2       1 <0>        -0.9548
     11 O2          1.5819    1.8773    1.6687 O.2       1 <0>        -0.9470
     12 C6          0.6803    0.5132    3.6389 C.ar      1 <0>        -0.6645
     13 C7         -0.4035    1.3655    3.7385 C.ar      1 <0>        -0.0203
     14 C8         -1.2205    1.3173    4.8525 C.ar      1 <0>        -0.1147
     15 C9         -0.9541    0.4165    5.8666 C.ar      1 <0>        -0.0795
     16 C10         0.1292   -0.4364    5.7666 C.ar      1 <0>        -0.1120
     17 C11         0.9437   -0.3911    4.6507 C.ar      1 <0>        -0.0164
     18 C12        -1.8443    0.3647    7.0815 C.3       1 <0>         0.1393
     19 C13        -1.0250   -0.0777    8.2956 C.3       1 <0>        -0.1508
     20 C14        -2.9785   -0.6335    6.8405 C.3       1 <0>         0.4275
     21 F1         -2.4401   -1.9026    6.6024 F         1 <0>        -0.1730
     22 F2         -3.8049   -0.6816    7.9683 F         1 <0>        -0.1692
     23 F3         -3.7276   -0.2290    5.7304 F         1 <0>        -0.1792
     24 O3         -2.3942    1.6610    7.3247 O.3       1 <0>        -0.5172
     25 C15         0.9771   -2.2196   -2.7144 C.3       1 <0>         0.0970
     26 C16         0.9752   -3.7464   -2.8137 C.3       1 <0>        -0.0930
     27 C17         2.2911   -4.4317   -3.1875 C.3       1 <0>        -0.1724
     28 C18         1.1483   -4.3642   -4.2027 C.3       1 <0>        -0.1585
     29 C19         0.0699   -4.4598   -1.8428 C.ar      1 <0>         0.0150
     30 C20        -1.3018   -4.3081   -1.9413 C.ar      1 <0>        -0.1048
     31 C21        -2.1361   -4.9584   -1.0557 C.ar      1 <0>        -0.0547
     32 C22        -1.5936   -5.7707   -0.0588 C.ar      1 <0>        -0.1457
     33 C23        -0.2089   -5.9194    0.0350 C.ar      1 <0>        -0.0837
     34 C24         0.6139   -5.2680   -0.8604 C.ar      1 <0>        -0.1248
     35 C25        -2.4817   -6.4702    0.8940 C.2       1 <0>         0.5624
     36 O4         -3.6871   -6.3385    0.8102 O.2       1 <0>        -0.5410
     37 N3         -1.9547   -7.2539    1.8556 N.am      1 <0>        -0.8527
     38 H2          0.5888    1.9751   -0.0879 H         1 <0>         0.0920
     39 H3         -1.1682    1.6999   -0.1626 H         1 <0>         0.0736
     40 H4         -0.3321    1.6921    1.4088 H         1 <0>         0.0687
     41 H5         -0.4647   -0.2119   -1.8847 H         1 <0>         0.0897
     42 H6          1.2258    0.2190   -1.5289 H         1 <0>         0.0435
     43 H7          2.2385   -3.1489   -0.6304 H         1 <0>         0.0922
     44 H8          2.7708   -1.4596   -0.8120 H         1 <0>         0.0402
     45 H9          0.8780   -2.5601    1.3171 H         1 <0>         0.0787
     46 H10         2.5323   -1.9447    1.5719 H         1 <0>         0.0989
     47 H11        -0.6116    2.0692    2.9462 H         1 <0>         0.1503
     48 H12        -2.0668    1.9837    4.9306 H         1 <0>         0.1359
     49 H13         0.3375   -1.1399    6.5591 H         1 <0>         0.1431
     50 H14         1.7879   -1.0601    4.5708 H         1 <0>         0.1464
     51 H15        -0.2169    0.6335    8.4673 H         1 <0>         0.0939
     52 H16        -1.6688   -0.1151    9.1743 H         1 <0>         0.0871
     53 H17        -0.6055   -1.0664    8.1101 H         1 <0>         0.0906
     54 H18        -2.9271    2.0054    6.5950 H         1 <0>         0.3879
     55 H19         0.1778   -1.8142   -3.3347 H         1 <0>         0.0826
     56 H20         1.9363   -1.8342   -3.0600 H         1 <0>         0.0449
     57 H21         3.1581   -3.7948   -3.3627 H         1 <0>         0.0977
     58 H22         2.5023   -5.3987   -2.7311 H         1 <0>         0.0987
     59 H23         0.6078   -5.2868   -4.4141 H         1 <0>         0.0990
     60 H24         1.2636   -3.6829   -5.0457 H         1 <0>         0.0994
     61 H25        -1.7203   -3.6790   -2.7130 H         1 <0>         0.1254
     62 H26        -3.2067   -4.8388   -1.1334 H         1 <0>         0.1329
     63 H27         0.2171   -6.5465    0.8042 H         1 <0>         0.1228
     64 H28         1.6853   -5.3857   -0.7917 H         1 <0>         0.1250
     65 H29        -0.9927   -7.3590    1.9225 H         1 <0>         0.4003
     66 H30        -2.5374   -7.7128    2.4807 H         1 <0>         0.4051
@<TRIPOS>BOND
     1    1    2 1
     2    1   38 1
     3    1   39 1
     4    1   40 1
     5    2    3 1
     6    2    8 1
     7    2    4 1
     8    4    5 1
     9    4   41 1
    10    4   42 1
    11    5    6 1
    12    5   25 1
    13    6    7 1
    14    6   43 1
    15    6   44 1
    16    7    8 1
    17    7   45 1
    18    7   46 1
    19    8    9 1
    20    9   10 2
    21    9   11 2
    22    9   12 1
    23   12   17 ar
    24   12   13 ar
    25   13   14 ar
    26   13   47 1
    27   14   15 ar
    28   14   48 1
    29   15   16 ar
    30   15   18 1
    31   16   17 ar
    32   16   49 1
    33   17   50 1
    34   18   19 1
    35   18   20 1
    36   18   24 1
    37   19   51 1
    38   19   52 1
    39   19   53 1
    40   20   21 1
    41   20   22 1
    42   20   23 1
    43   24   54 1
    44   25   26 1
    45   25   55 1
    46   25   56 1
    47   26   28 1
    48   26   27 1
    49   26   29 1
    50   27   28 1
    51   27   57 1
    52   27   58 1
    53   28   59 1
    54   28   60 1
    55   29   34 ar
    56   29   30 ar
    57   30   31 ar
    58   30   61 1
    59   31   32 ar
    60   31   62 1
    61   32   33 ar
    62   32   35 1
    63   33   34 ar
    64   33   63 1
    65   34   64 1
    66   35   36 2
    67   35   37 am
    68   37   65 1
    69   37   66 1
@<TRIPOS>MOLECULE
CHEMBL516636__1
   66    69     0     0     0
SMALL
USER_CHARGES

@<TRIPOS>ATOM
      1 C1         -1.1144    1.5614   -0.3934 C.3       1 <0>        -0.1856
      2 C2         -0.4105    0.2037   -0.3485 C.3       1 <0>         0.1577
      3 H1         -1.0239   -0.5087    0.2032 H         1 <0>         0.0867
      4 C3         -0.1861   -0.3072   -1.7757 C.3       1 <0>         0.0495
      5 N1          0.6244   -1.5316   -1.7323 N.3       1 <0>        -0.5341
      6 C4          1.9594   -1.2676   -1.1790 C.3       1 <0>         0.0341
      7 C5          1.8229   -0.7961    0.2727 C.3       1 <0>         0.1190
      8 N2          0.8960    0.3461    0.3118 N.pl3     1 <0>        -0.9938
      9 S1          1.3143    1.7559    1.0732 S.o2      1 <0>         2.6877
     10 O1          2.7245    1.7217    1.2451 O.2       1 <0>        -0.9539
     11 O2          0.6572    2.8049    0.3753 O.2       1 <0>        -0.9466
     12 C6          0.6089    1.7056    2.6871 C.ar      1 <0>        -0.6646
     13 C7         -0.6637    2.2013    2.9009 C.ar      1 <0>        -0.0207
     14 C8         -1.2171    2.1619    4.1670 C.ar      1 <0>        -0.1149
     15 C9         -0.4982    1.6262    5.2192 C.ar      1 <0>        -0.0795
     16 C10         0.7740    1.1296    5.0052 C.ar      1 <0>        -0.1119
     17 C11         1.3258    1.1652    3.7382 C.ar      1 <0>        -0.0162
     18 C12        -1.1011    1.5841    6.5997 C.3       1 <0>         0.1393
     19 C13        -0.5443    0.3806    7.3629 C.3       1 <0>        -0.1504
     20 C14        -0.7494    2.8706    7.3493 C.3       1 <0>         0.4269
     21 F1         -1.2586    3.9710    6.6514 F         1 <0>        -0.1794
     22 F2         -1.3091    2.8315    8.6308 F         1 <0>        -0.1690
     23 F3          0.6411    2.9857    7.4511 F         1 <0>        -0.1726
     24 O3         -2.5215    1.4665    6.4957 O.3       1 <0>        -0.5173
     25 C15         0.7183   -2.1482   -3.0623 C.3       1 <0>         0.0959
     26 C16         1.1660   -3.6042   -2.9189 C.3       1 <0>        -0.1019
     27 C17         1.4568   -4.1182   -1.5075 C.3       1 <0>        -0.1558
     28 C18         0.1974   -4.5780   -2.2447 C.3       1 <0>        -0.1567
     29 C19         2.0175   -4.1361   -4.0428 C.ar      1 <0>        -0.0153
     30 C20         1.6286   -5.2779   -4.7207 C.ar      1 <0>        -0.1215
     31 C21         2.4035   -5.7700   -5.7505 C.ar      1 <0>        -0.0542
     32 C22         3.5822   -5.1134   -6.1080 C.ar      1 <0>        -0.1435
     33 C23         3.9687   -3.9621   -5.4201 C.ar      1 <0>        -0.0824
     34 C24         3.1818   -3.4773   -4.3960 C.ar      1 <0>        -0.1205
     35 C25         4.4178   -5.6355   -7.2103 C.2       1 <0>         0.5626
     36 O4          4.0789   -6.6385   -7.8074 O.2       1 <0>        -0.5389
     37 N3          5.5554   -4.9992   -7.5532 N.am      1 <0>        -0.8513
     38 H2         -0.6038    2.2121   -1.1033 H         1 <0>         0.0916
     39 H3         -2.1495    1.4238   -0.7061 H         1 <0>         0.0738
     40 H4         -1.0914    2.0155    0.5972 H         1 <0>         0.0698
     41 H5         -1.1482   -0.5242   -2.2398 H         1 <0>         0.0905
     42 H6          0.3352    0.4536   -2.3566 H         1 <0>         0.0448
     43 H7          2.5533   -2.1811   -1.2104 H         1 <0>         0.1009
     44 H8          2.4508   -0.4934   -1.7682 H         1 <0>         0.0422
     45 H9          1.4271   -1.6062    0.8851 H         1 <0>         0.0796
     46 H10         2.7980   -0.4898    0.6514 H         1 <0>         0.1010
     47 H11        -1.2253    2.6198    2.0788 H         1 <0>         0.1504
     48 H12        -2.2110    2.5498    4.3342 H         1 <0>         0.1359
     49 H13         1.3358    0.7114    5.8273 H         1 <0>         0.1435
     50 H14         2.3183    0.7738    3.5703 H         1 <0>         0.1470
     51 H15         0.5391    0.4703    7.4422 H         1 <0>         0.0908
     52 H16        -0.9804    0.3501    8.3614 H         1 <0>         0.0870
     53 H17        -0.7949   -0.5360    6.8288 H         1 <0>         0.0936
     54 H18        -2.9430    2.1968    6.0224 H         1 <0>         0.3878
     55 H19        -0.2567   -2.1141   -3.5483 H         1 <0>         0.0830
     56 H20         1.4442   -1.6027   -3.6653 H         1 <0>         0.0462
     57 H21         2.2643   -4.8412   -1.3916 H         1 <0>         0.0892
     58 H22         1.3292   -3.4191   -0.6811 H         1 <0>         0.1184
     59 H23        -0.7587   -4.1813   -1.9033 H         1 <0>         0.1016
     60 H24         0.1763   -5.6034   -2.6138 H         1 <0>         0.0933
     61 H25         0.7165   -5.7851   -4.4428 H         1 <0>         0.1328
     62 H26         2.0991   -6.6615   -6.2786 H         1 <0>         0.1375
     63 H27         4.8796   -3.4494   -5.6919 H         1 <0>         0.1266
     64 H28         3.4775   -2.5840   -3.8658 H         1 <0>         0.1269
     65 H29         5.8258   -4.1987   -7.0767 H         1 <0>         0.4009
     66 H30         6.1036   -5.3417   -8.2764 H         1 <0>         0.4064
@<TRIPOS>BOND
     1    1    2 1
     2    1   38 1
     3    1   39 1
     4    1   40 1
     5    2    3 1
     6    2    8 1
     7    2    4 1
     8    4    5 1
     9    4   41 1
    10    4   42 1
    11    5    6 1
    12    5   25 1
    13    6    7 1
    14    6   43 1
    15    6   44 1
    16    7    8 1
    17    7   45 1
    18    7   46 1
    19    8    9 1
    20    9   10 2
    21    9   11 2
    22    9   12 1
    23   12   17 ar
    24   12   13 ar
    25   13   14 ar
    26   13   47 1
    27   14   15 ar
    28   14   48 1
    29   15   16 ar
    30   15   18 1
    31   16   17 ar
    32   16   49 1
    33   17   50 1
    34   18   19 1
    35   18   20 1
    36   18   24 1
    37   19   51 1
    38   19   52 1
    39   19   53 1
    40   20   21 1
    41   20   22 1
    42   20   23 1
    43   24   54 1
    44   25   26 1
    45   25   55 1
    46   25   56 1
    47   26   28 1
    48   26   27 1
    49   26   29 1
    50   27   28 1
    51   27   57 1
    52   27   58 1
    53   28   59 1
    54   28   60 1
    55   29   34 ar
    56   29   30 ar
    57   30   31 ar
    58   30   61 1
    59   31   32 ar
    60   31   62 1
    61   32   33 ar
    62   32   35 1
    63   33   34 ar
    64   33   63 1
    65   34   64 1
    66   35   36 2
    67   35   37 am
    68   37   65 1
    69   37   66 1
@<TRIPOS>MOLECULE
CHEMBL372768
   59    64     0     0     0
SMALL
USER_CHARGES

@<TRIPOS>ATOM
      1 C1         -0.0170    1.3893   -0.0074 C.ar      1 <0>        -0.0636
      2 C2          1.1696    2.0932   -0.0282 C.ar      1 <0>        -0.1137
      3 C3          2.3774    1.4174   -0.0649 C.ar      1 <0>        -0.0107
      4 C4          2.4011    0.0333   -0.0808 C.ar      1 <0>        -0.1158
      5 C5          1.2198   -0.6795   -0.0598 C.ar      1 <0>        -0.0519
      6 C6          0.0017   -0.0040   -0.0228 C.ar      1 <0>        -0.0349
      7 C7         -1.2716   -0.7658   -0.0001 C.2       1 <0>         0.2956
      8 N1         -1.3842   -2.1062   -0.0064 N.2       1 <0>        -0.5330
      9 C8         -2.6407   -2.4483    0.0188 C.2       1 <0>         0.3085
     10 O1         -3.3838   -1.3344    0.0423 O.3       1 <0>        -0.0940
     11 N2         -2.4734   -0.2449    0.0352 N.2       1 <0>        -0.3327
     12 C9         -3.1692   -3.8596    0.0206 C.3       1 <0>         0.0302
     13 C10        -2.7002   -4.5815   -1.2442 C.3       1 <0>        -0.1004
     14 C11        -3.2367   -6.0143   -1.2423 C.3       1 <0>        -0.1111
     15 C12        -4.0635   -6.2477    0.0238 C.3       1 <0>         0.0334
     16 C13        -5.2352   -5.2643    0.0562 C.3       1 <0>        -0.0918
     17 C14        -4.6986   -3.8314    0.0543 C.3       1 <0>        -0.1157
     18 C15        -3.1821   -6.0315    1.2555 C.3       1 <0>        -0.1115
     19 C16        -2.6455   -4.5987    1.2536 C.3       1 <0>        -0.1006
     20 C17        -4.5920   -7.6589    0.0256 C.2       1 <0>         0.1680
     21 N3         -5.8424   -8.0133    0.1204 N.2       1 <0>        -0.2799
     22 N4         -5.9340   -9.2927    0.0410 N.2       1 <0>        -0.2973
     23 C18        -4.7438   -9.8020   -0.1279 C.2       1 <0>         0.1945
     24 N5         -3.8488   -8.7993   -0.0776 N.pl3     1 <0>        -0.4604
     25 C19        -2.3834   -8.7920   -0.0366 C.3       1 <0>         0.0965
     26 C20        -1.8042  -10.2070   -0.0436 C.3       1 <0>        -0.1428
     27 C21        -1.8056  -10.7914   -1.4472 C.3       1 <0>        -0.1255
     28 C22        -3.0363  -10.4134   -2.2475 C.3       1 <0>        -0.1372
     29 C23        -4.1371  -11.4150   -1.8830 C.3       1 <0>        -0.1170
     30 C24        -4.4448  -11.2617   -0.3756 C.3       1 <0>        -0.0479
     31 Cl1         3.8670    2.3087   -0.0916 Cl        1 <0>        -0.0565
     32 H1         -0.9586    1.9172    0.0253 H         1 <0>         0.1424
     33 H2          1.1561    3.1731   -0.0163 H         1 <0>         0.1447
     34 H3          3.3458   -0.4895   -0.1102 H         1 <0>         0.1448
     35 H4          1.2393   -1.7593   -0.0726 H         1 <0>         0.1488
     36 H5         -3.0733   -4.0550   -2.1226 H         1 <0>         0.0758
     37 H6         -1.6106   -4.6016   -1.2682 H         1 <0>         0.0856
     38 H7         -3.8647   -6.1683   -2.1198 H         1 <0>         0.0774
     39 H8         -2.4020   -6.7149   -1.2654 H         1 <0>         0.0733
     40 H9         -5.8631   -5.4182   -0.8214 H         1 <0>         0.0803
     41 H10        -5.8242   -5.4305    0.9581 H         1 <0>         0.0828
     42 H11        -5.0328   -3.3171    0.9554 H         1 <0>         0.0803
     43 H12        -5.0717   -3.3049   -0.8241 H         1 <0>         0.0800
     44 H13        -3.7711   -6.1978    2.1575 H         1 <0>         0.0787
     45 H14        -2.3474   -6.7321    1.2324 H         1 <0>         0.0732
     46 H15        -1.5559   -4.6188    1.2297 H         1 <0>         0.0855
     47 H16        -2.9797   -4.0844    2.1547 H         1 <0>         0.0760
     48 H17        -2.0071   -8.2506   -0.9046 H         1 <0>         0.0965
     49 H18        -2.0566   -8.2795    0.8682 H         1 <0>         0.0959
     50 H19        -0.7808  -10.1764    0.3302 H         1 <0>         0.0915
     51 H20        -2.4035  -10.8420    0.6089 H         1 <0>         0.0839
     52 H21        -0.9210  -10.4360   -1.9757 H         1 <0>         0.0646
     53 H22        -1.7547  -11.8778   -1.3746 H         1 <0>         0.0728
     54 H23        -3.3525   -9.4031   -1.9876 H         1 <0>         0.0688
     55 H24        -2.8186  -10.4726   -3.3139 H         1 <0>         0.0710
     56 H25        -5.0332  -11.2058   -2.4672 H         1 <0>         0.0702
     57 H26        -3.7934  -12.4294   -2.0855 H         1 <0>         0.0793
     58 H27        -3.5853  -11.5701    0.2196 H         1 <0>         0.0957
     59 H28        -5.3131  -11.8671   -0.1154 H         1 <0>         0.0993
@<TRIPOS>BOND
     1    1    6 ar
     2    1    2 ar
     3    1   32 1
     4    2    3 ar
     5    2   33 1
     6    3    4 ar
     7    3   31 1
     8    4    5 ar
     9    4   34 1
    10    5    6 ar
    11    5   35 1
    12    6    7 1
    13    7   11 2
    14    7    8 1
    15    8    9 2
    16    9   10 1
    17    9   12 1
    18   10   11 1
    19   12   17 1
    20   12   19 1
    21   12   13 1
    22   13   14 1
    23   13   36 1
    24   13   37 1
    25   14   15 1
    26   14   38 1
    27   14   39 1
    28   15   16 1
    29   15   18 1
    30   15   20 1
    31   16   17 1
    32   16   40 1
    33   16   41 1
    34   17   42 1
    35   17   43 1
    36   18   19 1
    37   18   44 1
    38   18   45 1
    39   19   46 1
    40   19   47 1
    41   20   24 1
    42   20   21 2
    43   21   22 1
    44   22   23 2
    45   23   30 1
    46   23   24 1
    47   24   25 1
    48   25   26 1
    49   25   48 1
    50   25   49 1
    51   26   27 1
    52   26   50 1
    53   26   51 1
    54   27   28 1
    55   27   52 1
    56   27   53 1
    57   28   29 1
    58   28   54 1
    59   28   55 1
    60   29   30 1
    61   29   56 1
    62   29   57 1
    63   30   58 1
    64   30   59 1
@<TRIPOS>MOLECULE
CHEMBL489511
   58    61     0     0     0
SMALL
USER_CHARGES

@<TRIPOS>ATOM
      1 C1         -2.7042    2.0584    0.0717 C.3       1 <0>        -0.1873
      2 C2         -2.1087    0.6844   -0.2421 C.3       1 <0>         0.1582
      3 H1         -2.7675   -0.0959    0.1390 H         1 <0>         0.0853
      4 C3         -1.9477    0.5272   -1.7579 C.3       1 <0>         0.0490
      5 N1         -1.2354   -0.7253   -2.0441 N.3       1 <0>        -0.5365
      6 C4          0.1247   -0.7036   -1.4896 C.3       1 <0>         0.0390
      7 C5          0.0486   -0.5968    0.0372 C.3       1 <0>         0.1204
      8 N2         -0.7848    0.5643    0.3873 N.pl3     1 <0>        -0.9959
      9 S1         -0.2449    1.7081    1.4562 S.o2      1 <0>         2.6887
     10 O1          1.1612    1.5329    1.5626 O.2       1 <0>        -0.9583
     11 O2         -0.8313    2.9410    1.0622 O.2       1 <0>        -0.9510
     12 C6         -0.9229    1.3091    3.0328 C.ar      1 <0>        -0.6774
     13 C7         -2.1492    1.8248    3.4084 C.ar      1 <0>        -0.0253
     14 C8         -2.6811    1.5118    4.6453 C.ar      1 <0>        -0.1326
     15 C9         -1.9869    0.6826    5.5064 C.ar      1 <0>         0.0171
     16 C10        -0.7611    0.1661    5.1304 C.ar      1 <0>        -0.1183
     17 C11        -0.2311    0.4757    3.8918 C.ar      1 <0>        -0.0194
     18 C12        -2.5664    0.3421    6.8553 C.3       1 <0>        -0.1072
     19 C13        -2.5460   -1.1269    7.2825 C.3       1 <0>        -0.1571
     20 C14        -3.8661   -0.4647    6.8826 C.3       1 <0>        -0.1553
     21 C15        -2.3672    1.3978    7.9446 C.3       1 <0>         0.1181
     22 O3         -0.9701    1.5742    8.1873 O.3       1 <0>        -0.5668
     23 C16        -1.2113   -0.9992   -3.4872 C.3       1 <0>         0.0624
     24 C17        -0.6891   -2.4170   -3.7285 C.3       1 <0>        -0.0804
     25 C18        -0.6643   -2.6980   -5.2088 C.ar      1 <0>        -0.0383
     26 C19        -1.7675   -3.2453   -5.8459 C.ar      1 <0>        -0.1693
     27 C20        -1.7080   -3.4893   -7.2049 C.ar      1 <0>         0.1005
     28 N3         -0.6192   -3.2082   -7.8937 N.ar      1 <0>        -0.4888
     29 C21         0.4483   -2.6871   -7.3211 C.ar      1 <0>         0.1008
     30 C22         0.4602   -2.4100   -5.9672 C.ar      1 <0>        -0.1714
     31 H2         -2.1099    2.8317   -0.4150 H         1 <0>         0.0960
     32 H3         -3.7293    2.1027   -0.2960 H         1 <0>         0.0729
     33 H4         -2.6976    2.2196    1.1497 H         1 <0>         0.0690
     34 H5         -2.9310    0.5019   -2.2274 H         1 <0>         0.0896
     35 H6         -1.3774    1.3682   -2.1523 H         1 <0>         0.0442
     36 H7          0.6443   -1.6215   -1.7645 H         1 <0>         0.0929
     37 H8          0.6661    0.1546   -1.8877 H         1 <0>         0.0428
     38 H9         -0.4001   -1.5023    0.4457 H         1 <0>         0.0793
     39 H10         1.0506   -0.4650    0.4454 H         1 <0>         0.1006
     40 H11        -2.6915    2.4727    2.7357 H         1 <0>         0.1433
     41 H12        -3.6388    1.9153    4.9391 H         1 <0>         0.1319
     42 H13        -0.2186   -0.4815    5.8033 H         1 <0>         0.1334
     43 H14         0.7249    0.0692    3.5965 H         1 <0>         0.1391
     44 H15        -2.1136   -1.8471    6.5879 H         1 <0>         0.0996
     45 H16        -2.3906   -1.3415    8.3398 H         1 <0>         0.1023
     46 H17        -4.5791   -0.2436    7.6768 H         1 <0>         0.1030
     47 H18        -4.3020   -0.7492    5.9249 H         1 <0>         0.1027
     48 H19        -2.8014    2.3429    7.6184 H         1 <0>         0.0525
     49 H20        -2.8568    1.0704    8.8618 H         1 <0>         0.0541
     50 H21        -0.7689    2.2308    8.8681 H         1 <0>         0.3826
     51 H22        -2.2198   -0.9099   -3.8909 H         1 <0>         0.0798
     52 H23        -0.5569   -0.2818   -3.9823 H         1 <0>         0.0387
     53 H24         0.3195   -2.5063   -3.3248 H         1 <0>         0.0787
     54 H25        -1.3435   -3.1344   -3.2334 H         1 <0>         0.0880
     55 H26        -2.6618   -3.4784   -5.2871 H         1 <0>         0.1355
     56 H27        -2.5630   -3.9155   -7.7086 H         1 <0>         0.1559
     57 H28         1.3221   -2.4706   -7.9179 H         1 <0>         0.1556
     58 H29         1.3357   -1.9787   -5.5049 H         1 <0>         0.1332
@<TRIPOS>BOND
     1    1    2 1
     2    1   31 1
     3    1   32 1
     4    1   33 1
     5    2    3 1
     6    2    8 1
     7    2    4 1
     8    4    5 1
     9    4   34 1
    10    4   35 1
    11    5    6 1
    12    5   23 1
    13    6    7 1
    14    6   36 1
    15    6   37 1
    16    7    8 1
    17    7   38 1
    18    7   39 1
    19    8    9 1
    20    9   10 2
    21    9   11 2
    22    9   12 1
    23   12   17 ar
    24   12   13 ar
    25   13   14 ar
    26   13   40 1
    27   14   15 ar
    28   14   41 1
    29   15   16 ar
    30   15   18 1
    31   16   17 ar
    32   16   42 1
    33   17   43 1
    34   18   20 1
    35   18   19 1
    36   18   21 1
    37   19   20 1
    38   19   44 1
    39   19   45 1
    40   20   46 1
    41   20   47 1
    42   21   22 1
    43   21   48 1
    44   21   49 1
    45   22   50 1
    46   23   24 1
    47   23   51 1
    48   23   52 1
    49   24   25 1
    50   24   53 1
    51   24   54 1
    52   25   30 ar
    53   25   26 ar
    54   26   27 ar
    55   26   55 1
    56   27   28 ar
    57   27   56 1
    58   28   29 ar
    59   29   30 ar
    60   29   57 1
    61   30   58 1
@<TRIPOS>MOLECULE
CHEMBL489511__1
   59    62     0     0     0
SMALL
USER_CHARGES

@<TRIPOS>ATOM
      1 C1         -2.7042    2.0584    0.0717 C.3       1 <0>        -0.1897
      2 C2         -2.1087    0.6844   -0.2421 C.3       1 <0>         0.1585
      3 H1         -2.7675   -0.0959    0.1390 H         1 <0>         0.0867
      4 C3         -1.9477    0.5272   -1.7579 C.3       1 <0>         0.0496
      5 N1         -1.2354   -0.7253   -2.0441 N.3       1 <0>        -0.5353
      6 C4          0.1247   -0.7036   -1.4896 C.3       1 <0>         0.0380
      7 C5          0.0486   -0.5968    0.0372 C.3       1 <0>         0.1191
      8 N2         -0.7848    0.5643    0.3873 N.pl3     1 <0>        -0.9982
      9 S1         -0.2449    1.7081    1.4562 S.o2      1 <0>         2.6891
     10 O1          1.1612    1.5329    1.5626 O.2       1 <0>        -0.9567
     11 O2         -0.8313    2.9410    1.0622 O.2       1 <0>        -0.9493
     12 C6         -0.9229    1.3091    3.0328 C.ar      1 <0>        -0.6796
     13 C7         -2.1492    1.8248    3.4084 C.ar      1 <0>        -0.0257
     14 C8         -2.6811    1.5118    4.6453 C.ar      1 <0>        -0.1316
     15 C9         -1.9869    0.6826    5.5064 C.ar      1 <0>         0.0212
     16 C10        -0.7611    0.1661    5.1304 C.ar      1 <0>        -0.1175
     17 C11        -0.2311    0.4757    3.8918 C.ar      1 <0>        -0.0199
     18 C12        -2.5664    0.3421    6.8553 C.3       1 <0>        -0.1089
     19 C13        -2.5460   -1.1269    7.2825 C.3       1 <0>        -0.1566
     20 C14        -3.8661   -0.4647    6.8826 C.3       1 <0>        -0.1548
     21 C15        -2.3672    1.3978    7.9446 C.3       1 <0>         0.1174
     22 O3         -0.9701    1.5742    8.1873 O.3       1 <0>        -0.5677
     23 C16        -1.2113   -0.9992   -3.4872 C.3       1 <0>         0.0604
     24 C17        -0.6891   -2.4170   -3.7285 C.3       1 <0>        -0.1069
     25 C18        -0.6643   -2.6980   -5.2088 C.ar      1 <0>         0.0497
     26 C19        -1.7675   -3.2453   -5.8459 C.ar      1 <0>        -0.1262
     27 C20        -1.7080   -3.4893   -7.2049 C.ar      1 <0>         0.1353
     28 N3         -0.6192   -3.2082   -7.8937 N.ar      1 <0>        -0.4489
     29 C21         0.4483   -2.6871   -7.3211 C.ar      1 <0>         0.1358
     30 C22         0.4602   -2.4100   -5.9672 C.ar      1 <0>        -0.1287
     31 H2         -2.1099    2.8317   -0.4150 H         1 <0>         0.0967
     32 H3         -3.7293    2.1027   -0.2960 H         1 <0>         0.0740
     33 H4         -2.6976    2.2196    1.1497 H         1 <0>         0.0724
     34 H5         -2.9310    0.5019   -2.2274 H         1 <0>         0.0915
     35 H6         -1.3774    1.3682   -2.1523 H         1 <0>         0.0478
     36 H7          0.6443   -1.6215   -1.7645 H         1 <0>         0.0910
     37 H8          0.6661    0.1546   -1.8877 H         1 <0>         0.0464
     38 H9         -0.4001   -1.5023    0.4457 H         1 <0>         0.0806
     39 H10         1.0506   -0.4650    0.4454 H         1 <0>         0.1036
     40 H11        -2.6915    2.4727    2.7357 H         1 <0>         0.1429
     41 H12        -3.6388    1.9153    4.9391 H         1 <0>         0.1331
     42 H13        -0.2186   -0.4815    5.8033 H         1 <0>         0.1345
     43 H14         0.7249    0.0692    3.5965 H         1 <0>         0.1387
     44 H15        -2.1136   -1.8471    6.5879 H         1 <0>         0.0990
     45 H16        -2.3906   -1.3415    8.3398 H         1 <0>         0.1034
     46 H17        -4.5791   -0.2436    7.6768 H         1 <0>         0.1041
     47 H18        -4.3020   -0.7492    5.9249 H         1 <0>         0.1020
     48 H19        -2.8014    2.3429    7.6184 H         1 <0>         0.0528
     49 H20        -2.8568    1.0704    8.8618 H         1 <0>         0.0555
     50 H21        -0.7689    2.2308    8.8681 H         1 <0>         0.3841
     51 H22        -2.2198   -0.9099   -3.8909 H         1 <0>         0.0850
     52 H23        -0.5569   -0.2818   -3.9823 H         1 <0>         0.0437
     53 H24         0.3195   -2.5063   -3.3248 H         1 <0>         0.1023
     54 H25        -1.3435   -3.1344   -3.2334 H         1 <0>         0.1121
     55 H26        -2.6618   -3.4784   -5.2871 H         1 <0>         0.1864
     56 H27        -2.5630   -3.9155   -7.7086 H         1 <0>         0.2107
     57 H28         1.3221   -2.4706   -7.9179 H         1 <0>         0.2104
     58 H29         1.3357   -1.9787   -5.5049 H         1 <0>         0.1842
     59 H30        -0.6030   -3.3897   -8.8464 H         1 <0>         0.4527
@<TRIPOS>BOND
     1    1    2 1
     2    1   31 1
     3    1   32 1
     4    1   33 1
     5    2    3 1
     6    2    8 1
     7    2    4 1
     8    4    5 1
     9    4   34 1
    10    4   35 1
    11    5    6 1
    12    5   23 1
    13    6    7 1
    14    6   36 1
    15    6   37 1
    16    7    8 1
    17    7   38 1
    18    7   39 1
    19    8    9 1
    20    9   10 2
    21    9   11 2
    22    9   12 1
    23   12   17 ar
    24   12   13 ar
    25   13   14 ar
    26   13   40 1
    27   14   15 ar
    28   14   41 1
    29   15   16 ar
    30   15   18 1
    31   16   17 ar
    32   16   42 1
    33   17   43 1
    34   18   20 1
    35   18   19 1
    36   18   21 1
    37   19   20 1
    38   19   44 1
    39   19   45 1
    40   20   46 1
    41   20   47 1
    42   21   22 1
    43   21   48 1
    44   21   49 1
    45   22   50 1
    46   23   24 1
    47   23   51 1
    48   23   52 1
    49   24   25 1
    50   24   53 1
    51   24   54 1
    52   25   30 ar
    53   25   26 ar
    54   26   27 ar
    55   26   55 1
    56   27   28 ar
    57   27   56 1
    58   28   29 ar
    59   28   59 1
    60   29   30 ar
    61   29   57 1
    62   30   58 1
@<TRIPOS>MOLECULE
CHEMBL220436
   50    52     0     0     0
SMALL
USER_CHARGES

@<TRIPOS>ATOM
      1 C1         -0.8788    1.3723    0.7678 C.ar      1 <0>        -0.0833
      2 C2          0.2564    2.1384    0.5800 C.ar      1 <0>        -0.1115
      3 C3          1.4683    1.5261    0.3204 C.ar      1 <0>        -0.0969
      4 C4          1.5450    0.1478    0.2491 C.ar      1 <0>        -0.1604
      5 C5          0.4100   -0.6184    0.4379 C.ar      1 <0>        -0.0936
      6 C6         -0.8022   -0.0060    0.6961 C.ar      1 <0>        -0.1096
      7 C7          2.8660   -0.5197   -0.0348 C.3       1 <0>         0.0403
      8 N1          3.5592   -0.7921    1.2313 N.4       1 <0>        -0.3856
      9 C8          3.8576    0.4766    1.8976 C.3       1 <0>        -0.0294
     10 C9          3.2725    0.4511    3.3232 C.3       1 <0>        -0.1599
     11 C10         4.1836   -0.3690    4.2225 C.3       1 <0>         0.0995
     12 N2          4.0401   -1.7913    3.8845 N.am      1 <0>        -0.6297
     13 C11         5.1487   -2.4816    3.2477 C.3       1 <0>         0.0776
     14 C12         5.7186   -1.5468    2.1686 C.3       1 <0>        -0.1716
     15 C13         4.7966   -1.5541    0.9527 C.3       1 <0>        -0.0083
     16 C14         2.8955   -2.4469    4.1608 C.2       1 <0>         0.5609
     17 O1          1.9978   -1.8797    4.7533 O.2       1 <0>        -0.5013
     18 C15         2.7317   -3.8526    3.7446 C.ar      1 <0>        -0.1988
     19 C16         3.7630   -4.7715    3.9599 C.ar      1 <0>        -0.0225
     20 C17         3.6073   -6.0833    3.5702 C.ar      1 <0>        -0.1191
     21 C18         2.4239   -6.4946    2.9621 C.ar      1 <0>         0.2764
     22 C19         1.3950   -5.5814    2.7459 C.ar      1 <0>        -0.1193
     23 C20         1.5427   -4.2697    3.1392 C.ar      1 <0>        -0.0039
     24 Cl1        -0.0781   -6.0984    1.9865 Cl        1 <0>        -0.0389
     25 N3          2.2694   -7.8209    2.5694 N.pl3     1 <0>        -0.8424
     26 Cl2         4.8877   -7.2249    3.8367 Cl        1 <0>        -0.0381
     27 H1         -1.8247    1.8505    0.9751 H         1 <0>         0.1359
     28 H2          0.1965    3.2153    0.6357 H         1 <0>         0.1362
     29 H3          2.3551    2.1247    0.1729 H         1 <0>         0.1308
     30 H4          0.4699   -1.6952    0.3818 H         1 <0>         0.1285
     31 H5         -1.6890   -0.6046    0.8432 H         1 <0>         0.1361
     32 H6          2.6932   -1.4571   -0.5635 H         1 <0>         0.1348
     33 H7          3.4799    0.1371   -0.6511 H         1 <0>         0.1374
     34 H8          4.9375    0.6153    1.9496 H         1 <0>         0.1360
     35 H9          3.4111    1.2969    1.3354 H         1 <0>         0.1352
     36 H10         3.2028    1.4691    3.7066 H         1 <0>         0.1229
     37 H11         2.2803    0.0004    3.3017 H         1 <0>         0.0978
     38 H12         5.2182   -0.0611    4.0712 H         1 <0>         0.1017
     39 H13         3.9044   -0.2122    5.2644 H         1 <0>         0.0996
     40 H14         5.9181   -2.7063    3.9864 H         1 <0>         0.0954
     41 H15         4.7950   -3.4046    2.7883 H         1 <0>         0.1064
     42 H16         5.7890   -0.5340    2.5653 H         1 <0>         0.1037
     43 H17         6.7100   -1.8921    1.8752 H         1 <0>         0.1274
     44 H18         4.5366   -2.5833    0.7052 H         1 <0>         0.1305
     45 H19         5.3141   -1.1017    0.1067 H         1 <0>         0.1343
     46 H20         4.6811   -4.4529    4.4311 H         1 <0>         0.1483
     47 H21         0.7426   -3.5630    2.9756 H         1 <0>         0.1464
     48 H22         2.9855   -8.4577    2.7192 H         1 <0>         0.4129
     49 H23         1.4455   -8.1084    2.1458 H         1 <0>         0.4128
     50 H24         2.9580   -1.3433    1.8254 H         1 <0>         0.4181
@<TRIPOS>BOND
     1    1    6 ar
     2    1    2 ar
     3    1   27 1
     4    2    3 ar
     5    2   28 1
     6    3    4 ar
     7    3   29 1
     8    4    5 ar
     9    4    7 1
    10    5    6 ar
    11    5   30 1
    12    6   31 1
    13    7    8 1
    14    7   32 1
    15    7   33 1
    16    8   15 1
    17    8    9 1
    18    8   50 1
    19    9   10 1
    20    9   34 1
    21    9   35 1
    22   10   11 1
    23   10   36 1
    24   10   37 1
    25   11   12 1
    26   11   38 1
    27   11   39 1
    28   12   13 1
    29   12   16 am
    30   13   14 1
    31   13   40 1
    32   13   41 1
    33   14   15 1
    34   14   42 1
    35   14   43 1
    36   15   44 1
    37   15   45 1
    38   16   17 2
    39   16   18 1
    40   18   23 ar
    41   18   19 ar
    42   19   20 ar
    43   19   46 1
    44   20   21 ar
    45   20   26 1
    46   21   22 ar
    47   21   25 1
    48   22   23 ar
    49   22   24 1
    50   23   47 1
    51   25   48 1
    52   25   49 1
@<TRIPOS>MOLECULE
CHEMBL564367
   63    67     0     0     0
SMALL
USER_CHARGES

@<TRIPOS>ATOM
      1 C1          2.0835    0.7648   -2.4711 C.3       1 <0>        -0.1285
      2 C2          2.1206   -0.7628   -2.7242 C.3       1 <0>        -0.1281
      3 C3          1.0894   -1.3036   -1.7027 C.3       1 <0>        -0.1094
      4 C4          1.2979   -0.4239   -0.4528 C.3       1 <0>        -0.0207
      5 C5          1.9299    0.8913   -0.9413 C.3       1 <0>        -0.1034
      6 C6          2.2386   -1.1241    0.5300 C.3       1 <0>        -0.1413
      7 C7          1.6182   -2.4211    0.9817 C.2       1 <0>         0.5145
      8 O1          0.5883   -2.8103    0.4730 O.2       1 <0>        -0.5375
      9 N1          2.2079   -3.1485    1.9510 N.am      1 <0>        -0.7263
     10 C8          1.6049   -4.4094    2.3901 C.3       1 <0>         0.1583
     11 C9          0.5429   -4.1236    3.4538 C.3       1 <0>        -0.0925
     12 C10         1.1939   -3.4258    4.6498 C.3       1 <0>        -0.1058
     13 C11         2.2770   -4.3306    5.2406 C.3       1 <0>        -0.0867
     14 C12         1.6472   -5.6474    5.6992 C.3       1 <0>        -0.1080
     15 C13         0.9962   -6.3452    4.5033 C.3       1 <0>        -0.0881
     16 C14        -0.0869   -5.4403    3.9125 C.3       1 <0>        -0.1063
     17 C15         2.0582   -6.6310    3.4396 C.3       1 <0>        -0.1052
     18 C16         2.6880   -5.3142    2.9810 C.3       1 <0>        -0.0930
     19 C17         3.3389   -4.6164    4.1769 C.3       1 <0>        -0.1094
     20 C18        -0.0471   -0.1410    0.2193 C.3       1 <0>        -0.1355
     21 C19         0.1532    0.8279    1.3560 C.2       1 <0>         0.5290
     22 O2          1.2716    1.1900    1.6542 O.2       1 <0>        -0.5375
     23 N2         -0.9105    1.2921    2.0412 N.am      1 <0>        -0.6222
     24 C20        -2.3140    0.9329    1.7911 C.3       1 <0>         0.0986
     25 C21        -3.1758    1.7237    2.7979 C.3       1 <0>        -0.1329
     26 C22        -2.2564    2.9124    3.1838 C.3       1 <0>        -0.1346
     27 C23        -0.8588    2.2392    3.1698 C.3       1 <0>         0.1038
     28 H1          3.0130    1.2288   -2.8009 H         1 <0>         0.0631
     29 H2          1.2303    1.2150   -2.9786 H         1 <0>         0.0624
     30 H3          1.8116   -0.9931   -3.7438 H         1 <0>         0.0645
     31 H4          3.1133   -1.1641   -2.5202 H         1 <0>         0.0636
     32 H5          0.0757   -1.1875   -2.0862 H         1 <0>         0.0657
     33 H6          1.2935   -2.3491   -1.4718 H         1 <0>         0.0780
     34 H7          2.9068    1.0307   -0.4783 H         1 <0>         0.0691
     35 H8          1.2784    1.7310   -0.6996 H         1 <0>         0.0610
     36 H9          3.1903   -1.3280    0.0394 H         1 <0>         0.0922
     37 H10         2.4056   -0.4809    1.3940 H         1 <0>         0.1136
     38 H11         3.0316   -2.8373    2.3579 H         1 <0>         0.3982
     39 H12         1.1411   -4.9065    1.5381 H         1 <0>         0.0870
     40 H13        -0.2287   -3.4789    3.0329 H         1 <0>         0.0716
     41 H14         1.6426   -2.4877    4.3231 H         1 <0>         0.0600
     42 H15         0.4373   -3.2222    5.4076 H         1 <0>         0.0606
     43 H16         2.7407   -3.8335    6.0926 H         1 <0>         0.0698
     44 H17         2.4188   -6.2920    6.1202 H         1 <0>         0.0623
     45 H18         0.8906   -5.4438    6.4571 H         1 <0>         0.0620
     46 H19         0.5475   -7.2833    4.8300 H         1 <0>         0.0719
     47 H20        -0.8434   -5.2367    4.6703 H         1 <0>         0.0644
     48 H21        -0.5506   -5.9374    3.0604 H         1 <0>         0.0639
     49 H22         2.8298   -7.2756    3.8605 H         1 <0>         0.0678
     50 H23         1.5944   -7.1281    2.5876 H         1 <0>         0.0651
     51 H24         3.4445   -5.5178    2.2232 H         1 <0>         0.0754
     52 H25         3.7876   -3.6783    3.8502 H         1 <0>         0.0592
     53 H26         4.1105   -5.2611    4.5978 H         1 <0>         0.0672
     54 H27        -0.7337    0.2904   -0.5091 H         1 <0>         0.0888
     55 H28        -0.4637   -1.0718    0.6044 H         1 <0>         0.1142
     56 H29        -2.5905    1.2050    0.7725 H         1 <0>         0.0695
     57 H30        -2.4554   -0.1373    1.9425 H         1 <0>         0.0694
     58 H31        -4.0905    2.0813    2.3252 H         1 <0>         0.0840
     59 H32        -3.4050    1.1139    3.6718 H         1 <0>         0.0774
     60 H33        -2.3171    3.7098    2.4431 H         1 <0>         0.0768
     61 H34        -2.4981    3.2863    4.1788 H         1 <0>         0.0848
     62 H35        -0.6824    1.7066    4.1043 H         1 <0>         0.0662
     63 H36        -0.0809    2.9846    3.0042 H         1 <0>         0.0782
@<TRIPOS>BOND
     1    1    5 1
     2    1    2 1
     3    1   28 1
     4    1   29 1
     5    2    3 1
     6    2   30 1
     7    2   31 1
     8    3    4 1
     9    3   32 1
    10    3   33 1
    11    4    5 1
    12    4    6 1
    13    4   20 1
    14    5   34 1
    15    5   35 1
    16    6    7 1
    17    6   36 1
    18    6   37 1
    19    7    8 2
    20    7    9 am
    21    9   10 1
    22    9   38 1
    23   10   18 1
    24   10   11 1
    25   10   39 1
    26   11   16 1
    27   11   12 1
    28   11   40 1
    29   12   13 1
    30   12   41 1
    31   12   42 1
    32   13   19 1
    33   13   14 1
    34   13   43 1
    35   14   15 1
    36   14   44 1
    37   14   45 1
    38   15   16 1
    39   15   17 1
    40   15   46 1
    41   16   47 1
    42   16   48 1
    43   17   18 1
    44   17   49 1
    45   17   50 1
    46   18   19 1
    47   18   51 1
    48   19   52 1
    49   19   53 1
    50   20   21 1
    51   20   54 1
    52   20   55 1
    53   21   22 2
    54   21   23 am
    55   23   27 1
    56   23   24 1
    57   24   25 1
    58   24   56 1
    59   24   57 1
    60   25   26 1
    61   25   58 1
    62   25   59 1
    63   26   27 1
    64   26   60 1
    65   26   61 1
    66   27   62 1
    67   27   63 1
@<TRIPOS>MOLECULE
CHEMBL240288
   37    39     0     0     0
SMALL
USER_CHARGES

@<TRIPOS>ATOM
      1 C1         -0.0167    1.3795    0.0096 C.ar      1 <0>        -0.1017
      2 C2          1.1683    2.0938    0.0021 C.ar      1 <0>        -0.1157
      3 C3          2.3774    1.4299   -0.0129 C.ar      1 <0>        -0.0982
      4 C4          2.4036    0.0339   -0.0206 C.ar      1 <0>        -0.0278
      5 C5          1.2041   -0.6806   -0.0130 C.ar      1 <0>        -0.0864
      6 C6          0.0021   -0.0041    0.0020 C.ar      1 <0>        -0.1164
      7 C7          3.6949   -0.6839   -0.0372 C.2       1 <0>        -0.0597
      8 C8          3.9315   -2.0513   -0.0525 C.2       1 <0>        -0.1792
      9 C9          5.2208   -2.4948   -0.0664 C.2       1 <0>        -0.0375
     10 C10         6.2494   -1.5559   -0.0647 C.2       1 <0>        -0.2782
     11 S1          5.3496   -0.0140   -0.0507 S.3       1 <0>         0.1375
     12 C11         7.6441   -1.7686   -0.0764 C.2       1 <0>         0.4676
     13 O1          8.0859   -2.9000   -0.0902 O.2       1 <0>        -0.4387
     14 C12         8.5858   -0.5920   -0.0718 C.3       1 <0>        -0.6828
     15 S2         10.2988   -1.1885   -0.0894 S.o2      1 <0>         2.5240
     16 O2         10.6034   -1.8384    1.1371 O.2       1 <0>        -0.9172
     17 O3         10.5862   -1.8150   -1.3320 O.2       1 <0>        -0.9172
     18 C13        11.2864    0.2706   -0.0824 C.ar      1 <0>        -0.6657
     19 C14        11.6608    0.8576   -1.2767 C.ar      1 <0>        -0.0243
     20 C15        12.4357    2.0023   -1.2712 C.ar      1 <0>        -0.1387
     21 C16        12.8358    2.5604   -0.0715 C.ar      1 <0>        -0.0620
     22 C17        12.4606    1.9740    1.1228 C.ar      1 <0>        -0.1386
     23 C18        11.6822    0.8317    1.1174 C.ar      1 <0>        -0.0242
     24 H1         -0.9605    1.9042    0.0260 H         1 <0>         0.1294
     25 H2          1.1466    3.1735    0.0078 H         1 <0>         0.1312
     26 H3          3.3016    1.9886   -0.0191 H         1 <0>         0.1256
     27 H4          1.2174   -1.7605   -0.0192 H         1 <0>         0.1304
     28 H5         -0.9265   -0.5555    0.0079 H         1 <0>         0.1319
     29 H6          3.1092   -2.7515   -0.0531 H         1 <0>         0.1487
     30 H7          5.4398   -3.5523   -0.0781 H         1 <0>         0.1532
     31 H8          8.4054    0.0211   -0.9548 H         1 <0>         0.1692
     32 H9          8.4178    0.0043    0.8251 H         1 <0>         0.1694
     33 H10        11.3482    0.4215   -2.2140 H         1 <0>         0.1436
     34 H11        12.7287    2.4605   -2.2043 H         1 <0>         0.1358
     35 H12        13.4417    3.4544   -0.0673 H         1 <0>         0.1334
     36 H13        12.7735    2.4098    2.0601 H         1 <0>         0.1358
     37 H14        11.3860    0.3756    2.0505 H         1 <0>         0.1436
@<TRIPOS>BOND
     1    1    6 ar
     2    1    2 ar
     3    1   24 1
     4    2    3 ar
     5    2   25 1
     6    3    4 ar
     7    3   26 1
     8    4    5 ar
     9    4    7 1
    10    5    6 ar
    11    5   27 1
    12    6   28 1
    13    7   11 1
    14    7    8 2
    15    8    9 1
    16    8   29 1
    17    9   10 2
    18    9   30 1
    19   10   11 1
    20   10   12 1
    21   12   13 2
    22   12   14 1
    23   14   15 1
    24   14   31 1
    25   14   32 1
    26   15   16 2
    27   15   17 2
    28   15   18 1
    29   18   23 ar
    30   18   19 ar
    31   19   20 ar
    32   19   33 1
    33   20   21 ar
    34   20   34 1
    35   21   22 ar
    36   21   35 1
    37   22   23 ar
    38   22   36 1
    39   23   37 1
@<TRIPOS>MOLECULE
CHEMBL598039
   55    59     0     0     0
SMALL
USER_CHARGES

@<TRIPOS>ATOM
      1 C1         -0.0107    1.3880    0.0186 C.ar      1 <0>        -0.1200
      2 C2          1.1385    2.0058    0.4753 C.ar      1 <0>        -0.1233
      3 C3          2.3424    1.3269    0.4565 C.ar      1 <0>        -0.1158
      4 C4          2.3972    0.0299   -0.0187 C.ar      1 <0>        -0.0505
      5 C5          1.2479   -0.5883   -0.4746 C.ar      1 <0>        -0.0512
      6 C6          0.0441    0.0912   -0.4570 C.ar      1 <0>        -0.1248
      7 C7          3.7099   -0.7099   -0.0402 C.3       1 <0>         0.2035
      8 C8          3.9468   -1.2950   -1.4361 C.3       1 <0>        -0.1296
      9 C9          5.2092   -2.1599   -1.4147 C.3       1 <0>        -0.1198
     10 C10         5.0201   -3.3174   -0.4316 C.3       1 <0>        -0.1353
     11 C11         4.7953   -2.7552    0.9756 C.3       1 <0>         0.1118
     12 N1          3.6715   -1.8097    0.9332 N.am      1 <0>        -0.6270
     13 C12         2.6252   -1.9486    1.7714 C.2       1 <0>         0.7006
     14 O1          1.6604   -1.2163    1.6660 O.2       1 <0>        -0.5547
     15 N2          2.6484   -2.8993    2.7264 N.am      1 <0>        -0.7420
     16 C13         1.4671   -3.1267    3.5625 C.3       1 <0>         0.1799
     17 C14         1.4803   -2.1503    4.7404 C.3       1 <0>        -0.0936
     18 C15         2.7447   -2.3724    5.5728 C.3       1 <0>        -0.1043
     19 C16         2.7622   -3.8084    6.1005 C.3       1 <0>        -0.0869
     20 C17         1.5284   -4.0459    6.9737 C.3       1 <0>        -0.1077
     21 C18         0.2641   -3.8238    6.1413 C.3       1 <0>        -0.0882
     22 C19         0.2466   -2.3878    5.6135 C.3       1 <0>        -0.1063
     23 C20         0.2509   -4.8002    4.9634 C.3       1 <0>        -0.1045
     24 C21         1.4846   -4.5627    4.0903 C.3       1 <0>        -0.0932
     25 C22         2.7490   -4.7848    4.9227 C.3       1 <0>        -0.1074
     26 H1         -0.9521    1.9168    0.0376 H         1 <0>         0.1122
     27 H2          1.0957    3.0191    0.8466 H         1 <0>         0.1130
     28 H3          3.2404    1.8098    0.8126 H         1 <0>         0.1099
     29 H4          1.2907   -1.6014   -0.8462 H         1 <0>         0.1038
     30 H5         -0.8537   -0.3916   -0.8136 H         1 <0>         0.1109
     31 H6          4.5193   -0.0254    0.2135 H         1 <0>         0.0775
     32 H7          3.0917   -1.9065   -1.7242 H         1 <0>         0.0707
     33 H8          4.0733   -0.4844   -2.1537 H         1 <0>         0.0783
     34 H9          5.3938   -2.5576   -2.4127 H         1 <0>         0.0689
     35 H10         6.0596   -1.5536   -1.1026 H         1 <0>         0.0659
     36 H11         4.1548   -3.9098   -0.7291 H         1 <0>         0.0674
     37 H12         5.9104   -3.9462   -0.4342 H         1 <0>         0.0764
     38 H13         4.5619   -3.5696    1.6615 H         1 <0>         0.0757
     39 H14         5.6948   -2.2388    1.3108 H         1 <0>         0.0693
     40 H15         3.4473   -3.4330    2.8602 H         1 <0>         0.3901
     41 H16         0.5664   -2.9685    2.9695 H         1 <0>         0.0847
     42 H17         1.4679   -1.1273    4.3644 H         1 <0>         0.0763
     43 H18         3.6236   -2.2032    4.9507 H         1 <0>         0.0583
     44 H19         2.7541   -1.6768    6.4119 H         1 <0>         0.0605
     45 H20         3.6629   -3.9666    6.6936 H         1 <0>         0.0690
     46 H21         1.5409   -5.0689    7.3497 H         1 <0>         0.0617
     47 H22         1.5379   -3.3503    7.8128 H         1 <0>         0.0622
     48 H23        -0.6149   -3.9930    6.7633 H         1 <0>         0.0715
     49 H24         0.2560   -1.6922    6.4527 H         1 <0>         0.0641
     50 H25        -0.6542   -2.2296    5.0205 H         1 <0>         0.0636
     51 H26         0.2633   -5.8232    5.3394 H         1 <0>         0.0674
     52 H27        -0.6499   -4.6420    4.3704 H         1 <0>         0.0651
     53 H28         1.4752   -5.2583    3.2511 H         1 <0>         0.0738
     54 H29         3.6279   -4.6156    4.3006 H         1 <0>         0.0560
     55 H30         2.7614   -5.8079    5.2986 H         1 <0>         0.0665
@<TRIPOS>BOND
     1    1    6 ar
     2    1    2 ar
     3    1   26 1
     4    2    3 ar
     5    2   27 1
     6    3    4 ar
     7    3   28 1
     8    4    5 ar
     9    4    7 1
    10    5    6 ar
    11    5   29 1
    12    6   30 1
    13    7   12 1
    14    7    8 1
    15    7   31 1
    16    8    9 1
    17    8   32 1
    18    8   33 1
    19    9   10 1
    20    9   34 1
    21    9   35 1
    22   10   11 1
    23   10   36 1
    24   10   37 1
    25   11   12 1
    26   11   38 1
    27   11   39 1
    28   12   13 am
    29   13   14 2
    30   13   15 am
    31   15   16 1
    32   15   40 1
    33   16   24 1
    34   16   17 1
    35   16   41 1
    36   17   22 1
    37   17   18 1
    38   17   42 1
    39   18   19 1
    40   18   43 1
    41   18   44 1
    42   19   25 1
    43   19   20 1
    44   19   45 1
    45   20   21 1
    46   20   46 1
    47   20   47 1
    48   21   22 1
    49   21   23 1
    50   21   48 1
    51   22   49 1
    52   22   50 1
    53   23   24 1
    54   23   51 1
    55   23   52 1
    56   24   25 1
    57   24   53 1
    58   25   54 1
    59   25   55 1
@<TRIPOS>MOLECULE
CHEMBL598039__1
   55    59     0     0     0
SMALL
USER_CHARGES

@<TRIPOS>ATOM
      1 C1         -0.0366    1.3438    0.0551 C.ar      1 <0>        -0.1171
      2 C2          1.0929    1.9817   -0.4227 C.ar      1 <0>        -0.1277
      3 C3          2.3039    1.3157   -0.4487 C.ar      1 <0>        -0.1132
      4 C4          2.3856    0.0119    0.0035 C.ar      1 <0>        -0.0601
      5 C5          1.2563   -0.6257    0.4821 C.ar      1 <0>        -0.0403
      6 C6          0.0450    0.0399    0.5068 C.ar      1 <0>        -0.1292
      7 C7          3.7057   -0.7144   -0.0257 C.3       1 <0>         0.2042
      8 C8          4.1058   -1.1101    1.3991 C.3       1 <0>        -0.1282
      9 C9          5.3733   -1.9663    1.3496 C.3       1 <0>        -0.1197
     10 C10         5.0974   -3.2436    0.5530 C.3       1 <0>        -0.1367
     11 C11         4.7085   -2.8721   -0.8814 C.3       1 <0>         0.1128
     12 N1          3.5795   -1.9328   -0.8371 N.am      1 <0>        -0.6271
     13 C12         2.4497   -2.1841   -1.5276 C.2       1 <0>         0.6978
     14 O1          1.5638   -1.3522   -1.5674 O.2       1 <0>        -0.5529
     15 N2          2.3019   -3.3574   -2.1741 N.am      1 <0>        -0.7417
     16 C13         1.1242   -3.5874   -3.0145 C.3       1 <0>         0.1792
     17 C14        -0.0320   -4.0878   -2.1464 C.3       1 <0>        -0.0935
     18 C15         0.3715   -5.3968   -1.4647 C.3       1 <0>        -0.1042
     19 C16         0.7013   -6.4455   -2.5289 C.3       1 <0>        -0.0868
     20 C17        -0.5287   -6.6856   -3.4066 C.3       1 <0>        -0.1077
     21 C18        -0.9322   -5.3767   -4.0883 C.3       1 <0>        -0.0882
     22 C19        -1.2620   -4.3280   -3.0242 C.3       1 <0>        -0.1063
     23 C20         0.2240   -4.8762   -4.9564 C.3       1 <0>        -0.1047
     24 C21         1.4540   -4.6361   -4.0787 C.3       1 <0>        -0.0933
     25 C22         1.8575   -5.9450   -3.3970 C.3       1 <0>        -0.1074
     26 H1         -0.9819    1.8656    0.0796 H         1 <0>         0.1124
     27 H2          1.0291    3.0003   -0.7759 H         1 <0>         0.1138
     28 H3          3.1862    1.8138   -0.8226 H         1 <0>         0.1115
     29 H4          1.3200   -1.6444    0.8351 H         1 <0>         0.1009
     30 H5         -0.8374   -0.4584    0.8804 H         1 <0>         0.1104
     31 H6          4.4697   -0.0667   -0.4555 H         1 <0>         0.0784
     32 H7          4.2963   -0.2117    1.9862 H         1 <0>         0.0787
     33 H8          3.2988   -1.6811    1.8583 H         1 <0>         0.0693
     34 H9          6.1730   -1.4036    0.8679 H         1 <0>         0.0663
     35 H10         5.6741   -2.2287    2.3638 H         1 <0>         0.0691
     36 H11         5.9936   -3.8637    0.5380 H         1 <0>         0.0767
     37 H12         4.2810   -3.7945    1.0202 H         1 <0>         0.0671
     38 H13         5.5561   -2.4014   -1.3795 H         1 <0>         0.0710
     39 H14         4.4154   -3.7704   -1.4248 H         1 <0>         0.0751
     40 H15         2.9752   -4.0496   -2.0828 H         1 <0>         0.3901
     41 H16         0.8367   -2.6549   -3.5002 H         1 <0>         0.0852
     42 H17        -0.2670   -3.3407   -1.3883 H         1 <0>         0.0757
     43 H18         1.2477   -5.2257   -0.8394 H         1 <0>         0.0578
     44 H19        -0.4522   -5.7533   -0.8463 H         1 <0>         0.0605
     45 H20         0.9887   -7.3780   -2.0432 H         1 <0>         0.0690
     46 H21        -0.2938   -7.4327   -4.1648 H         1 <0>         0.0618
     47 H22        -1.3524   -7.0422   -2.7882 H         1 <0>         0.0621
     48 H23        -1.8084   -5.5478   -4.7137 H         1 <0>         0.0716
     49 H24        -2.0857   -4.6845   -2.4057 H         1 <0>         0.0641
     50 H25        -1.5495   -3.3955   -3.5098 H         1 <0>         0.0639
     51 H26         0.4590   -5.6233   -5.7146 H         1 <0>         0.0675
     52 H27        -0.0635   -3.9437   -5.4421 H         1 <0>         0.0653
     53 H28         2.2777   -4.2795   -4.6971 H         1 <0>         0.0743
     54 H29         2.7337   -5.7739   -2.7717 H         1 <0>         0.0558
     55 H30         2.0924   -6.6921   -4.1551 H         1 <0>         0.0667
@<TRIPOS>BOND
     1    1    6 ar
     2    1    2 ar
     3    1   26 1
     4    2    3 ar
     5    2   27 1
     6    3    4 ar
     7    3   28 1
     8    4    5 ar
     9    4    7 1
    10    5    6 ar
    11    5   29 1
    12    6   30 1
    13    7   12 1
    14    7    8 1
    15    7   31 1
    16    8    9 1
    17    8   32 1
    18    8   33 1
    19    9   10 1
    20    9   34 1
    21    9   35 1
    22   10   11 1
    23   10   36 1
    24   10   37 1
    25   11   12 1
    26   11   38 1
    27   11   39 1
    28   12   13 am
    29   13   14 2
    30   13   15 am
    31   15   16 1
    32   15   40 1
    33   16   24 1
    34   16   17 1
    35   16   41 1
    36   17   22 1
    37   17   18 1
    38   17   42 1
    39   18   19 1
    40   18   43 1
    41   18   44 1
    42   19   25 1
    43   19   20 1
    44   19   45 1
    45   20   21 1
    46   20   46 1
    47   20   47 1
    48   21   22 1
    49   21   23 1
    50   21   48 1
    51   22   49 1
    52   22   50 1
    53   23   24 1
    54   23   51 1
    55   23   52 1
    56   24   25 1
    57   24   53 1
    58   25   54 1
    59   25   55 1
@<TRIPOS>MOLECULE
CHEMBL605544
   55    59     0     0     0
SMALL
USER_CHARGES

@<TRIPOS>ATOM
      1 C1          4.4543   -6.2023   -4.0144 C.ar      1 <0>        -0.1213
      2 C2          4.3339   -6.9049   -2.8300 C.ar      1 <0>        -0.1171
      3 C3          4.1986   -6.2254   -1.6339 C.ar      1 <0>        -0.1140
      4 C4          4.1841   -4.8432   -1.6220 C.ar      1 <0>        -0.0797
      5 C5          4.3054   -4.1405   -2.8062 C.ar      1 <0>        -0.1142
      6 C6          4.4393   -4.8200   -4.0025 C.ar      1 <0>        -0.1170
      7 C7          4.0356   -4.1023   -0.3181 C.3       1 <0>        -0.0609
      8 C8          2.7778   -3.2319   -0.3655 C.3       1 <0>        -0.1101
      9 C9          2.6081   -2.5043    0.9702 C.3       1 <0>        -0.1358
     10 C10         3.8172   -1.5943    1.2085 C.3       1 <0>         0.1278
     11 N1          5.0420   -2.4000    1.1115 N.am      1 <0>        -0.6294
     12 C11         5.2608   -3.2104   -0.0944 C.3       1 <0>         0.1224
     13 C12         5.9477   -2.3955    2.1095 C.2       1 <0>         0.7084
     14 O1          5.8011   -1.6518    3.0602 O.2       1 <0>        -0.5865
     15 N2          7.0160   -3.2153    2.0538 N.am      1 <0>        -0.7399
     16 C13         7.9407   -3.2917    3.1875 C.3       1 <0>         0.1769
     17 C14         8.9780   -2.1727    3.0759 C.3       1 <0>        -0.0959
     18 C15         9.7588   -2.3295    1.7695 C.3       1 <0>        -0.1052
     19 C16        10.4680   -3.6852    1.7587 C.3       1 <0>        -0.0871
     20 C17        11.4337   -3.7649    2.9428 C.3       1 <0>        -0.1077
     21 C18        10.6529   -3.6081    4.2492 C.3       1 <0>        -0.0885
     22 C19         9.9437   -2.2524    4.2599 C.3       1 <0>        -0.1066
     23 C20         9.6155   -4.7272    4.3608 C.3       1 <0>        -0.1047
     24 C21         8.6498   -4.6474    3.1768 C.3       1 <0>        -0.0930
     25 C22         9.4306   -4.8042    1.8704 C.3       1 <0>        -0.1080
     26 H1          4.5645   -6.7331   -4.9484 H         1 <0>         0.1217
     27 H2          4.3452   -7.9848   -2.8393 H         1 <0>         0.1223
     28 H3          4.1038   -6.7744   -0.7087 H         1 <0>         0.1207
     29 H4          4.2937   -3.0606   -2.7970 H         1 <0>         0.1212
     30 H5          4.5336   -4.2710   -4.9278 H         1 <0>         0.1223
     31 H6          3.9526   -4.8182    0.4997 H         1 <0>         0.0832
     32 H7          2.8724   -2.5004   -1.1680 H         1 <0>         0.0677
     33 H8          1.9072   -3.8615   -0.5492 H         1 <0>         0.0689
     34 H9          1.6995   -1.9028    0.9440 H         1 <0>         0.0793
     35 H10         2.5382   -3.2349    1.7761 H         1 <0>         0.0676
     36 H11         3.8367   -0.8076    0.4543 H         1 <0>         0.0654
     37 H12         3.7499   -1.1498    2.2015 H         1 <0>         0.0949
     38 H13         6.1461   -3.8322    0.0390 H         1 <0>         0.0753
     39 H14         5.3980   -2.5555   -0.9548 H         1 <0>         0.0724
     40 H15         7.1726   -3.7548    1.2630 H         1 <0>         0.3932
     41 H16         7.3844   -3.1800    4.1182 H         1 <0>         0.0861
     42 H17         8.4728   -1.2068    3.0835 H         1 <0>         0.0764
     43 H18         9.0708   -2.2726    0.9259 H         1 <0>         0.0583
     44 H19        10.4978   -1.5322    1.6899 H         1 <0>         0.0619
     45 H20        11.0242   -3.7969    0.8280 H         1 <0>         0.0697
     46 H21        11.9389   -4.7308    2.9351 H         1 <0>         0.0620
     47 H22        12.1727   -2.9677    2.8632 H         1 <0>         0.0625
     48 H23        11.3409   -3.6650    5.0927 H         1 <0>         0.0723
     49 H24        10.6828   -1.4552    4.1804 H         1 <0>         0.0652
     50 H25         9.3875   -2.1407    5.1906 H         1 <0>         0.0645
     51 H26        10.1208   -5.6930    4.3532 H         1 <0>         0.0681
     52 H27         9.0593   -4.6155    5.2915 H         1 <0>         0.0658
     53 H28         7.9108   -5.4447    3.2563 H         1 <0>         0.0750
     54 H29         8.7426   -4.7474    1.0268 H         1 <0>         0.0559
     55 H30         9.9358   -5.7701    1.8627 H         1 <0>         0.0674
@<TRIPOS>BOND
     1    1    6 ar
     2    1    2 ar
     3    1   26 1
     4    2    3 ar
     5    2   27 1
     6    3    4 ar
     7    3   28 1
     8    4    5 ar
     9    4    7 1
    10    5    6 ar
    11    5   29 1
    12    6   30 1
    13    7   12 1
    14    7    8 1
    15    7   31 1
    16    8    9 1
    17    8   32 1
    18    8   33 1
    19    9   10 1
    20    9   34 1
    21    9   35 1
    22   10   11 1
    23   10   36 1
    24   10   37 1
    25   11   12 1
    26   11   13 am
    27   12   38 1
    28   12   39 1
    29   13   14 2
    30   13   15 am
    31   15   16 1
    32   15   40 1
    33   16   24 1
    34   16   17 1
    35   16   41 1
    36   17   22 1
    37   17   18 1
    38   17   42 1
    39   18   19 1
    40   18   43 1
    41   18   44 1
    42   19   25 1
    43   19   20 1
    44   19   45 1
    45   20   21 1
    46   20   46 1
    47   20   47 1
    48   21   22 1
    49   21   23 1
    50   21   48 1
    51   22   49 1
    52   22   50 1
    53   23   24 1
    54   23   51 1
    55   23   52 1
    56   24   25 1
    57   24   53 1
    58   25   54 1
    59   25   55 1
@<TRIPOS>MOLECULE
CHEMBL605544__1
   55    59     0     0     0
SMALL
USER_CHARGES

@<TRIPOS>ATOM
      1 C1         -0.0132    1.3829    0.0108 C.ar      1 <0>        -0.1221
      2 C2          1.1748    2.0896    0.0021 C.ar      1 <0>        -0.1174
      3 C3          2.3808    1.4141   -0.0133 C.ar      1 <0>        -0.1132
      4 C4          2.3987    0.0319   -0.0195 C.ar      1 <0>        -0.0768
      5 C5          1.2107   -0.6748   -0.0099 C.ar      1 <0>        -0.1141
      6 C6          0.0047    0.0007    0.0040 C.ar      1 <0>        -0.1178
      7 C7          3.7134   -0.7045   -0.0373 C.3       1 <0>        -0.0614
      8 C8          3.8186   -1.5920    1.2050 C.3       1 <0>        -0.1101
      9 C9          5.1673   -2.3153    1.2046 C.3       1 <0>        -0.1355
     10 C10         5.2632   -3.2078   -0.0367 C.3       1 <0>         0.1110
     11 N1          5.0187   -2.3862   -1.2299 N.am      1 <0>        -0.6297
     12 C11         3.7928   -1.5788   -1.2927 C.3       1 <0>         0.1396
     13 C12         5.9025   -2.3731   -2.2474 C.2       1 <0>         0.7080
     14 O1          5.6465   -1.7622   -3.2671 O.2       1 <0>        -0.5862
     15 N2          7.0699   -3.0370   -2.1347 N.am      1 <0>        -0.7395
     16 C13         8.0773   -2.9325   -3.1932 C.3       1 <0>         0.1769
     17 C14         7.7714   -3.9534   -4.2910 C.3       1 <0>        -0.0963
     18 C15         7.7991   -5.3636   -3.6981 C.3       1 <0>        -0.1050
     19 C16         9.1847   -5.6436   -3.1129 C.3       1 <0>        -0.0871
     20 C17        10.2368   -5.5344   -4.2184 C.3       1 <0>        -0.1078
     21 C18        10.2091   -4.1243   -4.8114 C.3       1 <0>        -0.0886
     22 C19         8.8234   -3.8442   -5.3965 C.3       1 <0>        -0.1066
     23 C20        10.5150   -3.1034   -3.7136 C.3       1 <0>        -0.1049
     24 C21         9.4629   -3.2126   -2.6081 C.3       1 <0>        -0.0931
     25 C22         9.4906   -4.6227   -2.0152 C.3       1 <0>        -0.1079
     26 H1         -0.9553    1.9106    0.0273 H         1 <0>         0.1214
     27 H2          1.1608    3.1695    0.0070 H         1 <0>         0.1221
     28 H3          3.3089    1.9663   -0.0208 H         1 <0>         0.1207
     29 H4          1.2248   -1.7547   -0.0152 H         1 <0>         0.1207
     30 H5         -0.9234   -0.5515    0.0111 H         1 <0>         0.1220
     31 H6          4.5329    0.0142   -0.0421 H         1 <0>         0.0819
     32 H7          3.7377   -0.9750    2.1000 H         1 <0>         0.0692
     33 H8          3.0129   -2.3261    1.1962 H         1 <0>         0.0679
     34 H9          5.9735   -1.5818    1.1885 H         1 <0>         0.0687
     35 H10         5.2513   -2.9291    2.1015 H         1 <0>         0.0787
     36 H11         6.2586   -3.6484   -0.0940 H         1 <0>         0.0748
     37 H12         4.5146   -3.9979    0.0226 H         1 <0>         0.0711
     38 H13         2.9243   -2.2360   -1.3358 H         1 <0>         0.0668
     39 H14         3.8180   -0.9445   -2.1788 H         1 <0>         0.0953
     40 H15         7.2431   -3.5841   -1.3526 H         1 <0>         0.3931
     41 H16         8.0575   -1.9278   -3.6156 H         1 <0>         0.0860
     42 H17         6.7842   -3.7538   -4.7079 H         1 <0>         0.0764
     43 H18         7.0496   -5.4413   -2.9105 H         1 <0>         0.0584
     44 H19         7.5812   -6.0909   -4.4802 H         1 <0>         0.0618
     45 H20         9.2045   -6.6483   -2.6905 H         1 <0>         0.0697
     46 H21        11.2240   -5.7340   -3.8016 H         1 <0>         0.0621
     47 H22        10.0189   -6.2617   -5.0005 H         1 <0>         0.0625
     48 H23        10.9586   -4.0465   -5.5989 H         1 <0>         0.0723
     49 H24         8.6055   -4.5715   -6.1786 H         1 <0>         0.0651
     50 H25         8.8037   -2.8396   -5.8189 H         1 <0>         0.0645
     51 H26        11.5021   -3.3029   -3.2967 H         1 <0>         0.0681
     52 H27        10.4952   -2.0987   -4.1360 H         1 <0>         0.0658
     53 H28         9.6808   -2.4852   -1.8260 H         1 <0>         0.0752
     54 H29         8.7411   -4.7005   -1.2276 H         1 <0>         0.0561
     55 H30        10.4778   -4.8223   -1.5983 H         1 <0>         0.0675
@<TRIPOS>BOND
     1    1    6 ar
     2    1    2 ar
     3    1   26 1
     4    2    3 ar
     5    2   27 1
     6    3    4 ar
     7    3   28 1
     8    4    5 ar
     9    4    7 1
    10    5    6 ar
    11    5   29 1
    12    6   30 1
    13    7   12 1
    14    7    8 1
    15    7   31 1
    16    8    9 1
    17    8   32 1
    18    8   33 1
    19    9   10 1
    20    9   34 1
    21    9   35 1
    22   10   11 1
    23   10   36 1
    24   10   37 1
    25   11   12 1
    26   11   13 am
    27   12   38 1
    28   12   39 1
    29   13   14 2
    30   13   15 am
    31   15   16 1
    32   15   40 1
    33   16   24 1
    34   16   17 1
    35   16   41 1
    36   17   22 1
    37   17   18 1
    38   17   42 1
    39   18   19 1
    40   18   43 1
    41   18   44 1
    42   19   25 1
    43   19   20 1
    44   19   45 1
    45   20   21 1
    46   20   46 1
    47   20   47 1
    48   21   22 1
    49   21   23 1
    50   21   48 1
    51   22   49 1
    52   22   50 1
    53   23   24 1
    54   23   51 1
    55   23   52 1
    56   24   25 1
    57   24   53 1
    58   25   54 1
    59   25   55 1
@<TRIPOS>MOLECULE
CHEMBL604589
   58    62     0     0     0
SMALL
USER_CHARGES

@<TRIPOS>ATOM
      1 C1         -0.0310    1.3578    0.0036 C.ar      1 <0>        -0.1233
      2 C2          1.1540    2.0695   -0.0059 C.ar      1 <0>        -0.1179
      3 C3          2.3628    1.3991   -0.0201 C.ar      1 <0>        -0.1172
      4 C4          2.3866    0.0169   -0.0243 C.ar      1 <0>        -0.0832
      5 C5          1.2016   -0.6948   -0.0139 C.ar      1 <0>        -0.1153
      6 C6         -0.0072   -0.0243   -0.0011 C.ar      1 <0>        -0.1152
      7 C7          3.7044   -0.7140   -0.0407 C.3       1 <0>        -0.0739
      8 C8          4.1661   -0.9655    1.3961 C.3       1 <0>        -0.0961
      9 C9          5.5591   -1.5990    1.3815 C.3       1 <0>        -0.1148
     10 C10         6.0356   -1.8207    2.8189 C.3       1 <0>        -0.1350
     11 C11         5.0754   -2.7805    3.5285 C.3       1 <0>         0.1113
     12 N1          3.7099   -2.2489    3.4207 N.am      1 <0>        -0.6295
     13 C12         3.1847   -1.9155    2.0896 C.3       1 <0>         0.1325
     14 C13         2.9533   -2.0710    4.5218 C.2       1 <0>         0.7072
     15 O1          1.8621   -1.5425    4.4307 O.2       1 <0>        -0.5850
     16 N2          3.4064   -2.4788    5.7238 N.am      1 <0>        -0.7402
     17 C14         2.5417   -2.3854    6.9027 C.3       1 <0>         0.1772
     18 C15         2.6473   -0.9820    7.5028 C.3       1 <0>        -0.0958
     19 C16         4.0966   -0.7095    7.9105 C.3       1 <0>        -0.1046
     20 C17         4.5371   -1.7428    8.9493 C.3       1 <0>        -0.0871
     21 C18         3.6340   -1.6453   10.1805 C.3       1 <0>        -0.1077
     22 C19         2.1848   -1.9179    9.7728 C.3       1 <0>        -0.0885
     23 C20         1.7442   -0.8845    8.7340 C.3       1 <0>        -0.1066
     24 C21         2.0791   -3.3213    9.1726 C.3       1 <0>        -0.1048
     25 C22         2.9822   -3.4188    7.9414 C.3       1 <0>        -0.0932
     26 C23         4.4315   -3.1463    8.3491 C.3       1 <0>        -0.1079
     27 H1         -0.9753    1.8816    0.0192 H         1 <0>         0.1202
     28 H2          1.1355    3.1493   -0.0027 H         1 <0>         0.1203
     29 H3          3.2887    1.9551   -0.0283 H         1 <0>         0.1191
     30 H4          1.2201   -1.7746   -0.0175 H         1 <0>         0.1196
     31 H5         -0.9331   -0.5804    0.0066 H         1 <0>         0.1210
     32 H6          3.5849   -1.6670   -0.5560 H         1 <0>         0.0749
     33 H7          4.4481   -0.1105   -0.5610 H         1 <0>         0.0771
     34 H8          4.2014   -0.0201    1.9376 H         1 <0>         0.0764
     35 H9          5.5175   -2.5558    0.8610 H         1 <0>         0.0666
     36 H10         6.2543   -0.9357    0.8668 H         1 <0>         0.0682
     37 H11         7.0373   -2.2503    2.8079 H         1 <0>         0.0771
     38 H12         6.0538   -0.8675    3.3473 H         1 <0>         0.0673
     39 H13         5.1239   -3.7616    3.0561 H         1 <0>         0.0700
     40 H14         5.3529   -2.8645    4.5793 H         1 <0>         0.0734
     41 H15         2.2147   -1.4288    2.1910 H         1 <0>         0.0989
     42 H16         3.0790   -2.8261    1.4999 H         1 <0>         0.0625
     43 H17         4.3050   -2.8341    5.8084 H         1 <0>         0.3926
     44 H18         1.5092   -2.5796    6.6122 H         1 <0>         0.0858
     45 H19         2.3335   -0.2458    6.7628 H         1 <0>         0.0759
     46 H20         4.7400   -0.7789    7.0334 H         1 <0>         0.0581
     47 H21         4.1719    0.2903    8.3381 H         1 <0>         0.0614
     48 H22         5.5696   -1.5487    9.2397 H         1 <0>         0.0696
     49 H23         3.9479   -2.3815   10.9205 H         1 <0>         0.0621
     50 H24         3.7093   -0.6455   10.6080 H         1 <0>         0.0624
     51 H25         1.5414   -1.8484   10.6499 H         1 <0>         0.0722
     52 H26         1.8195    0.1153    9.1616 H         1 <0>         0.0649
     53 H27         0.7117   -1.0787    8.4436 H         1 <0>         0.0644
     54 H28         2.3929   -4.0575    9.9126 H         1 <0>         0.0681
     55 H29         1.0466   -3.5155    8.8822 H         1 <0>         0.0658
     56 H30         2.9069   -4.4186    7.5139 H         1 <0>         0.0752
     57 H31         5.0748   -3.2157    7.4720 H         1 <0>         0.0560
     58 H32         4.7453   -3.8824    9.0892 H         1 <0>         0.0674
@<TRIPOS>BOND
     1    1    6 ar
     2    1    2 ar
     3    1   27 1
     4    2    3 ar
     5    2   28 1
     6    3    4 ar
     7    3   29 1
     8    4    5 ar
     9    4    7 1
    10    5    6 ar
    11    5   30 1
    12    6   31 1
    13    7    8 1
    14    7   32 1
    15    7   33 1
    16    8   13 1
    17    8    9 1
    18    8   34 1
    19    9   10 1
    20    9   35 1
    21    9   36 1
    22   10   11 1
    23   10   37 1
    24   10   38 1
    25   11   12 1
    26   11   39 1
    27   11   40 1
    28   12   13 1
    29   12   14 am
    30   13   41 1
    31   13   42 1
    32   14   15 2
    33   14   16 am
    34   16   17 1
    35   16   43 1
    36   17   25 1
    37   17   18 1
    38   17   44 1
    39   18   23 1
    40   18   19 1
    41   18   45 1
    42   19   20 1
    43   19   46 1
    44   19   47 1
    45   20   26 1
    46   20   21 1
    47   20   48 1
    48   21   22 1
    49   21   49 1
    50   21   50 1
    51   22   23 1
    52   22   24 1
    53   22   51 1
    54   23   52 1
    55   23   53 1
    56   24   25 1
    57   24   54 1
    58   24   55 1
    59   25   26 1
    60   25   56 1
    61   26   57 1
    62   26   58 1
@<TRIPOS>MOLECULE
CHEMBL604589__1
   58    62     0     0     0
SMALL
USER_CHARGES

@<TRIPOS>ATOM
      1 C1         -0.0187    1.3777    0.0116 C.ar      1 <0>        -0.1234
      2 C2          1.1693    2.0844    0.0029 C.ar      1 <0>        -0.1150
      3 C3          2.3752    1.4089   -0.0124 C.ar      1 <0>        -0.1150
      4 C4          2.3932    0.0267   -0.0186 C.ar      1 <0>        -0.0837
      5 C5          1.2052   -0.6800   -0.0090 C.ar      1 <0>        -0.1176
      6 C6         -0.0008   -0.0045    0.0049 C.ar      1 <0>        -0.1182
      7 C7          3.7079   -0.7097   -0.0363 C.3       1 <0>        -0.0738
      8 C8          4.1687   -0.9652    1.4002 C.3       1 <0>        -0.0963
      9 C9          5.4402   -1.8168    1.3849 C.3       1 <0>        -0.1148
     10 C10         5.8836   -2.1004    2.8219 C.3       1 <0>        -0.1352
     11 C11         6.1968   -0.7765    3.5261 C.3       1 <0>         0.1112
     12 N1          5.0262    0.1048    3.4186 N.am      1 <0>        -0.6294
     13 C12         4.4626    0.3716    2.0883 C.3       1 <0>         0.1332
     14 C13         4.4796    0.6578    4.5195 C.2       1 <0>         0.7074
     15 O1          3.5695    1.4567    4.4106 O.2       1 <0>        -0.5852
     16 N2          4.9416    0.3251    5.7411 N.am      1 <0>        -0.7403
     17 C14         4.2765    0.8392    6.9409 C.3       1 <0>         0.1772
     18 C15         4.8255    2.2283    7.2727 C.3       1 <0>        -0.0958
     19 C16         6.3316    2.1344    7.5251 C.3       1 <0>        -0.1050
     20 C17         6.5941    1.1886    8.6987 C.3       1 <0>        -0.0870
     21 C18         5.8995    1.7255    9.9517 C.3       1 <0>        -0.1077
     22 C19         4.3934    1.8194    9.6993 C.3       1 <0>        -0.0885
     23 C20         4.1309    2.7652    8.5257 C.3       1 <0>        -0.1066
     24 C21         3.8444    0.4303    9.3675 C.3       1 <0>        -0.1048
     25 C22         4.5390   -0.1066    8.1144 C.3       1 <0>        -0.0931
     26 C23         6.0451   -0.2005    8.3669 C.3       1 <0>        -0.1079
     27 H1         -0.9609    1.9054    0.0281 H         1 <0>         0.1203
     28 H2          1.1552    3.1643    0.0078 H         1 <0>         0.1212
     29 H3          3.3034    1.9611   -0.0198 H         1 <0>         0.1199
     30 H4          1.2192   -1.7599   -0.0142 H         1 <0>         0.1191
     31 H5         -0.9289   -0.5567    0.0120 H         1 <0>         0.1204
     32 H6          3.5843   -1.6615   -0.5529 H         1 <0>         0.0773
     33 H7          4.4541   -0.1085   -0.5557 H         1 <0>         0.0751
     34 H8          3.3849   -1.4906    1.9457 H         1 <0>         0.0761
     35 H9          5.2403   -2.7586    0.8739 H         1 <0>         0.0683
     36 H10         6.2306   -1.2799    0.8603 H         1 <0>         0.0667
     37 H11         5.0840   -2.6154    3.3544 H         1 <0>         0.0675
     38 H12         6.7758   -2.7265    2.8105 H         1 <0>         0.0770
     39 H13         6.4172   -0.9648    4.5769 H         1 <0>         0.0736
     40 H14         7.0554   -0.3034    3.0496 H         1 <0>         0.0702
     41 H15         5.1798    0.9384    1.4945 H         1 <0>         0.0624
     42 H16         3.5387    0.9409    2.1903 H         1 <0>         0.0982
     43 H17         5.7146   -0.2548    5.8259 H         1 <0>         0.3926
     44 H18         3.2035    0.9061    6.7610 H         1 <0>         0.0855
     45 H19         4.6385    2.9021    6.4366 H         1 <0>         0.0762
     46 H20         6.8265    1.7519    6.6324 H         1 <0>         0.0584
     47 H21         6.7228    3.1240    7.7615 H         1 <0>         0.0617
     48 H22         7.6671    1.1217    8.8785 H         1 <0>         0.0696
     49 H23         6.0865    1.0517   10.7878 H         1 <0>         0.0620
     50 H24         6.2906    2.7151   10.1881 H         1 <0>         0.0625
     51 H25         3.8985    2.2019   10.5920 H         1 <0>         0.0722
     52 H26         4.5220    3.7548    8.7621 H         1 <0>         0.0650
     53 H27         3.0579    2.8321    8.3459 H         1 <0>         0.0643
     54 H28         4.0314   -0.2435   10.2036 H         1 <0>         0.0681
     55 H29         2.7714    0.4972    9.1876 H         1 <0>         0.0657
     56 H30         4.1479   -1.0962    7.8780 H         1 <0>         0.0749
     57 H31         6.5400   -0.5830    7.4742 H         1 <0>         0.0560
     58 H32         6.2321   -0.8743    9.2029 H         1 <0>         0.0674
@<TRIPOS>BOND
     1    1    6 ar
     2    1    2 ar
     3    1   27 1
     4    2    3 ar
     5    2   28 1
     6    3    4 ar
     7    3   29 1
     8    4    5 ar
     9    4    7 1
    10    5    6 ar
    11    5   30 1
    12    6   31 1
    13    7    8 1
    14    7   32 1
    15    7   33 1
    16    8   13 1
    17    8    9 1
    18    8   34 1
    19    9   10 1
    20    9   35 1
    21    9   36 1
    22   10   11 1
    23   10   37 1
    24   10   38 1
    25   11   12 1
    26   11   39 1
    27   11   40 1
    28   12   13 1
    29   12   14 am
    30   13   41 1
    31   13   42 1
    32   14   15 2
    33   14   16 am
    34   16   17 1
    35   16   43 1
    36   17   25 1
    37   17   18 1
    38   17   44 1
    39   18   23 1
    40   18   19 1
    41   18   45 1
    42   19   20 1
    43   19   46 1
    44   19   47 1
    45   20   26 1
    46   20   21 1
    47   20   48 1
    48   21   22 1
    49   21   49 1
    50   21   50 1
    51   22   23 1
    52   22   24 1
    53   22   51 1
    54   23   52 1
    55   23   53 1
    56   24   25 1
    57   24   54 1
    58   24   55 1
    59   25   26 1
    60   25   56 1
    61   26   57 1
    62   26   58 1
@<TRIPOS>MOLECULE
CHEMBL603885
   58    62     0     0     0
SMALL
USER_CHARGES

@<TRIPOS>ATOM
      1 C1         -0.0182    1.3722    0.0042 C.ar      1 <0>        -0.1248
      2 C2          1.1692    2.0800   -0.0039 C.ar      1 <0>        -0.1180
      3 C3          2.3758    1.4056   -0.0182 C.ar      1 <0>        -0.1185
      4 C4          2.3951    0.0234   -0.0240 C.ar      1 <0>        -0.0797
      5 C5          1.2077   -0.6844   -0.0150 C.ar      1 <0>        -0.1171
      6 C6          0.0011   -0.0100   -0.0021 C.ar      1 <0>        -0.1181
      7 C7          3.7105   -0.7117   -0.0406 C.3       1 <0>        -0.0767
      8 C8          4.1706   -0.9664    1.3962 C.3       1 <0>        -0.0794
      9 C9          3.1853   -1.9118    2.0871 C.3       1 <0>        -0.1317
     10 C10         3.6301   -2.1370    3.5356 C.3       1 <0>         0.1299
     11 N1          5.0211   -2.6103    3.5350 N.am      1 <0>        -0.6291
     12 C11         6.0351   -1.8223    2.8212 C.3       1 <0>         0.1129
     13 C12         5.5633   -1.6006    1.3807 C.3       1 <0>        -0.1303
     14 C13         5.3604   -3.7455    4.1774 C.2       1 <0>         0.7078
     15 O1          4.5324   -4.3395    4.8406 O.2       1 <0>        -0.5879
     16 N2          6.6176   -4.2222    4.0846 N.am      1 <0>        -0.7402
     17 C14         6.9584   -5.5121    4.6897 C.3       1 <0>         0.1770
     18 C15         7.3016   -5.3077    6.1667 C.3       1 <0>        -0.0961
     19 C16         8.4945   -4.3572    6.2863 C.3       1 <0>        -0.1050
     20 C17         9.7002   -4.9582    5.5610 C.3       1 <0>        -0.0872
     21 C18        10.0561   -6.3053    6.1930 C.3       1 <0>        -0.1078
     22 C19         8.8632   -7.2559    6.0734 C.3       1 <0>        -0.0885
     23 C20         7.6575   -6.6549    6.7987 C.3       1 <0>        -0.1068
     24 C21         8.5200   -7.4602    4.5965 C.3       1 <0>        -0.1049
     25 C22         8.1641   -6.1131    3.9644 C.3       1 <0>        -0.0931
     26 C23         9.3570   -5.1626    4.0841 C.3       1 <0>        -0.1079
     27 H1         -0.9608    1.8990    0.0199 H         1 <0>         0.1205
     28 H2          1.1541    3.1599    0.0006 H         1 <0>         0.1209
     29 H3          3.3034    1.9587   -0.0252 H         1 <0>         0.1199
     30 H4          1.2228   -1.7643   -0.0199 H         1 <0>         0.1206
     31 H5         -0.9265   -0.5631    0.0045 H         1 <0>         0.1212
     32 H6          3.5881   -1.6638   -0.5571 H         1 <0>         0.0724
     33 H7          4.4565   -0.1100   -0.5598 H         1 <0>         0.0737
     34 H8          4.2079   -0.0215    1.9384 H         1 <0>         0.0747
     35 H9          2.1890   -1.4697    2.0770 H         1 <0>         0.0803
     36 H10         3.1659   -2.8657    1.5600 H         1 <0>         0.0663
     37 H11         3.5633   -1.1998    4.0883 H         1 <0>         0.0636
     38 H12         2.9897   -2.8853    4.0024 H         1 <0>         0.0934
     39 H13         6.1644   -0.8595    3.3156 H         1 <0>         0.0701
     40 H14         6.9815   -2.3630    2.8166 H         1 <0>         0.0742
     41 H15         5.5215   -2.5575    0.8603 H         1 <0>         0.0691
     42 H16         6.2596   -0.9371    0.8678 H         1 <0>         0.0769
     43 H17         7.2968   -3.7113    3.6171 H         1 <0>         0.3928
     44 H18         6.1085   -6.1893    4.6045 H         1 <0>         0.0857
     45 H19         6.4426   -4.8796    6.6834 H         1 <0>         0.0762
     46 H20         8.2410   -3.3975    5.8360 H         1 <0>         0.0584
     47 H21         8.7390   -4.2116    7.3385 H         1 <0>         0.0618
     48 H22        10.5501   -4.2810    5.6462 H         1 <0>         0.0697
     49 H23        10.9151   -6.7335    5.6763 H         1 <0>         0.0621
     50 H24        10.3006   -6.1597    7.2452 H         1 <0>         0.0625
     51 H25         9.1167   -8.2156    6.5237 H         1 <0>         0.0722
     52 H26         7.9020   -6.5093    7.8509 H         1 <0>         0.0651
     53 H27         6.8076   -7.3321    6.7135 H         1 <0>         0.0645
     54 H28         9.3790   -7.8884    4.0797 H         1 <0>         0.0681
     55 H29         7.6701   -8.1374    4.5112 H         1 <0>         0.0657
     56 H30         7.9196   -6.2587    2.9122 H         1 <0>         0.0751
     57 H31         9.1035   -4.2028    3.6338 H         1 <0>         0.0560
     58 H32        10.2160   -5.5907    3.5673 H         1 <0>         0.0674
@<TRIPOS>BOND
     1    1    6 ar
     2    1    2 ar
     3    1   27 1
     4    2    3 ar
     5    2   28 1
     6    3    4 ar
     7    3   29 1
     8    4    5 ar
     9    4    7 1
    10    5    6 ar
    11    5   30 1
    12    6   31 1
    13    7    8 1
    14    7   32 1
    15    7   33 1
    16    8   13 1
    17    8    9 1
    18    8   34 1
    19    9   10 1
    20    9   35 1
    21    9   36 1
    22   10   11 1
    23   10   37 1
    24   10   38 1
    25   11   12 1
    26   11   14 am
    27   12   13 1
    28   12   39 1
    29   12   40 1
    30   13   41 1
    31   13   42 1
    32   14   15 2
    33   14   16 am
    34   16   17 1
    35   16   43 1
    36   17   25 1
    37   17   18 1
    38   17   44 1
    39   18   23 1
    40   18   19 1
    41   18   45 1
    42   19   20 1
    43   19   46 1
    44   19   47 1
    45   20   26 1
    46   20   21 1
    47   20   48 1
    48   21   22 1
    49   21   49 1
    50   21   50 1
    51   22   23 1
    52   22   24 1
    53   22   51 1
    54   23   52 1
    55   23   53 1
    56   24   25 1
    57   24   54 1
    58   24   55 1
    59   25   26 1
    60   25   56 1
    61   26   57 1
    62   26   58 1
@<TRIPOS>MOLECULE
CHEMBL597234
   55    59     0     0     0
SMALL
USER_CHARGES

@<TRIPOS>ATOM
      1 C1          8.3342    3.1958   -0.0614 C.ar      1 <0>        -0.1236
      2 C2          6.9600    3.3456   -0.0473 C.ar      1 <0>        -0.1179
      3 C3          6.1432    2.2304   -0.0460 C.ar      1 <0>        -0.1167
      4 C4          6.7004    0.9654   -0.0592 C.ar      1 <0>        -0.0776
      5 C5          8.0746    0.8156   -0.0742 C.ar      1 <0>        -0.1139
      6 C6          8.8915    1.9308   -0.0741 C.ar      1 <0>        -0.1181
      7 C7          5.8099   -0.2503   -0.0568 C.3       1 <0>        -0.0461
      8 C8          6.1027   -1.0943    1.1858 C.3       1 <0>        -0.1260
      9 C9          5.1719   -2.3109    1.2029 C.3       1 <0>         0.1127
     10 N1          5.3176   -3.0356   -0.0669 N.am      1 <0>        -0.6297
     11 C10         5.1462   -2.2971   -1.3255 C.3       1 <0>         0.1296
     12 C11         6.0774   -1.0807   -1.3142 C.3       1 <0>        -0.1260
     13 C12         5.6035   -4.3526   -0.0769 C.2       1 <0>         0.7080
     14 O1          5.6313   -4.9607   -1.1295 O.2       1 <0>        -0.5874
     15 N2          5.8586   -4.9957    1.0797 N.am      1 <0>        -0.7399
     16 C13         6.2776   -6.3994    1.0605 C.3       1 <0>         0.1769
     17 C14         5.0420   -7.2998    1.0026 C.3       1 <0>        -0.0960
     18 C15         4.1676   -7.0454    2.2321 C.3       1 <0>        -0.1050
     19 C16         4.9665   -7.3565    3.4993 C.3       1 <0>        -0.0871
     20 C17         5.4041   -8.8225    3.4792 C.3       1 <0>        -0.1079
     21 C18         6.2785   -9.0768    2.2497 C.3       1 <0>        -0.0886
     22 C19         5.4796   -8.7657    0.9825 C.3       1 <0>        -0.1067
     23 C20         7.5142   -8.1764    2.3076 C.3       1 <0>        -0.1048
     24 C21         7.0765   -6.7105    2.3277 C.3       1 <0>        -0.0932
     25 C22         6.2021   -6.4561    3.5572 C.3       1 <0>        -0.1080
     26 H1          8.9723    4.0670   -0.0669 H         1 <0>         0.1209
     27 H2          6.5247    4.3339   -0.0369 H         1 <0>         0.1217
     28 H3          5.0696    2.3475   -0.0342 H         1 <0>         0.1209
     29 H4          8.5099   -0.1727   -0.0842 H         1 <0>         0.1190
     30 H5          9.9650    1.8137   -0.0854 H         1 <0>         0.1210
     31 H6          4.7663    0.0640   -0.0444 H         1 <0>         0.0810
     32 H7          7.1395   -1.4298    1.1617 H         1 <0>         0.0703
     33 H8          5.9345   -0.4950    2.0806 H         1 <0>         0.0778
     34 H9          5.4422   -2.9663    2.0308 H         1 <0>         0.0756
     35 H10         4.1398   -1.9797    1.3182 H         1 <0>         0.0716
     36 H11         5.3997   -2.9435   -2.1658 H         1 <0>         0.0957
     37 H12         4.1121   -1.9649   -1.4163 H         1 <0>         0.0659
     38 H13         5.8911   -0.4717   -2.1988 H         1 <0>         0.0784
     39 H14         7.1144   -1.4164   -1.3147 H         1 <0>         0.0693
     40 H15         5.7647   -4.5291    1.9249 H         1 <0>         0.3929
     41 H16         6.9006   -6.5806    0.1846 H         1 <0>         0.0859
     42 H17         4.4728   -7.0781    0.0998 H         1 <0>         0.0764
     43 H18         3.8558   -6.0010    2.2464 H         1 <0>         0.0584
     44 H19         3.2873   -7.6869    2.1909 H         1 <0>         0.0618
     45 H20         4.3436   -7.1753    4.3752 H         1 <0>         0.0697
     46 H21         5.9733   -9.0442    4.3820 H         1 <0>         0.0621
     47 H22         4.5239   -9.4639    3.4380 H         1 <0>         0.0625
     48 H23         6.5903  -10.1212    2.2354 H         1 <0>         0.0722
     49 H24         4.5993   -9.4071    0.9413 H         1 <0>         0.0652
     50 H25         6.1026   -8.9469    0.1066 H         1 <0>         0.0645
     51 H26         8.0834   -8.3981    3.2103 H         1 <0>         0.0681
     52 H27         8.1371   -8.3577    1.4316 H         1 <0>         0.0658
     53 H28         7.9568   -6.0690    2.3689 H         1 <0>         0.0751
     54 H29         5.8903   -5.4118    3.5715 H         1 <0>         0.0561
     55 H30         6.7713   -6.6778    4.4599 H         1 <0>         0.0674
@<TRIPOS>BOND
     1    1    6 ar
     2    1    2 ar
     3    1   26 1
     4    2    3 ar
     5    2   27 1
     6    3    4 ar
     7    3   28 1
     8    4    5 ar
     9    4    7 1
    10    5    6 ar
    11    5   29 1
    12    6   30 1
    13    7   12 1
    14    7    8 1
    15    7   31 1
    16    8    9 1
    17    8   32 1
    18    8   33 1
    19    9   10 1
    20    9   34 1
    21    9   35 1
    22   10   11 1
    23   10   13 am
    24   11   12 1
    25   11   36 1
    26   11   37 1
    27   12   38 1
    28   12   39 1
    29   13   14 2
    30   13   15 am
    31   15   16 1
    32   15   40 1
    33   16   24 1
    34   16   17 1
    35   16   41 1
    36   17   22 1
    37   17   18 1
    38   17   42 1
    39   18   19 1
    40   18   43 1
    41   18   44 1
    42   19   25 1
    43   19   20 1
    44   19   45 1
    45   20   21 1
    46   20   46 1
    47   20   47 1
    48   21   22 1
    49   21   23 1
    50   21   48 1
    51   22   49 1
    52   22   50 1
    53   23   24 1
    54   23   51 1
    55   23   52 1
    56   24   25 1
    57   24   53 1
    58   25   54 1
    59   25   55 1
@<TRIPOS>MOLECULE
CHEMBL428931
   53    57     0     0     0
SMALL
USER_CHARGES

@<TRIPOS>ATOM
      1 C1         -0.0668    1.3473    0.0149 C.3       1 <0>        -0.1215
      2 C2          1.3518    1.9197    0.0230 C.3       1 <0>        -0.1196
      3 C3          2.0907    1.4718   -1.2400 C.3       1 <0>        -0.1112
      4 C4          2.1544   -0.0560   -1.2766 C.3       1 <0>        -0.0957
      5 C5          2.9007   -0.5087   -2.5344 C.3       1 <0>         0.1130
      6 N1          2.1124   -0.1331   -3.7159 N.am      1 <0>        -0.6056
      7 C6          0.7079   -0.5585   -3.7910 C.3       1 <0>         0.0822
      8 C7         -0.0140   -0.0981   -2.5210 C.3       1 <0>        -0.1367
      9 C8          0.7335   -0.6246   -1.2932 C.3       1 <0>        -0.0809
     10 C9         -0.0019   -0.1808   -0.0258 C.3       1 <0>        -0.1139
     11 C10         2.6666    0.5869   -4.7113 C.2       1 <0>         0.5258
     12 O1          3.7966    1.0120   -4.5958 O.2       1 <0>        -0.5380
     13 C11         1.8821    0.8639   -5.9679 C.3       1 <0>        -0.0672
     14 C12         1.3520   -0.4528   -6.5389 C.3       1 <0>        -0.1195
     15 C13         0.5556   -0.1716   -7.8146 C.3       1 <0>        -0.0840
     16 C14         1.4642    0.5020   -8.8450 C.3       1 <0>        -0.1102
     17 C15         1.9943    1.8188   -8.2740 C.3       1 <0>        -0.0869
     18 C16         2.7907    1.5376   -6.9982 C.3       1 <0>        -0.0863
     19 C17         0.8194    2.7432   -7.9484 C.3       1 <0>        -0.1100
     20 C18        -0.0892    2.0696   -6.9181 C.3       1 <0>        -0.0839
     21 C19        -0.6193    0.7528   -7.4890 C.3       1 <0>        -0.1103
     22 C20         0.7072    1.7883   -5.6423 C.3       1 <0>        -0.1109
     23 H1         -0.5915    1.6646    0.9161 H         1 <0>         0.0601
     24 H2         -0.6004    1.7116   -0.8630 H         1 <0>         0.0630
     25 H3          1.3041    3.0084    0.0491 H         1 <0>         0.0601
     26 H4          1.8843    1.5584    0.9027 H         1 <0>         0.0609
     27 H5          1.5595    1.8347   -2.1200 H         1 <0>         0.0639
     28 H6          3.1023    1.8778   -1.2327 H         1 <0>         0.0605
     29 H7          2.6803   -0.4187   -0.3934 H         1 <0>         0.0806
     30 H8          3.8751   -0.0221   -2.5759 H         1 <0>         0.0924
     31 H9          3.0316   -1.5906   -2.5117 H         1 <0>         0.0658
     32 H10         0.2356   -0.1076   -4.6638 H         1 <0>         0.1120
     33 H11         0.6585   -1.6448   -3.8662 H         1 <0>         0.0682
     34 H12        -0.0395    0.9913   -2.4918 H         1 <0>         0.0758
     35 H13        -1.0326   -0.4861   -2.5207 H         1 <0>         0.0749
     36 H14         0.7768   -1.7131   -1.3318 H         1 <0>         0.0716
     37 H15         0.5326   -0.5456    0.8513 H         1 <0>         0.0628
     38 H16        -1.0131   -0.5877   -0.0309 H         1 <0>         0.0626
     39 H17         2.1891   -1.1114   -6.7708 H         1 <0>         0.0668
     40 H18         0.7047   -0.9327   -5.8048 H         1 <0>         0.0821
     41 H19         0.1780   -1.1097   -8.2214 H         1 <0>         0.0743
     42 H20         2.3012   -0.1565   -9.0769 H         1 <0>         0.0626
     43 H21         0.8968    0.7024   -9.7539 H         1 <0>         0.0642
     44 H22         2.6416    2.2987   -9.0080 H         1 <0>         0.0739
     45 H23         3.1684    2.4756   -6.5915 H         1 <0>         0.0700
     46 H24         3.6277    0.8790   -7.2302 H         1 <0>         0.0668
     47 H25         1.1970    3.6813   -7.5416 H         1 <0>         0.0630
     48 H26         0.2520    2.9435   -8.8573 H         1 <0>         0.0645
     49 H27        -0.9262    2.7281   -6.6861 H         1 <0>         0.0745
     50 H28        -1.1867    0.9532   -8.3979 H         1 <0>         0.0661
     51 H29        -1.2666    0.2729   -6.7550 H         1 <0>         0.0625
     52 H30         0.0599    1.3084   -4.9083 H         1 <0>         0.0770
     53 H31         1.0849    2.7264   -5.2355 H         1 <0>         0.0678
@<TRIPOS>BOND
     1    1   10 1
     2    1    2 1
     3    1   23 1
     4    1   24 1
     5    2    3 1
     6    2   25 1
     7    2   26 1
     8    3    4 1
     9    3   27 1
    10    3   28 1
    11    4    9 1
    12    4    5 1
    13    4   29 1
    14    5    6 1
    15    5   30 1
    16    5   31 1
    17    6    7 1
    18    6   11 am
    19    7    8 1
    20    7   32 1
    21    7   33 1
    22    8    9 1
    23    8   34 1
    24    8   35 1
    25    9   10 1
    26    9   36 1
    27   10   37 1
    28   10   38 1
    29   11   12 2
    30   11   13 1
    31   13   18 1
    32   13   22 1
    33   13   14 1
    34   14   15 1
    35   14   39 1
    36   14   40 1
    37   15   21 1
    38   15   16 1
    39   15   41 1
    40   16   17 1
    41   16   42 1
    42   16   43 1
    43   17   18 1
    44   17   19 1
    45   17   44 1
    46   18   45 1
    47   18   46 1
    48   19   20 1
    49   19   47 1
    50   19   48 1
    51   20   21 1
    52   20   22 1
    53   20   49 1
    54   21   50 1
    55   21   51 1
    56   22   52 1
    57   22   53 1
@<TRIPOS>MOLECULE
CHEMBL428931__1
   53    57     0     0     0
SMALL
USER_CHARGES

@<TRIPOS>ATOM
      1 C1         -0.1685    1.5209   -0.2031 C.3       1 <0>        -0.1204
      2 C2          1.2658    2.0497   -0.1353 C.3       1 <0>        -0.1190
      3 C3          2.0463    1.5591   -1.3559 C.3       1 <0>        -0.1136
      4 C4          2.0693    0.0290   -1.3685 C.3       1 <0>        -0.0936
      5 C5          2.8421   -0.4511   -2.6018 C.3       1 <0>         0.1143
      6 N1          2.7443   -1.9145   -2.6836 N.am      1 <0>        -0.6085
      7 C6          1.4122   -2.5343   -2.6623 C.3       1 <0>         0.0801
      8 C7          0.6574   -2.0343   -1.4269 C.3       1 <0>        -0.1339
      9 C8          0.6358   -0.5034   -1.4300 C.3       1 <0>        -0.0808
     10 C9         -0.1461   -0.0086   -0.2111 C.3       1 <0>        -0.1139
     11 C10         3.8541   -2.6734   -2.7767 C.2       1 <0>         0.5253
     12 O1          4.9409   -2.1471   -2.8905 O.2       1 <0>        -0.5383
     13 C11         3.7448   -4.1759   -2.7394 C.3       1 <0>        -0.0674
     14 C12         3.0653   -4.6057   -1.4377 C.3       1 <0>        -0.1150
     15 C13         2.9543   -6.1312   -1.3998 C.3       1 <0>        -0.0841
     16 C14         4.3533   -6.7463   -1.4720 C.3       1 <0>        -0.1102
     17 C15         5.0329   -6.3165   -2.7737 C.3       1 <0>        -0.0869
     18 C16         5.1439   -4.7910   -2.8115 C.3       1 <0>        -0.0864
     19 C17         4.2024   -6.7972   -3.9654 C.3       1 <0>        -0.1102
     20 C18         2.8034   -6.1821   -3.8932 C.3       1 <0>        -0.0839
     21 C19         2.1238   -6.6119   -2.5916 C.3       1 <0>        -0.1104
     22 C20         2.9143   -4.6566   -3.9311 C.3       1 <0>        -0.1163
     23 H1         -0.7268    1.8717    0.6649 H         1 <0>         0.0618
     24 H2         -0.6466    1.8822   -1.1135 H         1 <0>         0.0617
     25 H3          1.2514    3.1396   -0.1269 H         1 <0>         0.0630
     26 H4          1.7451    1.6853    0.7733 H         1 <0>         0.0614
     27 H5          1.5658    1.9225   -2.2642 H         1 <0>         0.0642
     28 H6          3.0676    1.9371   -1.3097 H         1 <0>         0.0647
     29 H7          2.5553   -0.3359   -0.4637 H         1 <0>         0.0740
     30 H8          2.4116   -0.0057   -3.4987 H         1 <0>         0.0657
     31 H9          3.8886   -0.1595   -2.5133 H         1 <0>         0.0912
     32 H10         0.8649   -2.2557   -3.5628 H         1 <0>         0.0688
     33 H11         1.5142   -3.6185   -2.6144 H         1 <0>         0.1145
     34 H12        -0.3647   -2.4124   -1.4476 H         1 <0>         0.0770
     35 H13         1.1585   -2.3891   -0.5263 H         1 <0>         0.0689
     36 H14         0.1546   -0.1482   -2.3413 H         1 <0>         0.0723
     37 H15         0.3335   -0.3695    0.6988 H         1 <0>         0.0615
     38 H16        -1.1675   -0.3864   -0.2571 H         1 <0>         0.0627
     39 H17         3.6569   -4.2633   -0.5887 H         1 <0>         0.0669
     40 H18         2.0685   -4.1675   -1.3863 H         1 <0>         0.0809
     41 H19         2.4701   -6.4374   -0.4725 H         1 <0>         0.0745
     42 H20         4.9450   -6.4039   -0.6230 H         1 <0>         0.0627
     43 H21         4.2743   -7.8331   -1.4450 H         1 <0>         0.0645
     44 H22         6.0296   -6.7547   -2.8250 H         1 <0>         0.0740
     45 H23         5.6280   -4.4849   -3.7389 H         1 <0>         0.0691
     46 H24         5.7355   -4.4486   -1.9625 H         1 <0>         0.0680
     47 H25         4.6866   -6.4910   -4.8927 H         1 <0>         0.0631
     48 H26         4.1234   -7.8840   -3.9384 H         1 <0>         0.0646
     49 H27         2.2117   -6.5245   -4.7422 H         1 <0>         0.0748
     50 H28         2.0447   -7.6987   -2.5646 H         1 <0>         0.0664
     51 H29         1.1271   -6.1737   -2.5402 H         1 <0>         0.0626
     52 H30         1.9176   -4.2184   -3.8797 H         1 <0>         0.0793
     53 H31         3.3985   -4.3504   -4.8584 H         1 <0>         0.0681
@<TRIPOS>BOND
     1    1   10 1
     2    1    2 1
     3    1   23 1
     4    1   24 1
     5    2    3 1
     6    2   25 1
     7    2   26 1
     8    3    4 1
     9    3   27 1
    10    3   28 1
    11    4    9 1
    12    4    5 1
    13    4   29 1
    14    5    6 1
    15    5   30 1
    16    5   31 1
    17    6    7 1
    18    6   11 am
    19    7    8 1
    20    7   32 1
    21    7   33 1
    22    8    9 1
    23    8   34 1
    24    8   35 1
    25    9   10 1
    26    9   36 1
    27   10   37 1
    28   10   38 1
    29   11   12 2
    30   11   13 1
    31   13   18 1
    32   13   22 1
    33   13   14 1
    34   14   15 1
    35   14   39 1
    36   14   40 1
    37   15   21 1
    38   15   16 1
    39   15   41 1
    40   16   17 1
    41   16   42 1
    42   16   43 1
    43   17   18 1
    44   17   19 1
    45   17   44 1
    46   18   45 1
    47   18   46 1
    48   19   20 1
    49   19   47 1
    50   19   48 1
    51   20   21 1
    52   20   22 1
    53   20   49 1
    54   21   50 1
    55   21   51 1
    56   22   52 1
    57   22   53 1
@<TRIPOS>MOLECULE
CHEMBL428931__2
   53    57     0     0     0
SMALL
USER_CHARGES

@<TRIPOS>ATOM
      1 C1         -0.0932    1.5583    0.1787 C.3       1 <0>        -0.1203
      2 C2          1.3440    2.0802    0.1198 C.3       1 <0>        -0.1190
      3 C3          2.1219    1.5640    1.3315 C.3       1 <0>        -0.1136
      4 C4          2.1364    0.0338    1.3175 C.3       1 <0>        -0.0936
      5 C5          2.9066   -0.4721    2.5420 C.3       1 <0>         0.1137
      6 N1          2.8006   -1.9361    2.5982 N.am      1 <0>        -0.6088
      7 C6          1.4651   -2.5481    2.5664 C.3       1 <0>         0.0825
      8 C7          0.7130   -2.0223    1.3401 C.3       1 <0>        -0.1335
      9 C8          0.6999   -0.4916    1.3699 C.3       1 <0>        -0.0809
     10 C9         -0.0793    0.0288    0.1600 C.3       1 <0>        -0.1139
     11 C10         3.9063   -2.7027    2.6769 C.2       1 <0>         0.5255
     12 O1          5.0043   -2.1924    2.6068 O.2       1 <0>        -0.5382
     13 C11         3.7783   -4.1940    2.8522 C.3       1 <0>        -0.0673
     14 C12         2.8772   -4.4910    4.0525 C.3       1 <0>        -0.1194
     15 C13         2.7473   -6.0050    4.2304 C.3       1 <0>        -0.0840
     16 C14         4.1316   -6.6112    4.4695 C.3       1 <0>        -0.1103
     17 C15         5.0326   -6.3142    3.2691 C.3       1 <0>        -0.0868
     18 C16         5.1626   -4.8001    3.0912 C.3       1 <0>        -0.0866
     19 C17         4.4193   -6.9251    2.0076 C.3       1 <0>        -0.1101
     20 C18         3.0350   -6.3190    1.7685 C.3       1 <0>        -0.0839
     21 C19         2.1340   -6.6160    2.9689 C.3       1 <0>        -0.1104
     22 C20         3.1650   -4.8050    1.5906 C.3       1 <0>        -0.1112
     23 H1         -0.5691    1.9063    1.0954 H         1 <0>         0.0617
     24 H2         -0.6496    1.9273   -0.6829 H         1 <0>         0.0618
     25 H3          1.8212    1.7290   -0.7951 H         1 <0>         0.0614
     26 H4          1.3357    3.1701    0.1305 H         1 <0>         0.0630
     27 H5          3.1453    1.9371    1.2917 H         1 <0>         0.0647
     28 H6          1.6435    1.9142    2.2462 H         1 <0>         0.0640
     29 H7          2.6203   -0.3180    0.4063 H         1 <0>         0.0741
     30 H8          3.9547   -0.1848    2.4584 H         1 <0>         0.0918
     31 H9          2.4787   -0.0400    3.4466 H         1 <0>         0.0660
     32 H10         1.5611   -3.6318    2.4996 H         1 <0>         0.1128
     33 H11         0.9194   -2.2822    3.4717 H         1 <0>         0.0691
     34 H12         1.2120   -2.3641    0.4333 H         1 <0>         0.0679
     35 H13        -0.3112   -2.3950    1.3543 H         1 <0>         0.0771
     36 H14         0.2208   -0.1497    2.2873 H         1 <0>         0.0723
     37 H15        -1.1028   -0.3441    0.1996 H         1 <0>         0.0627
     38 H16         0.3982   -0.3188   -0.7561 H         1 <0>         0.0614
     39 H17         3.3142   -4.0557    4.9513 H         1 <0>         0.0670
     40 H18         1.8910   -4.0592    3.8822 H         1 <0>         0.0820
     41 H19         2.1054   -6.2166    5.0856 H         1 <0>         0.0745
     42 H20         4.5685   -6.1759    5.3682 H         1 <0>         0.0627
     43 H21         4.0390   -7.6898    4.5962 H         1 <0>         0.0644
     44 H22         6.0188   -6.7460    3.4394 H         1 <0>         0.0741
     45 H23         5.8045   -4.5886    2.2361 H         1 <0>         0.0702
     46 H24         5.5995   -4.3649    3.9900 H         1 <0>         0.0670
     47 H25         5.0612   -6.7136    1.1524 H         1 <0>         0.0631
     48 H26         4.3267   -8.0038    2.1343 H         1 <0>         0.0646
     49 H27         2.5980   -6.7543    0.8697 H         1 <0>         0.0748
     50 H28         2.0414   -7.6946    3.0956 H         1 <0>         0.0663
     51 H29         1.1477   -6.1842    2.7985 H         1 <0>         0.0626
     52 H30         2.1787   -4.3731    1.4203 H         1 <0>         0.0772
     53 H31         3.8069   -4.5934    0.7354 H         1 <0>         0.0681
@<TRIPOS>BOND
     1    1   10 1
     2    1    2 1
     3    1   23 1
     4    1   24 1
     5    2    3 1
     6    2   25 1
     7    2   26 1
     8    3    4 1
     9    3   27 1
    10    3   28 1
    11    4    9 1
    12    4    5 1
    13    4   29 1
    14    5    6 1
    15    5   30 1
    16    5   31 1
    17    6    7 1
    18    6   11 am
    19    7    8 1
    20    7   32 1
    21    7   33 1
    22    8    9 1
    23    8   34 1
    24    8   35 1
    25    9   10 1
    26    9   36 1
    27   10   37 1
    28   10   38 1
    29   11   12 2
    30   11   13 1
    31   13   18 1
    32   13   22 1
    33   13   14 1
    34   14   15 1
    35   14   39 1
    36   14   40 1
    37   15   21 1
    38   15   16 1
    39   15   41 1
    40   16   17 1
    41   16   42 1
    42   16   43 1
    43   17   18 1
    44   17   19 1
    45   17   44 1
    46   18   45 1
    47   18   46 1
    48   19   20 1
    49   19   47 1
    50   19   48 1
    51   20   21 1
    52   20   22 1
    53   20   49 1
    54   21   50 1
    55   21   51 1
    56   22   52 1
    57   22   53 1
@<TRIPOS>MOLECULE
CHEMBL428931__3
   53    57     0     0     0
SMALL
USER_CHARGES

@<TRIPOS>ATOM
      1 C1         -0.1432    1.2794    0.0405 C.3       1 <0>        -0.1216
      2 C2          1.2659    1.8730   -0.0113 C.3       1 <0>        -0.1194
      3 C3          2.0527    1.4299    1.2242 C.3       1 <0>        -0.1123
      4 C4          2.1401   -0.0970    1.2503 C.3       1 <0>        -0.0959
      5 C5          2.9342   -0.5447    2.4803 C.3       1 <0>         0.1138
      6 N1          2.1800   -0.1868    3.6892 N.am      1 <0>        -0.6054
      7 C6          0.7852   -0.6334    3.8084 C.3       1 <0>         0.0798
      8 C7          0.0149   -0.1775    2.5654 C.3       1 <0>        -0.1372
      9 C8          0.7290   -0.6868    1.3107 C.3       1 <0>        -0.0807
     10 C9         -0.0544   -0.2478    0.0708 C.3       1 <0>        -0.1140
     11 C10         2.7561    0.5366    4.6697 C.2       1 <0>         0.5257
     12 O1          3.9343    0.8168    4.6042 O.2       1 <0>        -0.5382
     13 C11         1.9364    0.9972    5.8474 C.3       1 <0>        -0.0672
     14 C12         0.7628    1.8445    5.3517 C.3       1 <0>        -0.1148
     15 C13        -0.0694    2.3122    6.5473 C.3       1 <0>        -0.0840
     16 C14         0.8059    3.1501    7.4815 C.3       1 <0>        -0.1100
     17 C15         1.9794    2.3028    7.9772 C.3       1 <0>        -0.0869
     18 C16         2.8117    1.8351    6.7815 C.3       1 <0>        -0.0861
     19 C17         1.4455    1.0852    8.7343 C.3       1 <0>        -0.1101
     20 C18         0.5702    0.2473    7.8002 C.3       1 <0>        -0.0839
     21 C19        -0.6034    1.0946    7.3045 C.3       1 <0>        -0.1104
     22 C20         1.4024   -0.2204    6.6045 C.3       1 <0>        -0.1164
     23 H1         -0.6527    1.6313    0.9375 H         1 <0>         0.0632
     24 H2         -0.7021    1.5932   -0.8411 H         1 <0>         0.0602
     25 H3          1.7742    1.5240   -0.9101 H         1 <0>         0.0610
     26 H4          1.2012    2.9609   -0.0299 H         1 <0>         0.0603
     27 H5          3.0573    1.8509    1.1857 H         1 <0>         0.0600
     28 H6          1.5456    1.7804    2.1231 H         1 <0>         0.0644
     29 H7          2.6417   -0.4474    0.3482 H         1 <0>         0.0811
     30 H8          3.0802   -1.6244    2.4475 H         1 <0>         0.0656
     31 H9          3.9022   -0.0438    2.4922 H         1 <0>         0.0918
     32 H10         0.7544   -1.7207    3.8792 H         1 <0>         0.0681
     33 H11         0.3355   -0.1940    4.6988 H         1 <0>         0.1138
     34 H12        -0.9973   -0.5807    2.5967 H         1 <0>         0.0748
     35 H13        -0.0276    0.9114    2.5430 H         1 <0>         0.0767
     36 H14         0.7896   -1.7747    1.3420 H         1 <0>         0.0717
     37 H15        -1.0588   -0.6697    0.1071 H         1 <0>         0.0627
     38 H16         0.4561   -0.6002   -0.8255 H         1 <0>         0.0628
     39 H17         1.1432    2.7119    4.8123 H         1 <0>         0.0666
     40 H18         0.1392    1.2476    4.6862 H         1 <0>         0.0807
     41 H19        -0.9055    2.9158    6.1942 H         1 <0>         0.0742
     42 H20         1.1863    4.0175    6.9421 H         1 <0>         0.0626
     43 H21         0.2130    3.4832    8.3333 H         1 <0>         0.0643
     44 H22         2.6030    2.8997    8.6427 H         1 <0>         0.0739
     45 H23         3.6478    1.2315    7.1347 H         1 <0>         0.0689
     46 H24         3.1921    2.7025    6.2421 H         1 <0>         0.0678
     47 H25         2.2815    0.4816    9.0875 H         1 <0>         0.0630
     48 H26         0.8526    1.4184    9.5861 H         1 <0>         0.0644
     49 H27         0.1897   -0.6201    8.3396 H         1 <0>         0.0747
     50 H28        -1.1963    1.4278    8.1563 H         1 <0>         0.0662
     51 H29        -1.2270    0.4976    6.6390 H         1 <0>         0.0625
     52 H30         0.7788   -0.8173    5.9390 H         1 <0>         0.0794
     53 H31         2.2385   -0.8240    6.9577 H         1 <0>         0.0680
@<TRIPOS>BOND
     1    1   10 1
     2    1    2 1
     3    1   23 1
     4    1   24 1
     5    2    3 1
     6    2   25 1
     7    2   26 1
     8    3    4 1
     9    3   27 1
    10    3   28 1
    11    4    9 1
    12    4    5 1
    13    4   29 1
    14    5    6 1
    15    5   30 1
    16    5   31 1
    17    6    7 1
    18    6   11 am
    19    7    8 1
    20    7   32 1
    21    7   33 1
    22    8    9 1
    23    8   34 1
    24    8   35 1
    25    9   10 1
    26    9   36 1
    27   10   37 1
    28   10   38 1
    29   11   12 2
    30   11   13 1
    31   13   18 1
    32   13   22 1
    33   13   14 1
    34   14   15 1
    35   14   39 1
    36   14   40 1
    37   15   21 1
    38   15   16 1
    39   15   41 1
    40   16   17 1
    41   16   42 1
    42   16   43 1
    43   17   18 1
    44   17   19 1
    45   17   44 1
    46   18   45 1
    47   18   46 1
    48   19   20 1
    49   19   47 1
    50   19   48 1
    51   20   21 1
    52   20   22 1
    53   20   49 1
    54   21   50 1
    55   21   51 1
    56   22   52 1
    57   22   53 1
@<TRIPOS>MOLECULE
CHEMBL236476
   40    42     0     0     0
SMALL
USER_CHARGES

@<TRIPOS>ATOM
      1 C1         -0.0187    1.5258    0.0104 C.3       1 <0>        -0.1611
      2 C2          0.0021   -0.0041    0.0020 C.3       1 <0>        -0.1091
      3 C3          0.7182   -0.4975   -1.2568 C.3       1 <0>         0.0161
      4 C4          2.1013    0.1147   -1.3584 C.2       1 <0>         0.5109
      5 O1          3.0214   -0.0121   -0.5748 O.2       1 <0>        -0.4589
      6 N1          2.0954    0.8215   -2.4889 N.2       1 <0>        -0.6458
      7 C5          0.9342    0.7442   -3.0996 C.2       1 <0>         0.6088
      8 O2          0.0517   -0.0211   -2.4375 O.3       1 <0>        -0.3123
      9 N2          0.6567    1.3709   -4.2741 N.pl3     1 <0>        -0.6505
     10 C6          1.6819    2.1874   -4.9287 C.3       1 <0>         0.1584
     11 C7          2.4917    1.3459   -5.9379 C.3       1 <0>        -0.0955
     12 C8          2.8024    2.2888   -7.0806 C.ar      1 <0>        -0.0925
     13 C9          3.7424    2.1927   -8.0931 C.ar      1 <0>        -0.1037
     14 C10         3.8463    3.1907   -9.0420 C.ar      1 <0>        -0.1148
     15 C11         3.0095    4.2896   -8.9819 C.ar      1 <0>        -0.1179
     16 C12         2.0714    4.3872   -7.9731 C.ar      1 <0>        -0.1018
     17 C13         1.9658    3.3874   -7.0205 C.ar      1 <0>        -0.0996
     18 C14         1.0356    3.2580   -5.8334 C.3       1 <0>        -0.0875
     19 C15         0.8000   -2.0253   -1.2639 C.3       1 <0>        -0.1087
     20 C16         1.6269   -2.4861   -2.4660 C.3       1 <0>        -0.1613
     21 H1          1.0039    1.9031    0.0027 H         1 <0>         0.0577
     22 H2         -0.5459    1.8868   -0.8726 H         1 <0>         0.0553
     23 H3         -0.5289    1.8773    0.9072 H         1 <0>         0.0706
     24 H4          0.5293   -0.3651    0.8851 H         1 <0>         0.0961
     25 H5         -1.0205   -0.3814    0.0098 H         1 <0>         0.0850
     26 H6         -0.2200    1.2774   -4.6784 H         1 <0>         0.4215
     27 H7          2.3375    2.6487   -4.1901 H         1 <0>         0.1225
     28 H8          3.4144    0.9903   -5.4794 H         1 <0>         0.0899
     29 H9          1.8962    0.5048   -6.2928 H         1 <0>         0.0866
     30 H10         4.3967    1.3348   -8.1405 H         1 <0>         0.1223
     31 H11         4.5806    3.1129   -9.8301 H         1 <0>         0.1261
     32 H12         3.0895    5.0711   -9.7230 H         1 <0>         0.1261
     33 H13         1.4181    5.2459   -7.9268 H         1 <0>         0.1223
     34 H14         0.0485    2.9312   -6.1602 H         1 <0>         0.0894
     35 H15         0.9642    4.2079   -5.3035 H         1 <0>         0.0904
     36 H16         1.2739   -2.3681   -0.3441 H         1 <0>         0.0963
     37 H17        -0.2046   -2.4426   -1.3325 H         1 <0>         0.0850
     38 H18         1.1531   -2.1433   -3.3858 H         1 <0>         0.0544
     39 H19         2.6315   -2.0688   -2.3974 H         1 <0>         0.0586
     40 H20         1.6852   -3.5745   -2.4710 H         1 <0>         0.0706
@<TRIPOS>BOND
     1    1    2 1
     2    1   21 1
     3    1   22 1
     4    1   23 1
     5    2    3 1
     6    2   24 1
     7    2   25 1
     8    3    8 1
     9    3    4 1
    10    3   19 1
    11    4    5 2
    12    4    6 1
    13    6    7 2
    14    7    8 1
    15    7    9 1
    16    9   10 1
    17    9   26 1
    18   10   18 1
    19   10   11 1
    20   10   27 1
    21   11   12 1
    22   11   28 1
    23   11   29 1
    24   12   17 ar
    25   12   13 ar
    26   13   14 ar
    27   13   30 1
    28   14   15 ar
    29   14   31 1
    30   15   16 ar
    31   15   32 1
    32   16   17 ar
    33   16   33 1
    34   17   18 1
    35   18   34 1
    36   18   35 1
    37   19   20 1
    38   19   36 1
    39   19   37 1
    40   20   38 1
    41   20   39 1
    42   20   40 1
@<TRIPOS>MOLECULE
CHEMBL372945
   59    64     0     0     0
SMALL
USER_CHARGES

@<TRIPOS>ATOM
      1 C1         -1.6490    0.8550   -0.1445 C.3       1 <0>         0.0606
      2 N1         -0.7141   -0.2702   -0.0659 N.pl3     1 <0>        -0.4622
      3 C2         -0.0558   -0.8707   -1.1047 C.2       1 <0>         0.1884
      4 N2          0.6780   -1.8320   -0.5898 N.2       1 <0>        -0.2503
      5 N3          0.5178   -1.8643    0.6852 N.2       1 <0>        -0.2787
      6 C3         -0.3164   -0.9302    1.0557 C.2       1 <0>         0.2004
      7 C4         -0.7597   -0.6387    2.4663 C.3       1 <0>         0.0309
      8 C5         -0.5519    0.8465    2.7695 C.3       1 <0>        -0.1115
      9 C6         -1.0019    1.1424    4.2016 C.3       1 <0>        -0.1017
     10 C7         -1.5097   -0.1455    4.8531 C.3       1 <0>         0.0436
     11 C8         -0.3854   -1.1830    4.8759 C.3       1 <0>        -0.1130
     12 C9          0.0646   -1.4789    3.4438 C.3       1 <0>        -0.0935
     13 C10        -2.6916   -0.6918    4.0497 C.3       1 <0>        -0.1022
     14 C11        -2.2416   -0.9877    2.6176 C.3       1 <0>        -0.1071
     15 C12        -1.9529    0.1460    6.2636 C.2       1 <0>         0.1795
     16 N4         -2.8937    0.9755    6.6188 N.2       1 <0>        -0.2761
     17 N5         -3.0062    0.9751    7.9005 N.2       1 <0>        -0.2716
     18 C13        -2.1336    0.1382    8.4112 C.2       1 <0>         0.2077
     19 O1         -1.4535   -0.4067    7.3827 O.3       1 <0>        -0.2140
     20 C14        -1.9366   -0.1557    9.8464 C.ar      1 <0>        -0.0391
     21 C15        -0.9605   -1.0697   10.2466 C.ar      1 <0>        -0.0531
     22 C16        -0.7810   -1.3404   11.5868 C.ar      1 <0>        -0.1541
     23 C17        -1.5676   -0.7066   12.5358 C.ar      1 <0>         0.1279
     24 C18        -2.5383    0.2017   12.1439 C.ar      1 <0>        -0.1535
     25 C19        -2.7222    0.4840   10.8066 C.ar      1 <0>        -0.0364
     26 F1         -1.3879   -0.9757   13.8475 F         1 <0>        -0.1297
     27 C20        -0.1518   -0.5069   -2.5355 C.ar      1 <0>         0.0332
     28 C21        -0.0249    0.8257   -2.9296 C.ar      1 <0>        -0.1017
     29 C22        -0.1155    1.1584   -4.2653 C.ar      1 <0>        -0.0844
     30 C23        -0.3317    0.1741   -5.2134 C.ar      1 <0>        -0.1042
     31 C24        -0.4583   -1.1487   -4.8292 C.ar      1 <0>        -0.0703
     32 C25        -0.3639   -1.4952   -3.4968 C.ar      1 <0>        -0.1466
     33 C26        -0.4958   -2.9376   -3.0805 C.3       1 <0>         0.5042
     34 F2         -0.7015   -3.7329   -4.2129 F         1 <0>        -0.1792
     35 F3          0.6747   -3.3445   -2.4312 F         1 <0>        -0.1484
     36 F4         -1.5832   -3.0744   -2.2109 F         1 <0>        -0.1790
     37 H1         -1.1096    1.7878    0.0200 H         1 <0>         0.0887
     38 H2         -2.1138    0.8730   -1.1303 H         1 <0>         0.0947
     39 H3         -2.4193    0.7413    0.6183 H         1 <0>         0.0991
     40 H4          0.5038    1.0952    2.6617 H         1 <0>         0.0778
     41 H5         -1.1391    1.4451    2.0731 H         1 <0>         0.0735
     42 H6         -0.1599    1.5316    4.7739 H         1 <0>         0.0754
     43 H7         -1.8029    1.8816    4.1853 H         1 <0>         0.0851
     44 H8          0.4566   -0.7938    5.4482 H         1 <0>         0.0773
     45 H9         -0.7471   -2.1005    5.3400 H         1 <0>         0.0779
     46 H10        -0.0834   -2.5370    3.2278 H         1 <0>         0.0844
     47 H11         1.1203   -1.2303    3.3360 H         1 <0>         0.0802
     48 H12        -3.0533   -1.6093    4.5138 H         1 <0>         0.0760
     49 H13        -3.4925    0.0474    4.0334 H         1 <0>         0.0851
     50 H14        -2.8288   -0.3891    1.9212 H         1 <0>         0.0713
     51 H15        -2.3896   -2.0458    2.4016 H         1 <0>         0.0800
     52 H16        -0.3473   -1.5644    9.5079 H         1 <0>         0.1434
     53 H17        -0.0263   -2.0476   11.8976 H         1 <0>         0.1479
     54 H18        -3.1486    0.6928   12.8873 H         1 <0>         0.1498
     55 H19        -3.4758    1.1953   10.5025 H         1 <0>         0.1513
     56 H20         0.1435    1.5949   -2.1905 H         1 <0>         0.1352
     57 H21        -0.0178    2.1895   -4.5716 H         1 <0>         0.1414
     58 H22        -0.4022    0.4397   -6.2579 H         1 <0>         0.1424
     59 H23        -0.6269   -1.9124   -5.5740 H         1 <0>         0.1474
@<TRIPOS>BOND
     1    1    2 1
     2    1   37 1
     3    1   38 1
     4    1   39 1
     5    2    6 1
     6    2    3 1
     7    3    4 2
     8    3   27 1
     9    4    5 1
    10    5    6 2
    11    6    7 1
    12    7   12 1
    13    7   14 1
    14    7    8 1
    15    8    9 1
    16    8   40 1
    17    8   41 1
    18    9   10 1
    19    9   42 1
    20    9   43 1
    21   10   11 1
    22   10   13 1
    23   10   15 1
    24   11   12 1
    25   11   44 1
    26   11   45 1
    27   12   46 1
    28   12   47 1
    29   13   14 1
    30   13   48 1
    31   13   49 1
    32   14   50 1
    33   14   51 1
    34   15   19 1
    35   15   16 2
    36   16   17 1
    37   17   18 2
    38   18   19 1
    39   18   20 1
    40   20   25 ar
    41   20   21 ar
    42   21   22 ar
    43   21   52 1
    44   22   23 ar
    45   22   53 1
    46   23   24 ar
    47   23   26 1
    48   24   25 ar
    49   24   54 1
    50   25   55 1
    51   27   32 ar
    52   27   28 ar
    53   28   29 ar
    54   28   56 1
    55   29   30 ar
    56   29   57 1
    57   30   31 ar
    58   30   58 1
    59   31   32 ar
    60   31   59 1
    61   32   33 1
    62   33   34 1
    63   33   35 1
    64   33   36 1
@<TRIPOS>MOLECULE
CHEMBL261729
   50    53     0     0     0
SMALL
USER_CHARGES

@<TRIPOS>ATOM
      1 C1          0.3044    1.1902   -0.0512 C.ar      1 <0>        -0.0667
      2 C2          0.7654    1.7101    1.1451 C.ar      1 <0>        -0.1086
      3 C3          1.3671    0.8849    2.0776 C.ar      1 <0>        -0.0551
      4 C4          1.5108   -0.4634    1.8190 C.ar      1 <0>        -0.0263
      5 C5          1.0479   -0.9926    0.6161 C.ar      1 <0>         0.0211
      6 C6          0.4424   -0.1563   -0.3200 C.ar      1 <0>        -0.0992
      7 C7          1.1996   -2.4410    0.3325 C.ar      1 <0>         0.1416
      8 C8          0.0761   -3.2016    0.0005 C.ar      1 <0>        -0.1260
      9 C9          0.2270   -4.5515   -0.2623 C.ar      1 <0>        -0.0734
     10 C10         1.4970   -5.1047   -0.1862 C.ar      1 <0>        -0.0993
     11 C11         2.5756   -4.2899    0.1505 C.ar      1 <0>         0.0955
     12 N1          2.3983   -2.9976    0.3915 N.ar      1 <0>        -0.4120
     13 C12         3.9359   -4.8715    0.2343 C.2       1 <0>         0.5742
     14 O1          4.0866   -6.0758    0.1740 O.2       1 <0>        -0.5243
     15 N2          5.0061   -4.0649    0.3776 N.am      1 <0>        -0.5824
     16 C13         4.8602   -2.6016    0.3374 C.3       1 <0>         0.0656
     17 C14         5.8260   -2.0298   -0.7041 C.3       1 <0>        -0.1345
     18 C15         7.2481   -2.5184   -0.4125 C.3       1 <0>        -0.1168
     19 C16         7.2808   -4.0438   -0.4910 C.3       1 <0>        -0.0969
     20 C17         6.3472   -4.6219    0.5840 C.3       1 <0>         0.1488
     21 C18         6.3213   -6.1445    0.4596 C.3       1 <0>        -0.1049
     22 C19         7.7349   -6.6880    0.6874 C.3       1 <0>        -0.1266
     23 C20         8.6914   -6.0984   -0.3498 C.3       1 <0>        -0.1210
     24 C21         8.6969   -4.5667   -0.2541 C.3       1 <0>        -0.1111
     25 N3          2.1559   -1.3453    2.8176 N.pl3     1 <0>         0.0333
     26 O2          2.6494   -0.8707    3.8140 O.2       1 <0>        -0.1669
     27 O3          2.1892   -2.5403    2.6369 O.3       1 <0>        -0.1308
     28 H1         -0.1684    1.8384   -0.7741 H         1 <0>         0.1488
     29 H2          0.6553    2.7645    1.3513 H         1 <0>         0.1508
     30 H3          1.7255    1.2961    3.0097 H         1 <0>         0.1569
     31 H4          0.0819   -0.5612   -1.2541 H         1 <0>         0.1501
     32 H5         -0.8995   -2.7412   -0.0501 H         1 <0>         0.1424
     33 H6         -0.6258   -5.1617   -0.5209 H         1 <0>         0.1496
     34 H7          1.6478   -6.1554   -0.3853 H         1 <0>         0.1535
     35 H8          3.8365   -2.3449    0.0648 H         1 <0>         0.1510
     36 H9          5.0927   -2.1852    1.3175 H         1 <0>         0.0577
     37 H10         5.5253   -2.3611   -1.6980 H         1 <0>         0.0622
     38 H11         5.8010   -0.9409   -0.6625 H         1 <0>         0.0708
     39 H12         7.9347   -2.1010   -1.1491 H         1 <0>         0.0651
     40 H13         7.5455   -2.1986    0.5862 H         1 <0>         0.0638
     41 H14         6.9371   -4.3629   -1.4750 H         1 <0>         0.0728
     42 H15         6.7094   -4.3418    1.5732 H         1 <0>         0.0731
     43 H16         5.6460   -6.5600    1.2075 H         1 <0>         0.0835
     44 H17         5.9797   -6.4232   -0.5372 H         1 <0>         0.0752
     45 H18         8.0715   -6.4141    1.6874 H         1 <0>         0.0591
     46 H19         7.7248   -7.7740    0.5947 H         1 <0>         0.0654
     47 H20         9.6974   -6.4785   -0.1720 H         1 <0>         0.0620
     48 H21         8.3668   -6.3898   -1.3487 H         1 <0>         0.0600
     49 H22         9.3700   -4.1486   -1.0026 H         1 <0>         0.0661
     50 H23         9.0311   -4.2760    0.7418 H         1 <0>         0.0630
@<TRIPOS>BOND
     1    1    6 ar
     2    1    2 ar
     3    1   28 1
     4    2    3 ar
     5    2   29 1
     6    3    4 ar
     7    3   30 1
     8    4    5 ar
     9    4   25 1
    10    5    6 ar
    11    5    7 1
    12    6   31 1
    13    7   12 ar
    14    7    8 ar
    15    8    9 ar
    16    8   32 1
    17    9   10 ar
    18    9   33 1
    19   10   11 ar
    20   10   34 1
    21   11   12 ar
    22   11   13 1
    23   13   14 2
    24   13   15 am
    25   15   20 1
    26   15   16 1
    27   16   17 1
    28   16   35 1
    29   16   36 1
    30   17   18 1
    31   17   37 1
    32   17   38 1
    33   18   19 1
    34   18   39 1
    35   18   40 1
    36   19   24 1
    37   19   20 1
    38   19   41 1
    39   20   21 1
    40   20   42 1
    41   21   22 1
    42   21   43 1
    43   21   44 1
    44   22   23 1
    45   22   45 1
    46   22   46 1
    47   23   24 1
    48   23   47 1
    49   23   48 1
    50   24   49 1
    51   24   50 1
    52   25   26 2
    53   25   27 1
@<TRIPOS>MOLECULE
CHEMBL261729__1
   50    53     0     0     0
SMALL
USER_CHARGES

@<TRIPOS>ATOM
      1 C1          0.3256    1.2075   -0.0519 C.ar      1 <0>        -0.0668
      2 C2          0.7733    1.7202    1.1525 C.ar      1 <0>        -0.1086
      3 C3          1.3586    0.8881    2.0894 C.ar      1 <0>        -0.0552
      4 C4          1.4991   -0.4598    1.8270 C.ar      1 <0>        -0.0263
      5 C5          1.0496   -0.9817    0.6159 C.ar      1 <0>         0.0211
      6 C6          0.4606   -0.1384   -0.3246 C.ar      1 <0>        -0.0991
      7 C7          1.1978   -2.4296    0.3282 C.ar      1 <0>         0.1420
      8 C8          0.0740   -3.1847   -0.0151 C.ar      1 <0>        -0.1255
      9 C9          0.2218   -4.5342   -0.2817 C.ar      1 <0>        -0.0728
     10 C10         1.4891   -5.0925   -0.1979 C.ar      1 <0>        -0.0992
     11 C11         2.5682   -4.2831    0.1500 C.ar      1 <0>         0.0975
     12 N1          2.3939   -2.9910    0.3943 N.ar      1 <0>        -0.4111
     13 C12         3.9255   -4.8703    0.2421 C.2       1 <0>         0.5748
     14 O1          4.0714   -6.0753    0.1856 O.2       1 <0>        -0.5334
     15 N2          4.9984   -4.0678    0.3887 N.am      1 <0>        -0.5826
     16 C13         4.8552   -2.6059    0.3489 C.3       1 <0>         0.0633
     17 C14         5.8165   -2.0404   -0.7008 C.3       1 <0>        -0.1349
     18 C15         7.2372   -2.5285   -0.4058 C.3       1 <0>        -0.1180
     19 C16         7.2743   -4.0554   -0.4735 C.3       1 <0>        -0.0933
     20 C17         6.3405   -4.6348    0.5985 C.3       1 <0>         0.1458
     21 C18         6.8328   -4.2236    1.9883 C.3       1 <0>        -0.1278
     22 C19         8.2540   -4.7443    2.2067 C.3       1 <0>        -0.1158
     23 C20         9.1823   -4.1424    1.1493 C.3       1 <0>        -0.1222
     24 C21         8.6996   -4.5562   -0.2531 C.3       1 <0>        -0.1120
     25 N3          2.1266   -1.3490    2.8303 N.pl3     1 <0>         0.0334
     26 O2          2.6093   -0.8810    3.8351 O.2       1 <0>        -0.1668
     27 O3          2.1565   -2.5433    2.6449 O.3       1 <0>        -0.1309
     28 H1         -0.1345    1.8611   -0.7782 H         1 <0>         0.1488
     29 H2          0.6657    2.7743    1.3618 H         1 <0>         0.1508
     30 H3          1.7067    1.2937    3.0279 H         1 <0>         0.1569
     31 H4          0.1104   -0.5377   -1.2650 H         1 <0>         0.1501
     32 H5         -0.8994   -2.7203   -0.0716 H         1 <0>         0.1427
     33 H6         -0.6313   -5.1402   -0.5491 H         1 <0>         0.1501
     34 H7          1.6374   -6.1431   -0.3997 H         1 <0>         0.1534
     35 H8          3.8305   -2.3467    0.0826 H         1 <0>         0.1515
     36 H9          5.0963   -2.1889    1.3267 H         1 <0>         0.0584
     37 H10         5.5138   -2.3802   -1.6913 H         1 <0>         0.0617
     38 H11         5.7920   -0.9512   -0.6668 H         1 <0>         0.0700
     39 H12         7.9243   -2.1151   -1.1442 H         1 <0>         0.0635
     40 H13         7.5344   -2.2015    0.5906 H         1 <0>         0.0696
     41 H14         6.9267   -4.3804   -1.4541 H         1 <0>         0.0707
     42 H15         6.3030   -5.7209    0.5138 H         1 <0>         0.1018
     43 H16         6.8287   -3.1365    2.0676 H         1 <0>         0.0684
     44 H17         6.1720   -4.6443    2.7463 H         1 <0>         0.0660
     45 H18         8.5985   -4.4559    3.1997 H         1 <0>         0.0662
     46 H19         8.2606   -5.8309    2.1203 H         1 <0>         0.0646
     47 H20         9.1674   -3.0554    1.2282 H         1 <0>         0.0640
     48 H21        10.1978   -4.5055    1.3073 H         1 <0>         0.0636
     49 H22         8.7187   -5.6429   -0.3355 H         1 <0>         0.0650
     50 H23         9.3561   -4.1248   -1.0086 H         1 <0>         0.0662
@<TRIPOS>BOND
     1    1    6 ar
     2    1    2 ar
     3    1   28 1
     4    2    3 ar
     5    2   29 1
     6    3    4 ar
     7    3   30 1
     8    4    5 ar
     9    4   25 1
    10    5    6 ar
    11    5    7 1
    12    6   31 1
    13    7   12 ar
    14    7    8 ar
    15    8    9 ar
    16    8   32 1
    17    9   10 ar
    18    9   33 1
    19   10   11 ar
    20   10   34 1
    21   11   12 ar
    22   11   13 1
    23   13   14 2
    24   13   15 am
    25   15   20 1
    26   15   16 1
    27   16   17 1
    28   16   35 1
    29   16   36 1
    30   17   18 1
    31   17   37 1
    32   17   38 1
    33   18   19 1
    34   18   39 1
    35   18   40 1
    36   19   24 1
    37   19   20 1
    38   19   41 1
    39   20   21 1
    40   20   42 1
    41   21   22 1
    42   21   43 1
    43   21   44 1
    44   22   23 1
    45   22   45 1
    46   22   46 1
    47   23   24 1
    48   23   47 1
    49   23   48 1
    50   24   49 1
    51   24   50 1
    52   25   26 2
    53   25   27 1
@<TRIPOS>MOLECULE
CHEMBL261729__2
   50    53     0     0     0
SMALL
USER_CHARGES

@<TRIPOS>ATOM
      1 C1          1.6134    0.7219   -3.5996 C.ar      1 <0>        -0.0648
      2 C2          1.9818    1.8128   -2.8328 C.ar      1 <0>        -0.1092
      3 C3          2.2216    1.6637   -1.4789 C.ar      1 <0>        -0.0540
      4 C4          2.0944    0.4240   -0.8853 C.ar      1 <0>        -0.0297
      5 C5          1.7232   -0.6782   -1.6527 C.ar      1 <0>         0.0255
      6 C6          1.4828   -0.5220   -3.0166 C.ar      1 <0>        -0.0976
      7 C7          1.5849   -2.0131   -1.0203 C.ar      1 <0>         0.1499
      8 C8          0.3183   -2.5865   -0.8863 C.ar      1 <0>        -0.1265
      9 C9          0.1988   -3.8317   -0.2953 C.ar      1 <0>        -0.0702
     10 C10         1.3489   -4.4702    0.1458 C.ar      1 <0>        -0.1027
     11 C11         2.5817   -3.8427   -0.0184 C.ar      1 <0>         0.0933
     12 N1          2.6629   -2.6505   -0.5941 N.ar      1 <0>        -0.4246
     13 C12         3.8157   -4.5167    0.4495 C.2       1 <0>         0.5639
     14 O1          3.8282   -5.7218    0.6048 O.2       1 <0>        -0.5067
     15 N2          4.9241   -3.7931    0.7027 N.am      1 <0>        -0.5769
     16 C13         4.8869   -2.3237    0.6687 C.3       1 <0>         0.0711
     17 C14         5.9898   -1.8219   -0.2681 C.3       1 <0>        -0.1304
     18 C15         7.3348   -2.4114    0.1631 C.3       1 <0>        -0.1183
     19 C16         7.2730   -3.9403    0.0609 C.3       1 <0>        -0.0968
     20 C17         6.1943   -4.4536    1.0246 C.3       1 <0>         0.1514
     21 C18         6.0461   -5.9670    0.9009 C.3       1 <0>        -0.1151
     22 C19         5.6842   -6.3392   -0.5379 C.3       1 <0>        -0.1205
     23 C20         6.7906   -5.8535   -1.4774 C.3       1 <0>        -0.1263
     24 C21         6.9089   -4.3237   -1.3756 C.3       1 <0>        -0.1125
     25 N3          2.3523    0.2657    0.5636 N.pl3     1 <0>         0.0349
     26 O2          2.7711    1.1986    1.2085 O.2       1 <0>        -0.1550
     27 O3          2.1442   -0.7966    1.1021 O.3       1 <0>        -0.1485
     28 H1          1.4233    0.8448   -4.6556 H         1 <0>         0.1489
     29 H2          2.0828    2.7845   -3.2932 H         1 <0>         0.1513
     30 H3          2.5093    2.5187   -0.8851 H         1 <0>         0.1576
     31 H4          1.1948   -1.3730   -3.6161 H         1 <0>         0.1495
     32 H5         -0.5581   -2.0635   -1.2397 H         1 <0>         0.1408
     33 H6         -0.7690   -4.2967   -0.1795 H         1 <0>         0.1491
     34 H7          1.2890   -5.4428    0.6115 H         1 <0>         0.1516
     35 H8          3.9162   -1.9914    0.3009 H         1 <0>         0.1430
     36 H9          5.0533   -1.9309    1.6718 H         1 <0>         0.0585
     37 H10         5.7679   -2.1322   -1.2892 H         1 <0>         0.0700
     38 H11         6.0385   -0.7340   -0.2218 H         1 <0>         0.0653
     39 H12         8.1231   -2.0346   -0.4887 H         1 <0>         0.0649
     40 H13         7.5448   -2.1237    1.1932 H         1 <0>         0.0638
     41 H14         8.2430   -4.3650    0.3195 H         1 <0>         0.0827
     42 H15         6.4773   -4.2108    2.0489 H         1 <0>         0.0716
     43 H16         6.9865   -6.4462    1.1732 H         1 <0>         0.0548
     44 H17         5.2589   -6.3097    1.5725 H         1 <0>         0.0953
     45 H18         5.5857   -7.4216   -0.6202 H         1 <0>         0.0552
     46 H19         4.7412   -5.8652   -0.8104 H         1 <0>         0.0869
     47 H20         7.7365   -6.3161   -1.1955 H         1 <0>         0.0574
     48 H21         6.5429   -6.1263   -2.5032 H         1 <0>         0.0550
     49 H22         5.9583   -3.8628   -1.6439 H         1 <0>         0.0654
     50 H23         7.6862   -3.9706   -2.0532 H         1 <0>         0.0580
@<TRIPOS>BOND
     1    1    6 ar
     2    1    2 ar
     3    1   28 1
     4    2    3 ar
     5    2   29 1
     6    3    4 ar
     7    3   30 1
     8    4    5 ar
     9    4   25 1
    10    5    6 ar
    11    5    7 1
    12    6   31 1
    13    7   12 ar
    14    7    8 ar
    15    8    9 ar
    16    8   32 1
    17    9   10 ar
    18    9   33 1
    19   10   11 ar
    20   10   34 1
    21   11   12 ar
    22   11   13 1
    23   13   14 2
    24   13   15 am
    25   15   20 1
    26   15   16 1
    27   16   17 1
    28   16   35 1
    29   16   36 1
    30   17   18 1
    31   17   37 1
    32   17   38 1
    33   18   19 1
    34   18   39 1
    35   18   40 1
    36   19   24 1
    37   19   20 1
    38   19   41 1
    39   20   21 1
    40   20   42 1
    41   21   22 1
    42   21   43 1
    43   21   44 1
    44   22   23 1
    45   22   45 1
    46   22   46 1
    47   23   24 1
    48   23   47 1
    49   23   48 1
    50   24   49 1
    51   24   50 1
    52   25   26 2
    53   25   27 1
@<TRIPOS>MOLECULE
CHEMBL261729__3
   50    53     0     0     0
SMALL
USER_CHARGES

@<TRIPOS>ATOM
      1 C1          0.9173    1.5518   -0.6328 C.ar      1 <0>        -0.0660
      2 C2          1.3007    1.7576   -1.9461 C.ar      1 <0>        -0.1086
      3 C3          1.7489    0.6991   -2.7150 C.ar      1 <0>        -0.0548
      4 C4          1.8162   -0.5696   -2.1753 C.ar      1 <0>        -0.0270
      5 C5          1.4318   -0.7826   -0.8531 C.ar      1 <0>         0.0230
      6 C6          0.9808    0.2878   -0.0829 C.ar      1 <0>        -0.0983
      7 C7          1.5018   -2.1439   -0.2675 C.ar      1 <0>         0.1479
      8 C8          0.3225   -2.8169    0.0603 C.ar      1 <0>        -0.1270
      9 C9          0.3975   -4.0860    0.6059 C.ar      1 <0>        -0.0709
     10 C10         1.6494   -4.6483    0.8093 C.ar      1 <0>        -0.1011
     11 C11         2.7864   -3.9230    0.4603 C.ar      1 <0>         0.0950
     12 N1          2.6804   -2.7101   -0.0660 N.ar      1 <0>        -0.4202
     13 C12         4.1280   -4.5151    0.6737 C.2       1 <0>         0.5748
     14 O1          4.2483   -5.7177    0.7994 O.2       1 <0>        -0.5220
     15 N2          5.2146   -3.7197    0.7284 N.am      1 <0>        -0.5851
     16 C13         5.0918   -2.2613    0.5801 C.3       1 <0>         0.0742
     17 C14         5.7687   -1.5774    1.7711 C.3       1 <0>        -0.1352
     18 C15         7.2082   -2.0829    1.9070 C.3       1 <0>        -0.1167
     19 C16         7.1899   -3.5917    2.1466 C.3       1 <0>        -0.0981
     20 C17         6.5514   -4.2840    0.9435 C.3       1 <0>         0.1494
     21 C18         6.4627   -5.7837    1.2222 C.3       1 <0>        -0.1075
     22 C19         7.8752   -6.3362    1.4343 C.3       1 <0>        -0.1272
     23 C20         8.5385   -5.6269    2.6155 C.3       1 <0>        -0.1215
     24 C21         8.6088   -4.1257    2.3370 C.3       1 <0>        -0.1103
     25 N3          2.2952   -1.7017   -2.9998 N.pl3     1 <0>         0.0330
     26 O2          2.6486   -1.5120   -4.1403 O.2       1 <0>        -0.1621
     27 O3          2.3331   -2.8162   -2.5327 O.3       1 <0>        -0.1381
     28 H1          0.5720    2.3828   -0.0356 H         1 <0>         0.1489
     29 H2          1.2494    2.7486   -2.3725 H         1 <0>         0.1511
     30 H3          2.0466    0.8654   -3.7398 H         1 <0>         0.1573
     31 H4          0.6816    0.1283    0.9425 H         1 <0>         0.1497
     32 H5         -0.6371   -2.3515   -0.1101 H         1 <0>         0.1411
     33 H6         -0.4995   -4.6274    0.8683 H         1 <0>         0.1494
     34 H7          1.7415   -5.6371    1.2338 H         1 <0>         0.1519
     35 H8          5.5764   -1.9470   -0.3443 H         1 <0>         0.0616
     36 H9          4.0377   -1.9854    0.5522 H         1 <0>         0.1409
     37 H10         5.7764   -0.4989    1.6136 H         1 <0>         0.0726
     38 H11         5.2164   -1.8061    2.6825 H         1 <0>         0.0625
     39 H12         7.7583   -1.8662    0.9913 H         1 <0>         0.0640
     40 H13         7.6906   -1.5863    2.7489 H         1 <0>         0.0658
     41 H14         6.5989   -3.8096    3.0361 H         1 <0>         0.0725
     42 H15         7.1656   -4.1119    0.0597 H         1 <0>         0.0724
     43 H16         5.8663   -5.9534    2.1186 H         1 <0>         0.0712
     44 H17         5.9985   -6.2855    0.3732 H         1 <0>         0.0893
     45 H18         7.8189   -7.4054    1.6391 H         1 <0>         0.0651
     46 H19         8.4674   -6.1718    0.5341 H         1 <0>         0.0594
     47 H20         7.9576   -5.8088    3.5197 H         1 <0>         0.0617
     48 H21         9.5479   -6.0152    2.7507 H         1 <0>         0.0617
     49 H22         9.1932   -3.9374    1.4364 H         1 <0>         0.0651
     50 H23         9.0751   -3.6272    3.1868 H         1 <0>         0.0649
@<TRIPOS>BOND
     1    1    6 ar
     2    1    2 ar
     3    1   28 1
     4    2    3 ar
     5    2   29 1
     6    3    4 ar
     7    3   30 1
     8    4    5 ar
     9    4   25 1
    10    5    6 ar
    11    5    7 1
    12    6   31 1
    13    7   12 ar
    14    7    8 ar
    15    8    9 ar
    16    8   32 1
    17    9   10 ar
    18    9   33 1
    19   10   11 ar
    20   10   34 1
    21   11   12 ar
    22   11   13 1
    23   13   14 2
    24   13   15 am
    25   15   20 1
    26   15   16 1
    27   16   17 1
    28   16   35 1
    29   16   36 1
    30   17   18 1
    31   17   37 1
    32   17   38 1
    33   18   19 1
    34   18   39 1
    35   18   40 1
    36   19   24 1
    37   19   20 1
    38   19   41 1
    39   20   21 1
    40   20   42 1
    41   21   22 1
    42   21   43 1
    43   21   44 1
    44   22   23 1
    45   22   45 1
    46   22   46 1
    47   23   24 1
    48   23   47 1
    49   23   48 1
    50   24   49 1
    51   24   50 1
    52   25   26 2
    53   25   27 1
@<TRIPOS>MOLECULE
CHEMBL557417
   46    49     0     0     0
SMALL
USER_CHARGES

@<TRIPOS>ATOM
      1 C1          3.5788    0.1439   -4.2260 C.ar      1 <0>        -0.1202
      2 C2          4.7968    0.0423   -3.5804 C.ar      1 <0>        -0.1130
      3 C3          4.8406   -0.2329   -2.2264 C.ar      1 <0>        -0.1088
      4 C4          3.6663   -0.4061   -1.5180 C.ar      1 <0>        -0.0393
      5 C5          2.4482   -0.3036   -2.1635 C.ar      1 <0>        -0.1171
      6 C6          2.4044   -0.0298   -3.5177 C.ar      1 <0>        -0.1140
      7 C7          3.7140   -0.7070   -0.0421 C.3       1 <0>        -0.1197
      8 C8          3.1681   -2.0592    0.4211 C.3       1 <0>        -0.1320
      9 C9          2.3823   -0.7781    0.7078 C.3       1 <0>        -0.1571
     10 C10         4.9001   -0.1445    0.6979 C.2       1 <0>         0.5697
     11 O1          5.7193   -0.8924    1.1883 O.2       1 <0>        -0.5327
     12 N1          5.0506    1.1897    0.8148 N.am      1 <0>        -0.6095
     13 C11         4.0789    2.2067    0.3713 C.3       1 <0>         0.1031
     14 C12         4.3827    3.4540    1.2402 C.3       1 <0>        -0.1264
     15 C13         5.9219    3.3819    1.3557 C.3       1 <0>        -0.0658
     16 C14         6.2091    1.8735    1.4119 C.3       1 <0>         0.1164
     17 C15         6.3852    4.0624    2.6367 C.3       1 <0>        -0.1043
     18 C16         6.0434    5.5538    2.5766 C.3       1 <0>        -0.1185
     19 C17         6.7274    6.1835    1.3613 C.3       1 <0>        -0.1211
     20 C18         6.2282    5.5059    0.0836 C.3       1 <0>        -0.1200
     21 C19         6.5707    4.0141    0.1320 C.3       1 <0>        -0.1051
     22 H1          3.5445    0.3633   -5.2830 H         1 <0>         0.1234
     23 H2          5.7143    0.1776   -4.1339 H         1 <0>         0.1234
     24 H3          5.7923   -0.3130   -1.7221 H         1 <0>         0.1168
     25 H4          1.5307   -0.4392   -1.6101 H         1 <0>         0.1253
     26 H5          1.4528    0.0499   -4.0221 H         1 <0>         0.1248
     27 H6          2.7745   -2.7311   -0.3416 H         1 <0>         0.1072
     28 H7          3.6670   -2.5422    1.2613 H         1 <0>         0.1088
     29 H8          2.3641   -0.4184    1.7365 H         1 <0>         0.1024
     30 H9          1.4716   -0.6072    0.1336 H         1 <0>         0.1098
     31 H10         4.2247    2.4354   -0.6844 H         1 <0>         0.0698
     32 H11         3.0605    1.8605    0.5479 H         1 <0>         0.0770
     33 H12         4.0709    4.3679    0.7346 H         1 <0>         0.0894
     34 H13         3.9128    3.3715    2.2203 H         1 <0>         0.0775
     35 H14         6.3348    1.5557    2.4469 H         1 <0>         0.0710
     36 H15         7.1089    1.6477    0.8397 H         1 <0>         0.0686
     37 H16         5.8827    3.6088    3.4910 H         1 <0>         0.0656
     38 H17         7.4631    3.9408    2.7431 H         1 <0>         0.0662
     39 H18         4.9638    5.6762    2.4900 H         1 <0>         0.0637
     40 H19         6.3934    6.0439    3.4851 H         1 <0>         0.0633
     41 H20         6.4928    7.2473    1.3235 H         1 <0>         0.0616
     42 H21         7.8064    6.0528    1.4438 H         1 <0>         0.0618
     43 H22         5.1479    5.6285    0.0052 H         1 <0>         0.0646
     44 H23         6.7097    5.9616   -0.7816 H         1 <0>         0.0632
     45 H24         7.6523    3.8916    0.1904 H         1 <0>         0.0659
     46 H25         6.1985    3.5265   -0.7690 H         1 <0>         0.0643
@<TRIPOS>BOND
     1    1    6 ar
     2    1    2 ar
     3    1   22 1
     4    2    3 ar
     5    2   23 1
     6    3    4 ar
     7    3   24 1
     8    4    5 ar
     9    4    7 1
    10    5    6 ar
    11    5   25 1
    12    6   26 1
    13    7    9 1
    14    7    8 1
    15    7   10 1
    16    8    9 1
    17    8   27 1
    18    8   28 1
    19    9   29 1
    20    9   30 1
    21   10   11 2
    22   10   12 am
    23   12   16 1
    24   12   13 1
    25   13   14 1
    26   13   31 1
    27   13   32 1
    28   14   15 1
    29   14   33 1
    30   14   34 1
    31   15   21 1
    32   15   16 1
    33   15   17 1
    34   16   35 1
    35   16   36 1
    36   17   18 1
    37   17   37 1
    38   17   38 1
    39   18   19 1
    40   18   39 1
    41   18   40 1
    42   19   20 1
    43   19   41 1
    44   19   42 1
    45   20   21 1
    46   20   43 1
    47   20   44 1
    48   21   45 1
    49   21   46 1
@<TRIPOS>MOLECULE
CHEMBL497748
   41    44     0     0     0
SMALL
USER_CHARGES

@<TRIPOS>ATOM
      1 C1         -1.4668   -2.8868    1.4506 C.3       1 <0>         0.0668
      2 N1         -0.7403   -1.8791    0.6741 N.pl3     1 <0>        -0.4639
      3 C2         -0.7811   -1.6938   -0.6814 C.2       1 <0>         0.2057
      4 N2          0.0169   -0.6857   -0.9553 N.2       1 <0>        -0.2528
      5 N3          0.5422   -0.2410    0.1304 N.2       1 <0>        -0.2814
      6 C3          0.1100   -0.9300    1.1523 C.2       1 <0>         0.2042
      7 C4          0.4859   -0.7152    2.5957 C.3       1 <0>         0.0358
      8 C5          1.7358    0.1608    2.7830 C.3       1 <0>        -0.1062
      9 C6          2.1438   -0.8001    3.9122 C.3       1 <0>        -0.1380
     10 C7          1.3019   -1.8709    3.1984 C.3       1 <0>        -0.1318
     11 C8         -0.6829   -0.2926    3.4481 C.ar      1 <0>        -0.0603
     12 C9         -1.2989    0.9241    3.2219 C.ar      1 <0>        -0.0889
     13 C10        -2.3709    1.3121    4.0033 C.ar      1 <0>        -0.1057
     14 C11        -2.8274    0.4826    5.0121 C.ar      1 <0>        -0.0316
     15 C12        -2.2104   -0.7349    5.2381 C.ar      1 <0>        -0.1074
     16 C13        -1.1421   -1.1244    4.4523 C.ar      1 <0>        -0.1039
     17 Cl1        -4.1734    0.9696    5.9944 Cl        1 <0>        -0.0652
     18 C14        -1.5723   -2.4792   -1.6535 C.ar      1 <0>        -0.0111
     19 C15        -2.8390   -2.9510   -1.3076 C.ar      1 <0>        -0.0949
     20 C16        -3.5722   -3.6826   -2.2188 C.ar      1 <0>        -0.1131
     21 C17        -3.0542   -3.9497   -3.4739 C.ar      1 <0>        -0.0913
     22 C18        -1.7993   -3.4858   -3.8240 C.ar      1 <0>        -0.1092
     23 C19        -1.0572   -2.7469   -2.9233 C.ar      1 <0>        -0.0017
     24 Cl2         0.5148   -2.1585   -3.3665 Cl        1 <0>        -0.0353
     25 H1         -2.3826   -2.4488    1.8477 H         1 <0>         0.0846
     26 H2         -1.7167   -3.7305    0.8074 H         1 <0>         0.0949
     27 H3         -0.8416   -3.2307    2.2746 H         1 <0>         0.0925
     28 H4          2.4130    0.1436    1.9291 H         1 <0>         0.1004
     29 H5          1.5137    1.1706    3.1280 H         1 <0>         0.0794
     30 H6          3.2103   -1.0241    3.9309 H         1 <0>         0.0786
     31 H7          1.7525   -0.5168    4.8893 H         1 <0>         0.0868
     32 H8          0.7293   -2.5014    3.8787 H         1 <0>         0.0803
     33 H9          1.8604   -2.4436    2.4580 H         1 <0>         0.0901
     34 H10        -0.9423    1.5716    2.4346 H         1 <0>         0.1339
     35 H11        -2.8519    2.2628    3.8266 H         1 <0>         0.1364
     36 H12        -2.5661   -1.3827    6.0256 H         1 <0>         0.1369
     37 H13        -0.6635   -2.0769    4.6255 H         1 <0>         0.1374
     38 H14        -3.2446   -2.7442   -0.3282 H         1 <0>         0.1311
     39 H15        -4.5527   -4.0481   -1.9518 H         1 <0>         0.1369
     40 H16        -3.6325   -4.5232   -4.1832 H         1 <0>         0.1388
     41 H17        -1.4004   -3.6983   -4.8049 H         1 <0>         0.1424
@<TRIPOS>BOND
     1    1    2 1
     2    1   25 1
     3    1   26 1
     4    1   27 1
     5    2    6 1
     6    2    3 1
     7    3    4 2
     8    3   18 1
     9    4    5 1
    10    5    6 2
    11    6    7 1
    12    7   10 1
    13    7    8 1
    14    7   11 1
    15    8    9 1
    16    8   28 1
    17    8   29 1
    18    9   10 1
    19    9   30 1
    20    9   31 1
    21   10   32 1
    22   10   33 1
    23   11   16 ar
    24   11   12 ar
    25   12   13 ar
    26   12   34 1
    27   13   14 ar
    28   13   35 1
    29   14   15 ar
    30   14   17 1
    31   15   16 ar
    32   15   36 1
    33   16   37 1
    34   18   23 ar
    35   18   19 ar
    36   19   20 ar
    37   19   38 1
    38   20   21 ar
    39   20   39 1
    40   21   22 ar
    41   21   40 1
    42   22   23 ar
    43   22   41 1
    44   23   24 1
@<TRIPOS>MOLECULE
CHEMBL375743
   65    68     0     0     0
SMALL
USER_CHARGES

@<TRIPOS>ATOM
      1 C1          0.1472    1.8297    0.1328 C.3       1 <0>        -0.1390
      2 C2          0.1716    0.3005    0.1774 C.3       1 <0>         0.0913
      3 C3          0.8842   -0.1613    1.4501 C.3       1 <0>        -0.1679
      4 C4         -1.2409   -0.2248    0.1737 C.2       1 <0>         0.5293
      5 O1         -1.7913   -0.4916    1.2210 O.2       1 <0>        -0.5351
      6 N1         -1.8925   -0.3980   -0.9933 N.am      1 <0>        -0.7184
      7 C5         -3.2656   -0.9086   -0.9968 C.3       1 <0>         0.1467
      8 C6         -3.2242   -2.4177   -0.8603 C.3       1 <0>        -0.1213
      9 C7         -4.6211   -2.9988   -0.6545 C.3       1 <0>        -0.0928
     10 C8         -5.2230   -3.3479   -2.0247 C.3       1 <0>        -0.1320
     11 H1         -4.7834   -4.2056   -2.5339 H         1 <0>         0.1156
     12 C9         -5.6668   -2.1480   -2.8769 C.3       1 <0>        -0.1123
     13 H2         -5.5355   -2.2082   -3.9573 H         1 <0>         0.1168
     14 C10        -6.7179   -3.0845   -2.2165 C.3       1 <0>        -0.1851
     15 C11        -7.4884   -2.5585   -1.0331 C.2       1 <0>         0.5496
     16 O2         -7.9734   -1.4475   -1.0705 O.2       1 <0>        -0.5357
     17 N2         -7.6386   -3.3226    0.0669 N.am      1 <0>        -0.8524
     18 C12        -5.4305   -0.7663   -2.2471 C.3       1 <0>        -0.0878
     19 C13        -3.9553   -0.4418   -2.2633 C.3       1 <0>        -0.1221
     20 N3          0.8877   -0.2123   -0.9983 N.3       1 <0>        -0.5241
     21 C14         0.8434   -1.6799   -1.0430 C.3       1 <0>         0.0275
     22 C15         1.4394   -2.1655   -2.3686 C.3       1 <0>         0.1281
     23 N4          2.7795   -1.5788   -2.5211 N.pl3     1 <0>        -0.6008
     24 C16         2.9259   -0.1250   -2.3531 C.3       1 <0>         0.1268
     25 C17         2.2714    0.2802   -1.0281 C.3       1 <0>         0.0346
     26 C18         3.8784   -2.3771   -2.8166 C.ar      1 <0>         0.4325
     27 C19         3.6866   -3.7043   -3.1877 C.ar      1 <0>        -0.2417
     28 C20         4.7888   -4.4872   -3.4790 C.ar      1 <0>         0.0178
     29 C21         6.0509   -3.9146   -3.3891 C.ar      1 <0>        -0.3053
     30 C22         6.1678   -2.5913   -3.0146 C.ar      1 <0>         0.2111
     31 N5          5.0979   -1.8663   -2.7477 N.ar      1 <0>        -0.5397
     32 C23         7.2803   -4.7301   -3.6968 C.3       1 <0>         0.5210
     33 F1          7.5856   -4.6181   -5.0575 F         1 <0>        -0.1777
     34 F2          8.3557   -4.2572   -2.9372 F         1 <0>        -0.1776
     35 F3          7.0409   -6.0719   -3.3815 F         1 <0>        -0.1788
     36 H3          1.1688    2.2096    0.1354 H         1 <0>         0.0721
     37 H4         -0.3605    2.1587   -0.7739 H         1 <0>         0.0704
     38 H5         -0.3842    2.2101    1.0052 H         1 <0>         0.0698
     39 H6          0.3529    0.2191    2.3224 H         1 <0>         0.0764
     40 H7          0.9016   -1.2507    1.4818 H         1 <0>         0.0590
     41 H8          1.9059    0.2186    1.4527 H         1 <0>         0.0665
     42 H9         -1.4522   -0.1845   -1.8308 H         1 <0>         0.4081
     43 H10        -3.7942   -0.4955   -0.1377 H         1 <0>         0.0800
     44 H11        -2.7899   -2.8454   -1.7639 H         1 <0>         0.0672
     45 H12        -2.5994   -2.6812   -0.0069 H         1 <0>         0.0677
     46 H13        -4.5553   -3.8998   -0.0446 H         1 <0>         0.0725
     47 H14        -5.2522   -2.2636   -0.1553 H         1 <0>         0.0694
     48 H15        -7.2673   -3.7601   -2.8720 H         1 <0>         0.1334
     49 H16        -7.2508   -4.2112    0.0968 H         1 <0>         0.4024
     50 H17        -8.1346   -2.9840    0.8287 H         1 <0>         0.4025
     51 H18        -5.9778   -0.0102   -2.8102 H         1 <0>         0.0770
     52 H19        -5.7743   -0.7731   -1.2128 H         1 <0>         0.0728
     53 H20        -3.8272    0.6361   -2.3622 H         1 <0>         0.0718
     54 H21        -3.4969   -0.9341   -3.1209 H         1 <0>         0.0704
     55 H22         1.4218   -2.0867   -0.2135 H         1 <0>         0.0473
     56 H23        -0.1908   -2.0151   -0.9647 H         1 <0>         0.0932
     57 H24         1.5146   -3.2529   -2.3597 H         1 <0>         0.0899
     58 H25         0.8038   -1.8463   -3.1946 H         1 <0>         0.0808
     59 H26         3.9838    0.1366   -2.3340 H         1 <0>         0.1035
     60 H27         2.4332    0.3903   -3.1776 H         1 <0>         0.0745
     61 H28         2.2728    1.3666   -0.9390 H         1 <0>         0.0962
     62 H29         2.8299   -0.1538   -0.1988 H         1 <0>         0.0480
     63 H30         2.6905   -4.1176   -3.2472 H         1 <0>         0.1431
     64 H31         4.6708   -5.5207   -3.7695 H         1 <0>         0.1456
     65 H32         7.1474   -2.1422   -2.9431 H         1 <0>         0.1674
@<TRIPOS>BOND
     1    1    2 1
     2    1   36 1
     3    1   37 1
     4    1   38 1
     5    2    3 1
     6    2    4 1
     7    2   20 1
     8    3   39 1
     9    3   40 1
    10    3   41 1
    11    4    5 2
    12    4    6 am
    13    6    7 1
    14    6   42 1
    15    7   19 1
    16    7    8 1
    17    7   43 1
    18    8    9 1
    19    8   44 1
    20    8   45 1
    21    9   10 1
    22    9   46 1
    23    9   47 1
    24   10   11 1
    25   10   14 1
    26   10   12 1
    27   12   13 1
    28   12   14 1
    29   12   18 1
    30   14   15 1
    31   14   48 1
    32   15   16 2
    33   15   17 am
    34   17   49 1
    35   17   50 1
    36   18   19 1
    37   18   51 1
    38   18   52 1
    39   19   53 1
    40   19   54 1
    41   20   25 1
    42   20   21 1
    43   21   22 1
    44   21   55 1
    45   21   56 1
    46   22   23 1
    47   22   57 1
    48   22   58 1
    49   23   24 1
    50   23   26 1
    51   24   25 1
    52   24   59 1
    53   24   60 1
    54   25   61 1
    55   25   62 1
    56   26   31 ar
    57   26   27 ar
    58   27   28 ar
    59   27   63 1
    60   28   29 ar
    61   28   64 1
    62   29   30 ar
    63   29   32 1
    64   30   31 ar
    65   30   65 1
    66   32   33 1
    67   32   34 1
    68   32   35 1
@<TRIPOS>MOLECULE
CHEMBL1076594
   46    48     0     0     0
SMALL
USER_CHARGES

@<TRIPOS>ATOM
      1 C1         -0.0187    1.5258    0.0104 C.3       1 <0>        -0.1397
      2 C2          0.0021   -0.0041    0.0020 C.3       1 <0>        -0.0417
      3 C3          0.7421   -0.5109    1.2415 C.3       1 <0>        -0.1442
      4 C4         -1.4333   -0.5336    0.0129 C.3       1 <0>        -0.1500
      5 C5          0.7074   -0.4901   -1.2379 C.ar      1 <0>         0.0015
      6 C6          0.0361   -1.2843   -2.1485 C.ar      1 <0>        -0.1372
      7 C7          0.6831   -1.7301   -3.2859 C.ar      1 <0>        -0.0211
      8 C8          2.0014   -1.3813   -3.5127 C.ar      1 <0>        -0.6921
      9 C9          2.6724   -0.5863   -2.6025 C.ar      1 <0>        -0.0219
     10 C10         2.0241   -0.1370   -1.4673 C.ar      1 <0>        -0.1315
     11 S1          2.8264   -1.9505   -4.9618 S.o2      1 <0>         2.6855
     12 O1          4.2169   -1.9365   -4.6694 O.2       1 <0>        -0.9355
     13 O2          2.1477   -3.1268   -5.3801 O.2       1 <0>        -0.9354
     14 N1          2.5798   -0.8164   -6.1431 N.pl3     1 <0>        -1.0094
     15 C11         1.4132   -0.9035   -7.0358 C.3       1 <0>         0.0984
     16 C12         0.7567    0.4869   -7.0992 C.3       1 <0>         0.0220
     17 H1         -0.1401    0.4894   -7.7188 H         1 <0>         0.1670
     18 C13         0.4668    0.9393   -5.6502 C.3       1 <0>        -0.1423
     19 C14         1.7473    1.6710   -5.1982 C.3       1 <0>        -0.1429
     20 C15         2.6988    1.5965   -6.4138 C.3       1 <0>         0.0295
     21 H2          3.3300    2.4812   -6.4978 H         1 <0>         0.1671
     22 C16         3.5193    0.3026   -6.3176 C.3       1 <0>         0.0961
     23 N2          1.7871    1.4369   -7.5970 N.4       1 <0>        -0.5200
     24 H3          1.0039    1.9031    0.0027 H         1 <0>         0.0593
     25 H4         -0.5459    1.8868   -0.8726 H         1 <0>         0.0561
     26 H5         -0.5289    1.8773    0.9072 H         1 <0>         0.0680
     27 H6          0.2319   -0.1594    2.1383 H         1 <0>         0.0684
     28 H7          0.7568   -1.6008    1.2356 H         1 <0>         0.0604
     29 H8          1.7647   -0.1336    1.2338 H         1 <0>         0.0603
     30 H9         -1.9605   -0.1726   -0.8702 H         1 <0>         0.0599
     31 H10        -1.4185   -1.6235    0.0069 H         1 <0>         0.0625
     32 H11        -1.9435   -0.1821    0.9097 H         1 <0>         0.0673
     33 H12        -0.9938   -1.5568   -1.9713 H         1 <0>         0.1418
     34 H13         0.1588   -2.3512   -3.9970 H         1 <0>         0.1400
     35 H14         3.7024   -0.3141   -2.7796 H         1 <0>         0.1399
     36 H15         2.5473    0.4872   -0.7580 H         1 <0>         0.1364
     37 H16         1.7342   -1.2051   -8.0329 H         1 <0>         0.1062
     38 H17         0.7016   -1.6293   -6.6421 H         1 <0>         0.1340
     39 H18        -0.3855    1.6184   -5.6285 H         1 <0>         0.1050
     40 H19         0.2796    0.0746   -5.0134 H         1 <0>         0.1086
     41 H20         1.5244    2.7097   -4.9546 H         1 <0>         0.1056
     42 H21         2.1894    1.1658   -4.3394 H         1 <0>         0.1092
     43 H22         4.1828    0.3644   -5.4550 H         1 <0>         0.1335
     44 H23         4.1058    0.1531   -7.2242 H         1 <0>         0.1090
     45 H24         2.2779    1.0455   -8.3869 H         1 <0>         0.4334
     46 H25         1.3659    2.3205   -7.8415 H         1 <0>         0.4330
@<TRIPOS>BOND
     1    1    2 1
     2    1   24 1
     3    1   25 1
     4    1   26 1
     5    2    3 1
     6    2    4 1
     7    2    5 1
     8    3   27 1
     9    3   28 1
    10    3   29 1
    11    4   30 1
    12    4   31 1
    13    4   32 1
    14    5   10 ar
    15    5    6 ar
    16    6    7 ar
    17    6   33 1
    18    7    8 ar
    19    7   34 1
    20    8    9 ar
    21    8   11 1
    22    9   10 ar
    23    9   35 1
    24   10   36 1
    25   11   12 2
    26   11   13 2
    27   11   14 1
    28   14   22 1
    29   14   15 1
    30   15   16 1
    31   15   37 1
    32   15   38 1
    33   16   17 1
    34   16   23 1
    35   16   18 1
    36   18   19 1
    37   18   39 1
    38   18   40 1
    39   19   20 1
    40   19   41 1
    41   19   42 1
    42   20   21 1
    43   20   22 1
    44   20   23 1
    45   22   43 1
    46   22   44 1
    47   23   45 1
    48   23   46 1
@<TRIPOS>MOLECULE
CHEMBL1076594__1
   45    47     0     0     0
SMALL
USER_CHARGES

@<TRIPOS>ATOM
      1 C1         -0.0187    1.5258    0.0104 C.3       1 <0>        -0.1396
      2 C2          0.0021   -0.0041    0.0020 C.3       1 <0>        -0.0386
      3 C3          0.7421   -0.5109    1.2415 C.3       1 <0>        -0.1412
      4 C4         -1.4333   -0.5336    0.0129 C.3       1 <0>        -0.1478
      5 C5          0.7074   -0.4901   -1.2379 C.ar      1 <0>        -0.0094
      6 C6          0.0361   -1.2843   -2.1485 C.ar      1 <0>        -0.1403
      7 C7          0.6831   -1.7301   -3.2859 C.ar      1 <0>        -0.0162
      8 C8          2.0014   -1.3813   -3.5127 C.ar      1 <0>        -0.6810
      9 C9          2.6724   -0.5863   -2.6025 C.ar      1 <0>        -0.0167
     10 C10         2.0241   -0.1370   -1.4673 C.ar      1 <0>        -0.1347
     11 S1          2.8264   -1.9505   -4.9618 S.o2      1 <0>         2.6885
     12 O1          4.2169   -1.9365   -4.6694 O.2       1 <0>        -0.9536
     13 O2          2.1477   -3.1268   -5.3801 O.2       1 <0>        -0.9536
     14 N1          2.5798   -0.8164   -6.1431 N.pl3     1 <0>        -0.9951
     15 C11         1.4132   -0.9035   -7.0358 C.3       1 <0>         0.0895
     16 C12         0.7567    0.4869   -7.0992 C.3       1 <0>         0.0524
     17 H1         -0.1401    0.4894   -7.7188 H         1 <0>         0.1110
     18 C13         0.4668    0.9393   -5.6502 C.3       1 <0>        -0.1170
     19 C14         1.7473    1.6710   -5.1982 C.3       1 <0>        -0.1165
     20 C15         2.6988    1.5965   -6.4138 C.3       1 <0>         0.0521
     21 H2          3.3300    2.4812   -6.4978 H         1 <0>         0.1112
     22 C16         3.5193    0.3026   -6.3176 C.3       1 <0>         0.0910
     23 N2          1.7871    1.4369   -7.5970 N.3       1 <0>        -0.6543
     24 H3          1.0039    1.9031    0.0027 H         1 <0>         0.0591
     25 H4         -0.5459    1.8868   -0.8726 H         1 <0>         0.0583
     26 H5         -0.5289    1.8773    0.9072 H         1 <0>         0.0635
     27 H6          0.2319   -0.1594    2.1383 H         1 <0>         0.0639
     28 H7          0.7568   -1.6008    1.2356 H         1 <0>         0.0584
     29 H8          1.7647   -0.1336    1.2338 H         1 <0>         0.0594
     30 H9         -1.9605   -0.1726   -0.8702 H         1 <0>         0.0608
     31 H10        -1.4185   -1.6235    0.0069 H         1 <0>         0.0608
     32 H11        -1.9435   -0.1821    0.9097 H         1 <0>         0.0630
     33 H12        -0.9938   -1.5568   -1.9713 H         1 <0>         0.1372
     34 H13         0.1588   -2.3512   -3.9970 H         1 <0>         0.1374
     35 H14         3.7024   -0.3141   -2.7796 H         1 <0>         0.1374
     36 H15         2.5473    0.4872   -0.7580 H         1 <0>         0.1318
     37 H16         1.7342   -1.2051   -8.0329 H         1 <0>         0.0785
     38 H17         0.7016   -1.6293   -6.6421 H         1 <0>         0.0942
     39 H18        -0.3855    1.6184   -5.6285 H         1 <0>         0.0724
     40 H19         0.2796    0.0746   -5.0134 H         1 <0>         0.0676
     41 H20         1.5244    2.7097   -4.9546 H         1 <0>         0.0729
     42 H21         2.1894    1.1658   -4.3394 H         1 <0>         0.0680
     43 H22         4.1828    0.3644   -5.4550 H         1 <0>         0.0934
     44 H23         4.1058    0.1531   -7.2242 H         1 <0>         0.0809
     45 H24         2.2742    1.0567   -8.3946 H         1 <0>         0.3411
@<TRIPOS>BOND
     1    1    2 1
     2    1   24 1
     3    1   25 1
     4    1   26 1
     5    2    3 1
     6    2    4 1
     7    2    5 1
     8    3   27 1
     9    3   28 1
    10    3   29 1
    11    4   30 1
    12    4   31 1
    13    4   32 1
    14    5   10 ar
    15    5    6 ar
    16    6    7 ar
    17    6   33 1
    18    7    8 ar
    19    7   34 1
    20    8    9 ar
    21    8   11 1
    22    9   10 ar
    23    9   35 1
    24   10   36 1
    25   11   12 2
    26   11   13 2
    27   11   14 1
    28   14   22 1
    29   14   15 1
    30   15   16 1
    31   15   37 1
    32   15   38 1
    33   16   17 1
    34   16   23 1
    35   16   18 1
    36   18   19 1
    37   18   39 1
    38   18   40 1
    39   19   20 1
    40   19   41 1
    41   19   42 1
    42   20   21 1
    43   20   22 1
    44   20   23 1
    45   22   43 1
    46   22   44 1
    47   23   45 1
@<TRIPOS>MOLECULE
CHEMBL1084304
   39    41     0     0     0
SMALL
USER_CHARGES

@<TRIPOS>ATOM
      1 C1         -0.0167    1.3798    0.0096 C.ar      1 <0>        -0.0855
      2 C2          1.1680    2.0953    0.0022 C.ar      1 <0>        -0.1322
      3 C3          2.3774    1.4332   -0.0134 C.ar      1 <0>        -0.0605
      4 C4          2.4048    0.0349   -0.0211 C.ar      1 <0>        -0.1742
      5 C5          1.2034   -0.6808   -0.0130 C.ar      1 <0>        -0.0731
      6 C6          0.0021   -0.0041    0.0020 C.ar      1 <0>        -0.1328
      7 C7          3.6913   -0.6795   -0.0381 C.2       1 <0>         0.3995
      8 O1          4.7311   -0.0559   -0.0455 O.2       1 <0>        -0.4482
      9 C8          3.7163   -2.1863   -0.0464 C.3       1 <0>        -0.1625
     10 C9          5.1670   -2.6722   -0.0639 C.3       1 <0>        -0.0373
     11 C10         5.1920   -4.1790   -0.0722 C.2       1 <0>        -0.0213
     12 C11         5.1061   -4.9875   -1.1543 C.2       1 <0>        -0.0464
     13 N1          5.1706   -6.2428   -0.6966 N.2       1 <0>        -0.2702
     14 N2          5.2887   -6.2135    0.5840 N.2       1 <0>        -0.0799
     15 N3          5.3109   -4.9957    1.0001 N.pl3     1 <0>        -0.2795
     16 C12         5.4392   -4.5675    2.3952 C.3       1 <0>         0.1345
     17 C13         6.7328   -5.1430    3.0078 C.3       1 <0>        -0.1329
     18 C14         6.3424   -5.4856    4.4670 C.3       1 <0>        -0.1218
     19 C15         4.8972   -6.0223    4.3171 C.3       1 <0>        -0.1227
     20 C16         4.2721   -5.1265    3.2277 C.3       1 <0>        -0.1314
     21 H1         -0.9607    1.9041    0.0260 H         1 <0>         0.1289
     22 H2          1.1452    3.1750    0.0081 H         1 <0>         0.1306
     23 H3          3.3011    1.9929   -0.0199 H         1 <0>         0.1342
     24 H4          1.2164   -1.7607   -0.0192 H         1 <0>         0.1315
     25 H5         -0.9266   -0.5553    0.0082 H         1 <0>         0.1304
     26 H6          3.2178   -2.5629    0.8468 H         1 <0>         0.0995
     27 H7          3.1995   -2.5534   -0.9331 H         1 <0>         0.1090
     28 H8          5.6656   -2.2956   -0.9571 H         1 <0>         0.1020
     29 H9          5.6839   -2.3051    0.8228 H         1 <0>         0.0828
     30 H10         5.0049   -4.6797   -2.1845 H         1 <0>         0.1884
     31 H11         5.4506   -3.4790    2.4519 H         1 <0>         0.1136
     32 H12         7.0405   -6.0422    2.4740 H         1 <0>         0.0864
     33 H13         7.5277   -4.3973    2.9906 H         1 <0>         0.0790
     34 H14         6.9999   -6.2547    4.8723 H         1 <0>         0.0780
     35 H15         6.3600   -4.5924    5.0914 H         1 <0>         0.0739
     36 H16         4.9083   -7.0634    3.9947 H         1 <0>         0.0747
     37 H17         4.3524   -5.9182    5.2554 H         1 <0>         0.0744
     38 H18         3.7175   -4.3094    3.6890 H         1 <0>         0.0817
     39 H19         3.6102   -5.7164    2.5937 H         1 <0>         0.0792
@<TRIPOS>BOND
     1    1    6 ar
     2    1    2 ar
     3    1   21 1
     4    2    3 ar
     5    2   22 1
     6    3    4 ar
     7    3   23 1
     8    4    5 ar
     9    4    7 1
    10    5    6 ar
    11    5   24 1
    12    6   25 1
    13    7    8 2
    14    7    9 1
    15    9   10 1
    16    9   26 1
    17    9   27 1
    18   10   11 1
    19   10   28 1
    20   10   29 1
    21   11   15 1
    22   11   12 2
    23   12   13 1
    24   12   30 1
    25   13   14 2
    26   14   15 1
    27   15   16 1
    28   16   20 1
    29   16   17 1
    30   16   31 1
    31   17   18 1
    32   17   32 1
    33   17   33 1
    34   18   19 1
    35   18   34 1
    36   18   35 1
    37   19   20 1
    38   19   36 1
    39   19   37 1
    40   20   38 1
    41   20   39 1
@<TRIPOS>MOLECULE
CHEMBL406572
   47    49     0     0     0
SMALL
USER_CHARGES

@<TRIPOS>ATOM
      1 C1         -2.0751    1.1954    0.0874 C.3       1 <0>        -0.1197
      2 C2         -1.6472   -0.2493    0.0634 C.ar      1 <0>        -0.1034
      3 C3         -1.5633   -0.9234   -1.1413 C.ar      1 <0>        -0.0950
      4 C4         -1.1724   -2.2466   -1.1695 C.ar      1 <0>        -0.0890
      5 C5         -0.8611   -2.9052    0.0188 C.ar      1 <0>        -0.0293
      6 C6         -0.9462   -2.2233    1.2305 C.ar      1 <0>        -0.1303
      7 C7         -1.3338   -0.8961    1.2476 C.ar      1 <0>         0.0964
      8 F1         -1.4118   -0.2310    2.4209 F         1 <0>        -0.1341
      9 C8         -0.4409   -4.3278   -0.0067 C.ar      1 <0>         0.1626
     10 C9         -0.1366   -4.9802    1.1903 C.ar      1 <0>        -0.1369
     11 C10         0.2539   -6.3070    1.1569 C.ar      1 <0>        -0.0711
     12 C11         0.3297   -6.9460   -0.0723 C.ar      1 <0>        -0.1091
     13 C12         0.0124   -6.2373   -1.2288 C.ar      1 <0>         0.0879
     14 N1         -0.3636   -4.9670   -1.1624 N.ar      1 <0>        -0.4426
     15 C13         0.0904   -6.9110   -2.5463 C.2       1 <0>         0.5722
     16 O1          0.2547   -8.1136   -2.6049 O.2       1 <0>        -0.5318
     17 N2         -0.0210   -6.1901   -3.6795 N.am      1 <0>        -0.5878
     18 C14        -0.1308   -6.8577   -4.9837 C.3       1 <0>         0.1078
     19 C15         0.9501   -6.3005   -5.9154 C.3       1 <0>        -0.1368
     20 C16         0.8284   -4.7762   -5.9773 C.3       1 <0>        -0.1110
     21 C17         1.0445   -4.1884   -4.5809 C.3       1 <0>        -0.0822
     22 C18        -0.0410   -4.7217   -3.6336 C.3       1 <0>         0.0814
     23 C19         0.9552   -2.6626   -4.6498 C.3       1 <0>        -0.1398
     24 C20         2.4249   -4.5970   -4.0628 C.3       1 <0>        -0.1402
     25 H1         -1.1981    1.8357   -0.0068 H         1 <0>         0.0781
     26 H2         -2.7554    1.3867   -0.7425 H         1 <0>         0.0756
     27 H3         -2.5814    1.4089    1.0288 H         1 <0>         0.0722
     28 H4         -1.8045   -0.4132   -2.0621 H         1 <0>         0.1384
     29 H5         -1.1082   -2.7715   -2.1112 H         1 <0>         0.1417
     30 H6         -0.7060   -2.7289    2.1541 H         1 <0>         0.1408
     31 H7         -0.2051   -4.4547    2.1313 H         1 <0>         0.1449
     32 H8          0.4949   -6.8341    2.0683 H         1 <0>         0.1492
     33 H9          0.6316   -7.9812   -0.1318 H         1 <0>         0.1521
     34 H10         0.0127   -7.9308   -4.8581 H         1 <0>         0.0930
     35 H11        -1.1153   -6.6661   -5.4106 H         1 <0>         0.0700
     36 H12         1.9344   -6.5717   -5.5337 H         1 <0>         0.0709
     37 H13         0.8193   -6.7168   -6.9143 H         1 <0>         0.0758
     38 H14         1.5808   -4.3793   -6.6588 H         1 <0>         0.0654
     39 H15        -0.1648   -4.5055   -6.3356 H         1 <0>         0.0644
     40 H16        -1.0184   -4.3594   -3.9526 H         1 <0>         0.0648
     41 H17         0.1617   -4.3850   -2.6169 H         1 <0>         0.1475
     42 H18        -0.0290   -2.3724   -5.0176 H         1 <0>         0.0572
     43 H19         1.1091   -2.2444   -3.6550 H         1 <0>         0.0578
     44 H20         1.7218   -2.2839   -5.3257 H         1 <0>         0.0586
     45 H21         3.1927   -4.2199   -4.7383 H         1 <0>         0.0556
     46 H22         2.5783   -4.1781   -3.0683 H         1 <0>         0.0510
     47 H23         2.4870   -5.6840   -4.0128 H         1 <0>         0.0566
@<TRIPOS>BOND
     1    1    2 1
     2    1   25 1
     3    1   26 1
     4    1   27 1
     5    2    7 ar
     6    2    3 ar
     7    3    4 ar
     8    3   28 1
     9    4    5 ar
    10    4   29 1
    11    5    6 ar
    12    5    9 1
    13    6    7 ar
    14    6   30 1
    15    7    8 1
    16    9   14 ar
    17    9   10 ar
    18   10   11 ar
    19   10   31 1
    20   11   12 ar
    21   11   32 1
    22   12   13 ar
    23   12   33 1
    24   13   14 ar
    25   13   15 1
    26   15   16 2
    27   15   17 am
    28   17   22 1
    29   17   18 1
    30   18   19 1
    31   18   34 1
    32   18   35 1
    33   19   20 1
    34   19   36 1
    35   19   37 1
    36   20   21 1
    37   20   38 1
    38   20   39 1
    39   21   22 1
    40   21   23 1
    41   21   24 1
    42   22   40 1
    43   22   41 1
    44   23   42 1
    45   23   43 1
    46   23   44 1
    47   24   45 1
    48   24   46 1
    49   24   47 1
@<TRIPOS>MOLECULE
CHEMBL258872
   45    47     0     0     0
SMALL
USER_CHARGES

@<TRIPOS>ATOM
      1 C1         -0.8898    1.8664    0.8072 C.3       1 <0>        -0.1472
      2 C2         -0.5413    0.3891    0.6151 C.3       1 <0>        -0.0948
      3 C3         -1.8215   -0.4065    0.3499 C.3       1 <0>        -0.1282
      4 C4         -1.4651   -1.8791    0.1239 C.3       1 <0>         0.1075
      5 N1         -0.6839   -2.3583    1.2722 N.am      1 <0>        -0.5888
      6 C5          0.5179   -1.6123    1.6698 C.3       1 <0>         0.0724
      7 C6          0.1393   -0.1427    1.8786 C.3       1 <0>        -0.1313
      8 C7         -1.0626   -3.4610    1.9484 C.2       1 <0>         0.5722
      9 O1         -2.1291   -3.9886    1.7016 O.2       1 <0>        -0.5333
     10 C8         -0.1786   -4.0299    2.9925 C.ar      1 <0>         0.0853
     11 C9         -0.6527   -5.0443    3.8214 C.ar      1 <0>        -0.1035
     12 C10         0.1858   -5.5664    4.7934 C.ar      1 <0>        -0.0740
     13 C11         1.4699   -5.0557    4.9028 C.ar      1 <0>        -0.1260
     14 C12         1.8747   -4.0462    4.0443 C.ar      1 <0>         0.1332
     15 N2          1.0600   -3.5726    3.1268 N.ar      1 <0>        -0.4338
     16 C13         3.2697   -3.4878    4.1592 C.3       1 <0>        -0.0557
     17 S1          4.3901   -4.4351    3.0925 S.3       1 <0>        -0.0870
     18 C14         5.9586   -3.6700    3.3356 C.ar      1 <0>        -0.1230
     19 C15         6.3494   -2.6091    2.5267 C.ar      1 <0>         0.0167
     20 C16         7.5804   -2.0116    2.7205 C.ar      1 <0>        -0.1169
     21 C17         8.4232   -2.4679    3.7176 C.ar      1 <0>        -0.0662
     22 C18         8.0382   -3.5234    4.5241 C.ar      1 <0>        -0.1170
     23 C19         6.8062   -4.1220    4.3406 C.ar      1 <0>         0.0163
     24 Cl1         6.3209   -5.4418    5.3586 Cl        1 <0>        -0.0336
     25 Cl2         5.2926   -2.0358    1.2744 Cl        1 <0>        -0.0292
     26 H1          0.0220    2.4334    0.9949 H         1 <0>         0.0551
     27 H2         -1.3745    2.2453   -0.0925 H         1 <0>         0.0552
     28 H3         -1.5651    1.9730    1.6561 H         1 <0>         0.0537
     29 H4          0.1345    0.2827   -0.2335 H         1 <0>         0.0713
     30 H5         -2.4874   -0.3210    1.2086 H         1 <0>         0.0668
     31 H6         -2.3178   -0.0120   -0.5367 H         1 <0>         0.0759
     32 H7         -2.3789   -2.4664    0.0330 H         1 <0>         0.0933
     33 H8         -0.8737   -1.9764   -0.7866 H         1 <0>         0.0698
     34 H9          0.9125   -2.0236    2.5989 H         1 <0>         0.1469
     35 H10         1.2710   -1.6878    0.8855 H         1 <0>         0.0648
     36 H11         1.0385    0.4395    2.0799 H         1 <0>         0.0735
     37 H12        -0.5451   -0.0597    2.7229 H         1 <0>         0.0625
     38 H13        -1.6596   -5.4182    3.7083 H         1 <0>         0.1522
     39 H14        -0.1535   -6.3531    5.4510 H         1 <0>         0.1490
     40 H15         2.1480   -5.4405    5.6501 H         1 <0>         0.1453
     41 H16         3.2695   -2.4429    3.8490 H         1 <0>         0.1052
     42 H17         3.6057   -3.5595    5.1937 H         1 <0>         0.1035
     43 H18         7.8849   -1.1876    2.0923 H         1 <0>         0.1467
     44 H19         9.3846   -1.9990    3.8666 H         1 <0>         0.1485
     45 H20         8.6994   -3.8773    5.3012 H         1 <0>         0.1466
@<TRIPOS>BOND
     1    1    2 1
     2    1   26 1
     3    1   27 1
     4    1   28 1
     5    2    7 1
     6    2    3 1
     7    2   29 1
     8    3    4 1
     9    3   30 1
    10    3   31 1
    11    4    5 1
    12    4   32 1
    13    4   33 1
    14    5    6 1
    15    5    8 am
    16    6    7 1
    17    6   34 1
    18    6   35 1
    19    7   36 1
    20    7   37 1
    21    8    9 2
    22    8   10 1
    23   10   15 ar
    24   10   11 ar
    25   11   12 ar
    26   11   38 1
    27   12   13 ar
    28   12   39 1
    29   13   14 ar
    30   13   40 1
    31   14   15 ar
    32   14   16 1
    33   16   17 1
    34   16   41 1
    35   16   42 1
    36   17   18 1
    37   18   23 ar
    38   18   19 ar
    39   19   20 ar
    40   19   25 1
    41   20   21 ar
    42   20   43 1
    43   21   22 ar
    44   21   44 1
    45   22   23 ar
    46   22   45 1
    47   23   24 1
@<TRIPOS>MOLECULE
CHEMBL1083423
   38    40     0     0     0
SMALL
USER_CHARGES

@<TRIPOS>ATOM
      1 C1          1.1113    1.1848   -1.9853 C.ar      1 <0>        -0.1185
      2 C2          2.3725    1.7479   -1.9286 C.ar      1 <0>        -0.1174
      3 C3          3.4676    0.9613   -1.6239 C.ar      1 <0>        -0.1081
      4 C4          3.3014   -0.3884   -1.3754 C.ar      1 <0>        -0.0796
      5 C5          2.0401   -0.9513   -1.4311 C.ar      1 <0>        -0.1088
      6 C6          0.9452   -0.1650   -1.7373 C.ar      1 <0>        -0.1182
      7 C7          4.4954   -1.2461   -1.0441 C.3       1 <0>        -0.1313
      8 C8          4.7092   -1.2550    0.4476 C.2       1 <0>         0.3624
      9 O1          3.9684   -0.6294    1.1675 O.2       1 <0>        -0.4346
     10 C9          5.8474   -2.0446    1.0410 C.3       1 <0>        -0.1683
     11 C10         5.8398   -1.8853    2.5627 C.3       1 <0>        -0.0413
     12 C11         6.9810   -2.6709    3.1557 C.2       1 <0>         0.2549
     13 N1          8.1608   -2.2050    3.4723 N.2       1 <0>        -0.3233
     14 N2          8.9009   -3.1368    3.9554 N.2       1 <0>        -0.0322
     15 N3          8.2533   -4.2516    3.9811 N.2       1 <0>        -0.0735
     16 N4          6.9730   -3.9858    3.4642 N.pl3     1 <0>        -0.3303
     17 C12         5.9152   -4.8925    3.3012 C.ar      1 <0>         0.1193
     18 C13         4.6238   -4.5252    3.6538 C.ar      1 <0>        -0.1132
     19 C14         3.5842   -5.4201    3.4922 C.ar      1 <0>        -0.0980
     20 C15         3.8289   -6.6811    2.9802 C.ar      1 <0>        -0.1011
     21 C16         5.1143   -7.0498    2.6281 C.ar      1 <0>        -0.1004
     22 C17         6.1569   -6.1569    2.7817 C.ar      1 <0>        -0.0939
     23 H1          0.2551    1.8002   -2.2190 H         1 <0>         0.1223
     24 H2          2.5023    2.8023   -2.1228 H         1 <0>         0.1231
     25 H3          4.4530    1.4011   -1.5803 H         1 <0>         0.1204
     26 H4          1.9104   -2.0058   -1.2373 H         1 <0>         0.1192
     27 H5         -0.0402   -0.6049   -1.7812 H         1 <0>         0.1226
     28 H6          4.3193   -2.2640   -1.3920 H         1 <0>         0.1093
     29 H7          5.3805   -0.8422   -1.5356 H         1 <0>         0.1107
     30 H8          5.7310   -3.0978    0.7854 H         1 <0>         0.1023
     31 H9          6.7923   -1.6761    0.6418 H         1 <0>         0.1126
     32 H10         5.9525   -0.8317    2.8183 H         1 <0>         0.1202
     33 H11         4.8964   -2.2572    2.9623 H         1 <0>         0.1044
     34 H12         4.4322   -3.5407    4.0544 H         1 <0>         0.1357
     35 H13         2.5793   -5.1349    3.7663 H         1 <0>         0.1401
     36 H14         3.0146   -7.3795    2.8554 H         1 <0>         0.1365
     37 H15         5.3025   -8.0355    2.2288 H         1 <0>         0.1395
     38 H16         7.1598   -6.4438    2.5020 H         1 <0>         0.1368
@<TRIPOS>BOND
     1    1    6 ar
     2    1    2 ar
     3    1   23 1
     4    2    3 ar
     5    2   24 1
     6    3    4 ar
     7    3   25 1
     8    4    5 ar
     9    4    7 1
    10    5    6 ar
    11    5   26 1
    12    6   27 1
    13    7    8 1
    14    7   28 1
    15    7   29 1
    16    8    9 2
    17    8   10 1
    18   10   11 1
    19   10   30 1
    20   10   31 1
    21   11   12 1
    22   11   32 1
    23   11   33 1
    24   12   16 1
    25   12   13 2
    26   13   14 1
    27   14   15 2
    28   15   16 1
    29   16   17 1
    30   17   22 ar
    31   17   18 ar
    32   18   19 ar
    33   18   34 1
    34   19   20 ar
    35   19   35 1
    36   20   21 ar
    37   20   36 1
    38   21   22 ar
    39   21   37 1
    40   22   38 1
@<TRIPOS>MOLECULE
CHEMBL472116
   43    44     0     0     0
SMALL
USER_CHARGES

@<TRIPOS>ATOM
      1 C1         -0.4063    1.4565    0.2791 C.3       1 <0>        -0.1893
      2 C2         -0.1906   -0.0526    0.1487 C.3       1 <0>         0.1510
      3 H1         -1.1295   -0.5734    0.3361 H         1 <0>         0.0771
      4 C3          0.3056   -0.3802   -1.2631 C.3       1 <0>        -0.1282
      5 C4          0.6517   -1.8687   -1.3452 C.3       1 <0>        -0.1203
      6 C5          1.7720   -2.1892   -0.3530 C.3       1 <0>        -0.1326
      7 C6          1.2924   -1.8820    1.0691 C.3       1 <0>         0.1139
      8 N1          0.8190   -0.4917    1.1216 N.pl3     1 <0>        -0.9916
      9 S1          1.4150    0.5610    2.2525 S.o2      1 <0>         2.6875
     10 O1          2.6208   -0.0092    2.7426 O.2       1 <0>        -0.9546
     11 O2          1.3668    1.8552    1.6679 O.2       1 <0>        -0.9467
     12 C7          0.2803    0.5748    3.6005 C.ar      1 <0>        -0.6646
     13 C8         -0.7708    1.4726    3.6099 C.ar      1 <0>        -0.0217
     14 C9         -1.6610    1.4834    4.6674 C.ar      1 <0>        -0.1154
     15 C10        -1.5004    0.5962    5.7152 C.ar      1 <0>        -0.0807
     16 C11        -0.4498   -0.3022    5.7053 C.ar      1 <0>        -0.1124
     17 C12         0.4379   -0.3159    4.6458 C.ar      1 <0>        -0.0171
     18 C13        -2.4703    0.6087    6.8686 C.3       1 <0>         0.1394
     19 C14        -1.7524    0.1615    8.1435 C.3       1 <0>        -0.1510
     20 C15        -3.6272   -0.3478    6.5724 C.3       1 <0>         0.4276
     21 F1         -3.1282   -1.6429    6.3968 F         1 <0>        -0.1730
     22 F2         -4.5276   -0.3362    7.6431 F         1 <0>        -0.1691
     23 F3         -4.2836    0.0612    5.4067 F         1 <0>        -0.1798
     24 O3         -2.9800    1.9316    7.0480 O.3       1 <0>        -0.5172
     25 H2          0.4928    1.9813   -0.0438 H         1 <0>         0.1005
     26 H3         -1.2473    1.7586   -0.3450 H         1 <0>         0.0722
     27 H4         -0.6180    1.7047    1.3192 H         1 <0>         0.0618
     28 H5         -0.4760   -0.1480   -1.9865 H         1 <0>         0.0772
     29 H6          1.1935    0.2124   -1.4834 H         1 <0>         0.0712
     30 H7         -0.2303   -2.4607   -1.1007 H         1 <0>         0.0648
     31 H8          0.9817   -2.1096   -2.3558 H         1 <0>         0.0677
     32 H9          2.0340   -3.2445   -0.4286 H         1 <0>         0.0782
     33 H10         2.6461   -1.5795   -0.5819 H         1 <0>         0.0695
     34 H11         0.4757   -2.5541    1.3325 H         1 <0>         0.0712
     35 H12         2.1173   -2.0140    1.7694 H         1 <0>         0.0966
     36 H13        -0.8963    2.1658    2.7913 H         1 <0>         0.1518
     37 H14        -2.4818    2.1853    4.6752 H         1 <0>         0.1358
     38 H15        -0.3242   -0.9951    6.5241 H         1 <0>         0.1434
     39 H16         1.2565   -1.0203    4.6363 H         1 <0>         0.1470
     40 H17        -0.9282    0.8429    8.3545 H         1 <0>         0.0940
     41 H18        -2.4540    0.1705    8.9777 H         1 <0>         0.0871
     42 H19        -1.3636   -0.8476    8.0067 H         1 <0>         0.0908
     43 H20        -3.4485    2.2805    6.2774 H         1 <0>         0.3877
@<TRIPOS>BOND
     1    1    2 1
     2    1   25 1
     3    1   26 1
     4    1   27 1
     5    2    3 1
     6    2    8 1
     7    2    4 1
     8    4    5 1
     9    4   28 1
    10    4   29 1
    11    5    6 1
    12    5   30 1
    13    5   31 1
    14    6    7 1
    15    6   32 1
    16    6   33 1
    17    7    8 1
    18    7   34 1
    19    7   35 1
    20    8    9 1
    21    9   10 2
    22    9   11 2
    23    9   12 1
    24   12   17 ar
    25   12   13 ar
    26   13   14 ar
    27   13   36 1
    28   14   15 ar
    29   14   37 1
    30   15   16 ar
    31   15   18 1
    32   16   17 ar
    33   16   38 1
    34   17   39 1
    35   18   19 1
    36   18   20 1
    37   18   24 1
    38   19   40 1
    39   19   41 1
    40   19   42 1
    41   20   21 1
    42   20   22 1
    43   20   23 1
    44   24   43 1
@<TRIPOS>MOLECULE
CHEMBL472116__1
   43    44     0     0     0
SMALL
USER_CHARGES

@<TRIPOS>ATOM
      1 C1         -0.4063    1.4565    0.2791 C.3       1 <0>        -0.1895
      2 C2         -0.1906   -0.0526    0.1487 C.3       1 <0>         0.1513
      3 H1         -1.1295   -0.5734    0.3361 H         1 <0>         0.0771
      4 C3          0.3056   -0.3802   -1.2631 C.3       1 <0>        -0.1284
      5 C4          0.6517   -1.8687   -1.3452 C.3       1 <0>        -0.1201
      6 C5          1.7720   -2.1892   -0.3530 C.3       1 <0>        -0.1328
      7 C6          1.2924   -1.8820    1.0691 C.3       1 <0>         0.1141
      8 N1          0.8190   -0.4917    1.1216 N.pl3     1 <0>        -0.9915
      9 S1          1.4150    0.5610    2.2525 S.o2      1 <0>         2.6873
     10 O1          2.6208   -0.0092    2.7426 O.2       1 <0>        -0.9544
     11 O2          1.3668    1.8552    1.6679 O.2       1 <0>        -0.9466
     12 C7          0.2803    0.5748    3.6005 C.ar      1 <0>        -0.6645
     13 C8         -0.7708    1.4726    3.6099 C.ar      1 <0>        -0.0217
     14 C9         -1.6610    1.4834    4.6674 C.ar      1 <0>        -0.1154
     15 C10        -1.5004    0.5962    5.7152 C.ar      1 <0>        -0.0807
     16 C11        -0.4498   -0.3022    5.7053 C.ar      1 <0>        -0.1124
     17 C12         0.4379   -0.3159    4.6458 C.ar      1 <0>        -0.0171
     18 C13        -2.4703    0.6087    6.8686 C.3       1 <0>         0.1395
     19 C14        -2.5811   -0.7992    7.4571 C.3       1 <0>        -0.1503
     20 C15        -1.9699    1.5736    7.9453 C.3       1 <0>         0.4270
     21 F1         -1.8686    2.8610    7.4072 F         1 <0>        -0.1793
     22 F2         -2.8703    1.5853    9.0160 F         1 <0>        -0.1692
     23 F3         -0.7132    1.1570    8.3973 F         1 <0>        -0.1725
     24 O3         -3.7540    1.0343    6.4069 O.3       1 <0>        -0.5176
     25 H2          0.4928    1.9813   -0.0438 H         1 <0>         0.1004
     26 H3         -1.2473    1.7586   -0.3450 H         1 <0>         0.0722
     27 H4         -0.6180    1.7047    1.3192 H         1 <0>         0.0620
     28 H5         -0.4760   -0.1480   -1.9865 H         1 <0>         0.0772
     29 H6          1.1935    0.2124   -1.4834 H         1 <0>         0.0712
     30 H7         -0.2303   -2.4607   -1.1007 H         1 <0>         0.0648
     31 H8          0.9817   -2.1096   -2.3558 H         1 <0>         0.0677
     32 H9          2.0340   -3.2445   -0.4286 H         1 <0>         0.0782
     33 H10         2.6461   -1.5795   -0.5819 H         1 <0>         0.0695
     34 H11         0.4757   -2.5541    1.3325 H         1 <0>         0.0711
     35 H12         2.1173   -2.0140    1.7694 H         1 <0>         0.0965
     36 H13        -0.8963    2.1658    2.7913 H         1 <0>         0.1518
     37 H14        -2.4818    2.1853    4.6752 H         1 <0>         0.1358
     38 H15        -0.3242   -0.9951    6.5241 H         1 <0>         0.1434
     39 H16         1.2565   -1.0203    4.6363 H         1 <0>         0.1470
     40 H17        -1.6020   -1.1239    7.8093 H         1 <0>         0.0908
     41 H18        -3.2826   -0.7902    8.2913 H         1 <0>         0.0870
     42 H19        -2.9376   -1.4867    6.6900 H         1 <0>         0.0933
     43 H20        -3.7589    1.9207    6.0203 H         1 <0>         0.3879
@<TRIPOS>BOND
     1    1    2 1
     2    1   25 1
     3    1   26 1
     4    1   27 1
     5    2    3 1
     6    2    8 1
     7    2    4 1
     8    4    5 1
     9    4   28 1
    10    4   29 1
    11    5    6 1
    12    5   30 1
    13    5   31 1
    14    6    7 1
    15    6   32 1
    16    6   33 1
    17    7    8 1
    18    7   34 1
    19    7   35 1
    20    8    9 1
    21    9   10 2
    22    9   11 2
    23    9   12 1
    24   12   17 ar
    25   12   13 ar
    26   13   14 ar
    27   13   36 1
    28   14   15 ar
    29   14   37 1
    30   15   16 ar
    31   15   18 1
    32   16   17 ar
    33   16   38 1
    34   17   39 1
    35   18   19 1
    36   18   20 1
    37   18   24 1
    38   19   40 1
    39   19   41 1
    40   19   42 1
    41   20   21 1
    42   20   22 1
    43   20   23 1
    44   24   43 1
@<TRIPOS>MOLECULE
CHEMBL1096451
   63    67     0     0     0
SMALL
USER_CHARGES

@<TRIPOS>ATOM
      1 C1         -0.1830    1.6196    0.1200 C.3       1 <0>        -0.1301
      2 C2          1.2715    2.0893    0.1896 C.3       1 <0>        -0.1244
      3 C3          1.9168    1.5620    1.4728 C.3       1 <0>        -0.1399
      4 C4          1.8741    0.0326    1.4740 C.3       1 <0>         0.1145
      5 C5          0.4196   -0.4370    1.4043 C.3       1 <0>        -0.1722
      6 C6         -0.2257    0.0902    0.1212 C.3       1 <0>        -0.1239
      7 C7          2.5194   -0.4946    2.7571 C.3       1 <0>         0.0044
      8 N1          2.5985   -1.9603    2.6989 N.4       1 <0>        -0.3711
      9 C8          1.2681   -2.5419    2.9773 C.3       1 <0>        -0.0174
     10 C9          1.5611   -3.8335    3.7807 C.3       1 <0>        -0.1394
     11 C10         2.7649   -3.3926    4.6545 C.3       1 <0>        -0.1272
     12 C11         3.5462   -2.4469    3.7183 C.3       1 <0>         0.0008
     13 H1          4.3606   -2.9897    3.2384 H         1 <0>         0.1521
     14 C12         4.0945   -1.2844    4.5051 C.2       1 <0>         0.5034
     15 O1          3.3368   -0.4920    5.0237 O.2       1 <0>        -0.5136
     16 N2          5.4267   -1.1253    4.6323 N.am      1 <0>        -0.6961
     17 C13         5.9597    0.0048    5.3972 C.3       1 <0>         0.1530
     18 C14         6.0468    1.2364    4.4936 C.3       1 <0>        -0.0916
     19 C15         6.9725    0.9381    3.3125 C.3       1 <0>        -0.1072
     20 C16         8.3678    0.5883    3.8338 C.3       1 <0>        -0.0885
     21 C17         8.9244    1.7686    4.6326 C.3       1 <0>        -0.1113
     22 C18         7.9987    2.0670    5.8137 C.3       1 <0>        -0.0905
     23 C19         6.6034    2.4167    5.2924 C.3       1 <0>        -0.1079
     24 C20         7.9116    0.8354    6.7173 C.3       1 <0>        -0.1075
     25 C21         7.3550   -0.3449    5.9185 C.3       1 <0>        -0.0930
     26 C22         8.2807   -0.6433    4.7374 C.3       1 <0>        -0.1109
     27 O2          2.5900   -0.4647    0.3416 O.3       1 <0>        -0.5706
     28 H2         -0.7290    1.9990    0.9837 H         1 <0>         0.0699
     29 H3         -0.6427    1.9953   -0.7942 H         1 <0>         0.0747
     30 H4          1.8175    1.7099   -0.6741 H         1 <0>         0.0665
     31 H5          1.3019    3.1789    0.1888 H         1 <0>         0.0798
     32 H6          2.9530    1.8966    1.5224 H         1 <0>         0.0797
     33 H7          1.3707    1.9414    2.3365 H         1 <0>         0.0837
     34 H8          0.3892   -1.5266    1.4051 H         1 <0>         0.0782
     35 H9         -0.1264   -0.0576    2.2680 H         1 <0>         0.0879
     36 H10        -1.2619   -0.2443    0.0715 H         1 <0>         0.0788
     37 H11         0.3204   -0.2891   -0.7426 H         1 <0>         0.0668
     38 H12         3.5227   -0.0802    2.8561 H         1 <0>         0.1287
     39 H13         1.9171   -0.1971    3.6155 H         1 <0>         0.1609
     40 H14         0.6695   -1.8523    3.5726 H         1 <0>         0.1368
     41 H15         0.7566   -2.7825    2.0454 H         1 <0>         0.1459
     42 H16         0.7085   -4.1092    4.4013 H         1 <0>         0.1229
     43 H17         1.8396   -4.6517    3.1166 H         1 <0>         0.1029
     44 H18         2.4225   -2.8601    5.5419 H         1 <0>         0.1085
     45 H19         3.3755   -4.2521    4.9312 H         1 <0>         0.1204
     46 H20         6.0327   -1.7590    4.2175 H         1 <0>         0.4071
     47 H21         5.3002    0.2174    6.2386 H         1 <0>         0.0975
     48 H22         5.0527    1.4856    4.1222 H         1 <0>         0.0700
     49 H23         6.5759    0.0972    2.7435 H         1 <0>         0.0540
     50 H24         7.0345    1.8155    2.6688 H         1 <0>         0.0682
     51 H25         9.0273    0.3758    2.9924 H         1 <0>         0.0749
     52 H26         9.9184    1.5194    5.0040 H         1 <0>         0.0673
     53 H27         8.9864    2.6460    3.9889 H         1 <0>         0.0661
     54 H28         8.3952    2.9078    6.3828 H         1 <0>         0.0785
     55 H29         6.6654    3.2941    4.6486 H         1 <0>         0.0709
     56 H30         5.9439    2.6293    6.1338 H         1 <0>         0.0672
     57 H31         8.9057    0.5862    7.0887 H         1 <0>         0.0747
     58 H32         7.2521    1.0479    7.5587 H         1 <0>         0.0683
     59 H33         7.2930   -1.2223    6.5622 H         1 <0>         0.0797
     60 H34         7.8842   -1.4841    4.1684 H         1 <0>         0.0552
     61 H35         9.2747   -0.8924    5.1088 H         1 <0>         0.0748
     62 H36         2.2353   -0.1700   -0.5084 H         1 <0>         0.4023
     63 H37         2.9079   -2.2483    1.7827 H         1 <0>         0.4364
@<TRIPOS>BOND
     1    1    6 1
     2    1    2 1
     3    1   28 1
     4    1   29 1
     5    2    3 1
     6    2   30 1
     7    2   31 1
     8    3    4 1
     9    3   32 1
    10    3   33 1
    11    4    5 1
    12    4    7 1
    13    4   27 1
    14    5    6 1
    15    5   34 1
    16    5   35 1
    17    6   36 1
    18    6   37 1
    19    7    8 1
    20    7   38 1
    21    7   39 1
    22    8   12 1
    23    8    9 1
    24    8   63 1
    25    9   10 1
    26    9   40 1
    27    9   41 1
    28   10   11 1
    29   10   42 1
    30   10   43 1
    31   11   12 1
    32   11   44 1
    33   11   45 1
    34   12   13 1
    35   12   14 1
    36   14   15 2
    37   14   16 am
    38   16   17 1
    39   16   46 1
    40   17   25 1
    41   17   18 1
    42   17   47 1
    43   18   23 1
    44   18   19 1
    45   18   48 1
    46   19   20 1
    47   19   49 1
    48   19   50 1
    49   20   26 1
    50   20   21 1
    51   20   51 1
    52   21   22 1
    53   21   52 1
    54   21   53 1
    55   22   23 1
    56   22   24 1
    57   22   54 1
    58   23   55 1
    59   23   56 1
    60   24   25 1
    61   24   57 1
    62   24   58 1
    63   25   26 1
    64   25   59 1
    65   26   60 1
    66   26   61 1
    67   27   62 1
@<TRIPOS>MOLECULE
CHEMBL1084305
   42    44     0     0     0
SMALL
USER_CHARGES

@<TRIPOS>ATOM
      1 C1         -0.0167    1.3798    0.0096 C.ar      1 <0>        -0.0855
      2 C2          1.1680    2.0953    0.0022 C.ar      1 <0>        -0.1321
      3 C3          2.3774    1.4332   -0.0134 C.ar      1 <0>        -0.0604
      4 C4          2.4048    0.0349   -0.0211 C.ar      1 <0>        -0.1741
      5 C5          1.2034   -0.6808   -0.0130 C.ar      1 <0>        -0.0731
      6 C6          0.0021   -0.0041    0.0020 C.ar      1 <0>        -0.1327
      7 C7          3.6913   -0.6795   -0.0381 C.2       1 <0>         0.3995
      8 O1          4.7311   -0.0559   -0.0455 O.2       1 <0>        -0.4480
      9 C8          3.7163   -2.1863   -0.0464 C.3       1 <0>        -0.1625
     10 C9          5.1670   -2.6722   -0.0639 C.3       1 <0>        -0.0376
     11 C10         5.1920   -4.1790   -0.0722 C.2       1 <0>        -0.0210
     12 C11         5.1061   -4.9875   -1.1543 C.2       1 <0>        -0.0461
     13 N1          5.1706   -6.2428   -0.6966 N.2       1 <0>        -0.2704
     14 N2          5.2887   -6.2135    0.5840 N.2       1 <0>        -0.0804
     15 N3          5.3109   -4.9957    1.0001 N.pl3     1 <0>        -0.2812
     16 C12         5.4392   -4.5675    2.3952 C.3       1 <0>         0.1435
     17 C13         6.7596   -5.0861    2.9685 C.3       1 <0>        -0.1280
     18 C14         6.8936   -4.6389    4.4255 C.3       1 <0>        -0.1161
     19 C15         5.7277   -5.2014    5.2410 C.3       1 <0>        -0.1259
     20 C16         4.4073   -4.6827    4.6677 C.3       1 <0>        -0.1161
     21 C17         4.2733   -5.1300    3.2107 C.3       1 <0>        -0.1267
     22 H1         -0.9607    1.9041    0.0260 H         1 <0>         0.1289
     23 H2          1.1452    3.1750    0.0081 H         1 <0>         0.1306
     24 H3          3.3011    1.9929   -0.0199 H         1 <0>         0.1342
     25 H4          1.2164   -1.7607   -0.0192 H         1 <0>         0.1314
     26 H5         -0.9266   -0.5553    0.0082 H         1 <0>         0.1304
     27 H6          3.2178   -2.5629    0.8468 H         1 <0>         0.0992
     28 H7          3.1995   -2.5534   -0.9331 H         1 <0>         0.1091
     29 H8          5.6656   -2.2956   -0.9571 H         1 <0>         0.1021
     30 H9          5.6839   -2.3051    0.8228 H         1 <0>         0.0828
     31 H10         5.0049   -4.6797   -2.1845 H         1 <0>         0.1885
     32 H11         5.4248   -3.4787    2.4439 H         1 <0>         0.1090
     33 H12         6.7740   -6.1749    2.9198 H         1 <0>         0.0829
     34 H13         7.5903   -4.6854    2.3875 H         1 <0>         0.0711
     35 H14         7.8343   -5.0084    4.8339 H         1 <0>         0.0749
     36 H15         6.8792   -3.5501    4.4742 H         1 <0>         0.0671
     37 H16         5.7421   -6.2902    5.1923 H         1 <0>         0.0680
     38 H17         5.8232   -4.8828    6.2790 H         1 <0>         0.0701
     39 H18         3.5766   -5.0835    5.2487 H         1 <0>         0.0748
     40 H19         4.3929   -3.5939    4.7164 H         1 <0>         0.0669
     41 H20         3.3326   -4.7605    2.8023 H         1 <0>         0.0699
     42 H21         4.2877   -6.2188    3.1620 H         1 <0>         0.0832
@<TRIPOS>BOND
     1    1    6 ar
     2    1    2 ar
     3    1   22 1
     4    2    3 ar
     5    2   23 1
     6    3    4 ar
     7    3   24 1
     8    4    5 ar
     9    4    7 1
    10    5    6 ar
    11    5   25 1
    12    6   26 1
    13    7    8 2
    14    7    9 1
    15    9   10 1
    16    9   27 1
    17    9   28 1
    18   10   11 1
    19   10   29 1
    20   10   30 1
    21   11   15 1
    22   11   12 2
    23   12   13 1
    24   12   31 1
    25   13   14 2
    26   14   15 1
    27   15   16 1
    28   16   21 1
    29   16   17 1
    30   16   32 1
    31   17   18 1
    32   17   33 1
    33   17   34 1
    34   18   19 1
    35   18   35 1
    36   18   36 1
    37   19   20 1
    38   19   37 1
    39   19   38 1
    40   20   21 1
    41   20   39 1
    42   20   40 1
    43   21   41 1
    44   21   42 1
@<TRIPOS>MOLECULE
CHEMBL490966
   64    67     0     0     0
SMALL
USER_CHARGES

@<TRIPOS>ATOM
      1 C1         -0.2999    1.5600   -0.0207 C.3       1 <0>        -0.1863
      2 C2         -0.0124    0.0577   -0.0575 C.3       1 <0>         0.1556
      3 H1         -0.9031   -0.4930    0.2450 H         1 <0>         0.0891
      4 C3          0.3902   -0.3546   -1.4774 C.3       1 <0>         0.0422
      5 N1          0.8133   -1.7614   -1.4739 N.3       1 <0>        -0.5314
      6 C4          2.0058   -1.9571   -0.6387 C.3       1 <0>         0.0331
      7 C5          1.6694   -1.6104    0.8155 C.3       1 <0>         0.1198
      8 N2          1.0965   -0.2557    0.8564 N.pl3     1 <0>        -0.9927
      9 S1          1.6878    0.8873    1.8987 S.o2      1 <0>         2.6882
     10 O1          2.9561    0.4198    2.3371 O.2       1 <0>        -0.9550
     11 O2          1.5187    2.1454    1.2602 O.2       1 <0>        -0.9469
     12 C6          0.6376    0.8954    3.3135 C.ar      1 <0>        -0.6644
     13 C7         -0.4685    1.7239    3.3485 C.ar      1 <0>        -0.0203
     14 C8         -1.2924    1.7303    4.4584 C.ar      1 <0>        -0.1147
     15 C9         -1.0106    0.9078    5.5331 C.ar      1 <0>        -0.0795
     16 C10         0.0949    0.0786    5.4977 C.ar      1 <0>        -0.1120
     17 C11         0.9164    0.0691    4.3860 C.ar      1 <0>        -0.0162
     18 C12        -1.9083    0.9155    6.7435 C.3       1 <0>         0.1393
     19 C13        -1.0871    0.5782    7.9897 C.3       1 <0>        -0.1509
     20 C14        -3.0147   -0.1261    6.5645 C.3       1 <0>         0.4276
     21 F1         -2.4421   -1.3939    6.4166 F         1 <0>        -0.1727
     22 F2         -3.8481   -0.1190    7.6882 F         1 <0>        -0.1694
     23 F3         -3.7656    0.1823    5.4251 F         1 <0>        -0.1791
     24 O3         -2.4932    2.2105    6.8946 O.3       1 <0>        -0.5174
     25 C15         1.0433   -2.2454   -2.8417 C.3       1 <0>         0.0733
     26 C16         1.0913   -3.7746   -2.8402 C.3       1 <0>        -0.0338
     27 C17         2.4749   -4.3472   -2.4901 C.3       1 <0>        -0.1371
     28 C18         2.7938   -4.2854   -3.9932 C.3       1 <0>        -0.1424
     29 C19         1.2790   -4.3863   -4.2386 C.3       1 <0>        -0.1254
     30 C20        -0.0366   -4.3948   -2.0565 C.ar      1 <0>        -0.1144
     31 C21        -0.1410   -5.7732   -1.9475 C.ar      1 <0>        -0.0772
     32 C22        -1.1950   -6.2993   -1.2166 C.ar      1 <0>        -0.1806
     33 C23        -2.1004   -5.4385   -0.6251 C.ar      1 <0>         0.0900
     34 N3         -1.9701   -4.1324   -0.7503 N.ar      1 <0>        -0.4915
     35 C24        -0.9767   -3.5969   -1.4327 C.ar      1 <0>         0.1170
     36 H2          0.5373    2.1011   -0.4616 H         1 <0>         0.0951
     37 H3         -1.2072    1.7704   -0.5870 H         1 <0>         0.0750
     38 H4         -0.4347    1.8789    1.0129 H         1 <0>         0.0673
     39 H5         -0.4613   -0.2326   -2.1469 H         1 <0>         0.0926
     40 H6          1.2142    0.2722   -1.8183 H         1 <0>         0.0485
     41 H7          2.3260   -2.9972   -0.6999 H         1 <0>         0.1023
     42 H8          2.8073   -1.3080   -0.9913 H         1 <0>         0.0452
     43 H9          0.9424   -2.3240    1.2033 H         1 <0>         0.0788
     44 H10         2.5765   -1.6430    1.4190 H         1 <0>         0.1001
     45 H11        -0.6886    2.3665    2.5088 H         1 <0>         0.1508
     46 H12        -2.1561    2.3781    4.4860 H         1 <0>         0.1359
     47 H13         0.3152   -0.5637    6.3375 H         1 <0>         0.1431
     48 H14         1.7780   -0.5814    4.3568 H         1 <0>         0.1462
     49 H15        -0.2989    1.3202    8.1172 H         1 <0>         0.0937
     50 H16        -1.7364    0.5837    8.8651 H         1 <0>         0.0870
     51 H17        -0.6410   -0.4096    7.8744 H         1 <0>         0.0907
     52 H18        -3.0292    2.4904    6.1400 H         1 <0>         0.3878
     53 H19         0.2327   -1.9079   -3.4876 H         1 <0>         0.0847
     54 H20         1.9903   -1.8525   -3.2117 H         1 <0>         0.0512
     55 H21         3.0853   -3.6756   -1.8863 H         1 <0>         0.0768
     56 H22         2.4399   -5.3614   -2.0925 H         1 <0>         0.0849
     57 H23         3.2250   -3.3356   -4.3095 H         1 <0>         0.0813
     58 H24         3.3534   -5.1474   -4.3566 H         1 <0>         0.0703
     59 H25         0.9171   -5.4113   -4.3190 H         1 <0>         0.0856
     60 H26         0.9240   -3.7464   -5.0464 H         1 <0>         0.0715
     61 H27         0.5814   -6.4215   -2.4209 H         1 <0>         0.1263
     62 H28        -1.3075   -7.3683   -1.1111 H         1 <0>         0.1288
     63 H29        -2.9243   -5.8404   -0.0541 H         1 <0>         0.1480
     64 H30        -0.8997   -2.5223   -1.5088 H         1 <0>         0.1868
@<TRIPOS>BOND
     1    1    2 1
     2    1   36 1
     3    1   37 1
     4    1   38 1
     5    2    3 1
     6    2    8 1
     7    2    4 1
     8    4    5 1
     9    4   39 1
    10    4   40 1
    11    5    6 1
    12    5   25 1
    13    6    7 1
    14    6   41 1
    15    6   42 1
    16    7    8 1
    17    7   43 1
    18    7   44 1
    19    8    9 1
    20    9   10 2
    21    9   11 2
    22    9   12 1
    23   12   17 ar
    24   12   13 ar
    25   13   14 ar
    26   13   45 1
    27   14   15 ar
    28   14   46 1
    29   15   16 ar
    30   15   18 1
    31   16   17 ar
    32   16   47 1
    33   17   48 1
    34   18   19 1
    35   18   20 1
    36   18   24 1
    37   19   49 1
    38   19   50 1
    39   19   51 1
    40   20   21 1
    41   20   22 1
    42   20   23 1
    43   24   52 1
    44   25   26 1
    45   25   53 1
    46   25   54 1
    47   26   29 1
    48   26   27 1
    49   26   30 1
    50   27   28 1
    51   27   55 1
    52   27   56 1
    53   28   29 1
    54   28   57 1
    55   28   58 1
    56   29   59 1
    57   29   60 1
    58   30   35 ar
    59   30   31 ar
    60   31   32 ar
    61   31   61 1
    62   32   33 ar
    63   32   62 1
    64   33   34 ar
    65   33   63 1
    66   34   35 ar
    67   35   64 1
@<TRIPOS>MOLECULE
CHEMBL490966__1
   65    68     0     0     0
SMALL
USER_CHARGES

@<TRIPOS>ATOM
      1 C1          0.8853    0.7512    1.5820 C.3       1 <0>        -0.1907
      2 C2          0.7595   -0.6789    1.0529 C.3       1 <0>         0.1329
      3 H1         -0.2571   -1.0394    1.2102 H         1 <0>         0.1047
      4 C3          1.0894   -0.7052   -0.4432 C.3       1 <0>        -0.0216
      5 N1          1.1010   -2.0952   -0.9164 N.4       1 <0>        -0.3921
      6 C4          2.1842   -2.8380   -0.2599 C.3       1 <0>        -0.0306
      7 C5          1.9085   -2.9173    1.2453 C.3       1 <0>         0.0915
      8 N2          1.7088   -1.5527    1.7595 N.pl3     1 <0>        -1.0090
      9 S1          2.5337   -1.0138    3.0905 S.o2      1 <0>         2.6910
     10 O1          3.6136   -1.9152    3.2915 O.2       1 <0>        -0.9388
     11 O2          2.7299    0.3818    2.9091 O.2       1 <0>        -0.9329
     12 C6          1.4613   -1.1956    4.4767 C.ar      1 <0>        -0.6724
     13 C7          0.6119   -0.1649    4.8333 C.ar      1 <0>        -0.0215
     14 C8         -0.2294   -0.3075    5.9209 C.ar      1 <0>        -0.1121
     15 C9         -0.2215   -1.4809    6.6516 C.ar      1 <0>        -0.0684
     16 C10         0.6272   -2.5119    6.2945 C.ar      1 <0>        -0.1089
     17 C11         1.4654   -2.3709    5.2043 C.ar      1 <0>        -0.0165
     18 C12        -1.1380   -1.6360    7.8379 C.3       1 <0>         0.1362
     19 C13        -0.4902   -2.5673    8.8645 C.3       1 <0>        -0.1534
     20 C14        -2.4705   -2.2313    7.3785 C.3       1 <0>         0.4283
     21 F1         -2.2458   -3.4833    6.7960 F         1 <0>        -0.1742
     22 F2         -3.3212   -2.3753    8.4798 F         1 <0>        -0.1646
     23 F3         -3.0628   -1.3797    6.4398 F         1 <0>        -0.1807
     24 O3         -1.3675   -0.3572    8.4329 O.3       1 <0>        -0.5135
     25 C15         1.3083   -2.1138   -2.3706 C.3       1 <0>         0.0118
     26 C16         1.2674   -3.5583   -2.8732 C.3       1 <0>        -0.0740
     27 C17         2.6258   -4.2752   -2.7984 C.3       1 <0>        -0.1438
     28 C18         2.9001   -3.7350   -4.2118 C.3       1 <0>        -0.1440
     29 C19         1.3751   -3.6818   -4.4022 C.3       1 <0>        -0.1100
     30 C20         0.1306   -4.3516   -2.2820 C.ar      1 <0>        -0.1424
     31 C21         0.1648   -5.7379   -2.2868 C.ar      1 <0>        -0.0609
     32 C22        -0.9031   -6.4261   -1.7321 C.ar      1 <0>        -0.1422
     33 C23        -1.9590   -5.7127   -1.1964 C.ar      1 <0>         0.1111
     34 N3         -1.9578   -4.3942   -1.2097 N.ar      1 <0>        -0.4601
     35 C24        -0.9563   -3.7067   -1.7233 C.ar      1 <0>         0.0508
     36 H2          1.8609    1.1545    1.3105 H         1 <0>         0.1086
     37 H3          0.1018    1.3705    1.1452 H         1 <0>         0.0900
     38 H4          0.7829    0.7475    2.6672 H         1 <0>         0.0857
     39 H5          0.3352   -0.1408   -0.9917 H         1 <0>         0.1473
     40 H6          2.0694   -0.2573   -0.6072 H         1 <0>         0.1415
     41 H7          2.2367   -3.8452   -0.6733 H         1 <0>         0.1503
     42 H8          3.1311   -2.3255   -0.4294 H         1 <0>         0.1401
     43 H9          1.0092   -3.5073    1.4224 H         1 <0>         0.0968
     44 H10         2.7578   -3.3784    1.7494 H         1 <0>         0.1437
     45 H11         0.6058    0.7518    4.2624 H         1 <0>         0.1506
     46 H12        -0.8925    0.4980    6.1999 H         1 <0>         0.1402
     47 H13         0.6336   -3.4285    6.8656 H         1 <0>         0.1476
     48 H14         2.1259   -3.1778    4.9231 H         1 <0>         0.1477
     49 H15         0.4591   -2.1432    9.1917 H         1 <0>         0.0954
     50 H16        -1.1530   -2.6794    9.7225 H         1 <0>         0.0910
     51 H17        -0.3151   -3.5427    8.4106 H         1 <0>         0.0910
     52 H18        -1.7772    0.2856    7.8379 H         1 <0>         0.3880
     53 H19         0.5215   -1.5373   -2.8572 H         1 <0>         0.1400
     54 H20         2.2781   -1.6748   -2.6050 H         1 <0>         0.1446
     55 H21         3.2929   -3.8685   -2.0384 H         1 <0>         0.0828
     56 H22         2.5444   -5.3613   -2.7542 H         1 <0>         0.1053
     57 H23         3.3756   -2.7543   -4.2197 H         1 <0>         0.0897
     58 H24         3.3969   -4.4527   -4.8647 H         1 <0>         0.0869
     59 H25         0.9518   -4.6056   -4.7966 H         1 <0>         0.1011
     60 H26         1.0325   -2.7959   -4.9371 H         1 <0>         0.0849
     61 H27         1.0033   -6.2687   -2.7129 H         1 <0>         0.1473
     62 H28        -0.9102   -7.5060   -1.7189 H         1 <0>         0.1506
     63 H29        -2.7947   -6.2414   -0.7623 H         1 <0>         0.1697
     64 H30        -0.9883   -2.6273   -1.7113 H         1 <0>         0.1433
     65 H31         0.2169   -2.5304   -0.6996 H         1 <0>         0.4194
@<TRIPOS>BOND
     1    1    2 1
     2    1   36 1
     3    1   37 1
     4    1   38 1
     5    2    3 1
     6    2    8 1
     7    2    4 1
     8    4    5 1
     9    4   39 1
    10    4   40 1
    11    5    6 1
    12    5   25 1
    13    5   65 1
    14    6    7 1
    15    6   41 1
    16    6   42 1
    17    7    8 1
    18    7   43 1
    19    7   44 1
    20    8    9 1
    21    9   10 2
    22    9   11 2
    23    9   12 1
    24   12   17 ar
    25   12   13 ar
    26   13   14 ar
    27   13   45 1
    28   14   15 ar
    29   14   46 1
    30   15   16 ar
    31   15   18 1
    32   16   17 ar
    33   16   47 1
    34   17   48 1
    35   18   19 1
    36   18   20 1
    37   18   24 1
    38   19   49 1
    39   19   50 1
    40   19   51 1
    41   20   21 1
    42   20   22 1
    43   20   23 1
    44   24   52 1
    45   25   26 1
    46   25   53 1
    47   25   54 1
    48   26   29 1
    49   26   27 1
    50   26   30 1
    51   27   28 1
    52   27   55 1
    53   27   56 1
    54   28   29 1
    55   28   57 1
    56   28   58 1
    57   29   59 1
    58   29   60 1
    59   30   35 ar
    60   30   31 ar
    61   31   32 ar
    62   31   61 1
    63   32   33 ar
    64   32   62 1
    65   33   34 ar
    66   33   63 1
    67   34   35 ar
    68   35   64 1
@<TRIPOS>MOLECULE
CHEMBL490966__2
   64    67     0     0     0
SMALL
USER_CHARGES

@<TRIPOS>ATOM
      1 C1         -0.2999    1.5600   -0.0207 C.3       1 <0>        -0.1865
      2 C2         -0.0124    0.0577   -0.0575 C.3       1 <0>         0.1560
      3 H1         -0.9031   -0.4930    0.2450 H         1 <0>         0.0891
      4 C3          0.3902   -0.3546   -1.4774 C.3       1 <0>         0.0419
      5 N1          0.8133   -1.7614   -1.4739 N.3       1 <0>        -0.5312
      6 C4          2.0058   -1.9571   -0.6387 C.3       1 <0>         0.0329
      7 C5          1.6694   -1.6104    0.8155 C.3       1 <0>         0.1200
      8 N2          1.0965   -0.2557    0.8564 N.pl3     1 <0>        -0.9927
      9 S1          1.6878    0.8873    1.8987 S.o2      1 <0>         2.6880
     10 O1          2.9561    0.4198    2.3371 O.2       1 <0>        -0.9549
     11 O2          1.5187    2.1454    1.2602 O.2       1 <0>        -0.9469
     12 C6          0.6376    0.8954    3.3135 C.ar      1 <0>        -0.6643
     13 C7         -0.4685    1.7239    3.3485 C.ar      1 <0>        -0.0204
     14 C8         -1.2924    1.7303    4.4584 C.ar      1 <0>        -0.1147
     15 C9         -1.0106    0.9078    5.5331 C.ar      1 <0>        -0.0795
     16 C10         0.0949    0.0786    5.4977 C.ar      1 <0>        -0.1120
     17 C11         0.9164    0.0691    4.3860 C.ar      1 <0>        -0.0162
     18 C12        -1.9083    0.9155    6.7435 C.3       1 <0>         0.1396
     19 C13        -1.8897   -0.4659    7.4010 C.3       1 <0>        -0.1505
     20 C14        -1.4096    1.9622    7.7418 C.3       1 <0>         0.4269
     21 F1         -1.4266    3.2253    7.1406 F         1 <0>        -0.1794
     22 F2         -2.2429    1.9693    8.8655 F         1 <0>        -0.1692
     23 F3         -0.1031    1.6491    8.1321 F         1 <0>        -0.1727
     24 O3         -3.2428    1.2353    6.3448 O.3       1 <0>        -0.5171
     25 C15         1.0433   -2.2454   -2.8417 C.3       1 <0>         0.0731
     26 C16         1.0913   -3.7746   -2.8402 C.3       1 <0>        -0.0338
     27 C17         2.4749   -4.3472   -2.4901 C.3       1 <0>        -0.1371
     28 C18         2.7938   -4.2854   -3.9932 C.3       1 <0>        -0.1425
     29 C19         1.2790   -4.3863   -4.2386 C.3       1 <0>        -0.1254
     30 C20        -0.0366   -4.3948   -2.0565 C.ar      1 <0>        -0.1143
     31 C21        -0.1410   -5.7732   -1.9475 C.ar      1 <0>        -0.0771
     32 C22        -1.1950   -6.2993   -1.2166 C.ar      1 <0>        -0.1806
     33 C23        -2.1004   -5.4385   -0.6251 C.ar      1 <0>         0.0899
     34 N3         -1.9701   -4.1324   -0.7503 N.ar      1 <0>        -0.4916
     35 C24        -0.9767   -3.5969   -1.4327 C.ar      1 <0>         0.1170
     36 H2          0.5373    2.1011   -0.4616 H         1 <0>         0.0950
     37 H3         -1.2072    1.7704   -0.5870 H         1 <0>         0.0750
     38 H4         -0.4347    1.8789    1.0129 H         1 <0>         0.0674
     39 H5         -0.4613   -0.2326   -2.1469 H         1 <0>         0.0927
     40 H6          1.2142    0.2722   -1.8183 H         1 <0>         0.0485
     41 H7          2.3260   -2.9972   -0.6999 H         1 <0>         0.1023
     42 H8          2.8073   -1.3080   -0.9913 H         1 <0>         0.0451
     43 H9          0.9424   -2.3240    1.2033 H         1 <0>         0.0787
     44 H10         2.5765   -1.6430    1.4190 H         1 <0>         0.1000
     45 H11        -0.6886    2.3665    2.5088 H         1 <0>         0.1508
     46 H12        -2.1561    2.3781    4.4860 H         1 <0>         0.1359
     47 H13         0.3152   -0.5637    6.3375 H         1 <0>         0.1431
     48 H14         1.7780   -0.5814    4.3568 H         1 <0>         0.1463
     49 H15        -0.8718   -0.7099    7.7051 H         1 <0>         0.0905
     50 H16        -2.5390   -0.4604    8.2765 H         1 <0>         0.0869
     51 H17        -2.2450   -1.2116    6.6899 H         1 <0>         0.0938
     52 H18        -3.3298    2.0994    5.9196 H         1 <0>         0.3878
     53 H19         0.2327   -1.9079   -3.4876 H         1 <0>         0.0847
     54 H20         1.9903   -1.8525   -3.2117 H         1 <0>         0.0512
     55 H21         3.0853   -3.6756   -1.8863 H         1 <0>         0.0768
     56 H22         2.4399   -5.3614   -2.0925 H         1 <0>         0.0849
     57 H23         3.2250   -3.3356   -4.3095 H         1 <0>         0.0813
     58 H24         3.3534   -5.1474   -4.3566 H         1 <0>         0.0703
     59 H25         0.9171   -5.4113   -4.3190 H         1 <0>         0.0856
     60 H26         0.9240   -3.7464   -5.0464 H         1 <0>         0.0716
     61 H27         0.5814   -6.4215   -2.4209 H         1 <0>         0.1263
     62 H28        -1.3075   -7.3683   -1.1111 H         1 <0>         0.1288
     63 H29        -2.9243   -5.8404   -0.0541 H         1 <0>         0.1481
     64 H30        -0.8997   -2.5223   -1.5088 H         1 <0>         0.1869
@<TRIPOS>BOND
     1    1    2 1
     2    1   36 1
     3    1   37 1
     4    1   38 1
     5    2    3 1
     6    2    8 1
     7    2    4 1
     8    4    5 1
     9    4   39 1
    10    4   40 1
    11    5    6 1
    12    5   25 1
    13    6    7 1
    14    6   41 1
    15    6   42 1
    16    7    8 1
    17    7   43 1
    18    7   44 1
    19    8    9 1
    20    9   10 2
    21    9   11 2
    22    9   12 1
    23   12   17 ar
    24   12   13 ar
    25   13   14 ar
    26   13   45 1
    27   14   15 ar
    28   14   46 1
    29   15   16 ar
    30   15   18 1
    31   16   17 ar
    32   16   47 1
    33   17   48 1
    34   18   19 1
    35   18   20 1
    36   18   24 1
    37   19   49 1
    38   19   50 1
    39   19   51 1
    40   20   21 1
    41   20   22 1
    42   20   23 1
    43   24   52 1
    44   25   26 1
    45   25   53 1
    46   25   54 1
    47   26   29 1
    48   26   27 1
    49   26   30 1
    50   27   28 1
    51   27   55 1
    52   27   56 1
    53   28   29 1
    54   28   57 1
    55   28   58 1
    56   29   59 1
    57   29   60 1
    58   30   35 ar
    59   30   31 ar
    60   31   32 ar
    61   31   61 1
    62   32   33 ar
    63   32   62 1
    64   33   34 ar
    65   33   63 1
    66   34   35 ar
    67   35   64 1
@<TRIPOS>MOLECULE
CHEMBL490966__3
   65    68     0     0     0
SMALL
USER_CHARGES

@<TRIPOS>ATOM
      1 C1          0.8853    0.7512    1.5820 C.3       1 <0>        -0.1909
      2 C2          0.7595   -0.6789    1.0529 C.3       1 <0>         0.1333
      3 H1         -0.2571   -1.0394    1.2102 H         1 <0>         0.1047
      4 C3          1.0894   -0.7052   -0.4432 C.3       1 <0>        -0.0217
      5 N1          1.1010   -2.0952   -0.9164 N.4       1 <0>        -0.3919
      6 C4          2.1842   -2.8380   -0.2599 C.3       1 <0>        -0.0308
      7 C5          1.9085   -2.9173    1.2453 C.3       1 <0>         0.0917
      8 N2          1.7088   -1.5527    1.7595 N.pl3     1 <0>        -1.0090
      9 S1          2.5337   -1.0138    3.0905 S.o2      1 <0>         2.6907
     10 O1          3.6136   -1.9152    3.2915 O.2       1 <0>        -0.9387
     11 O2          2.7299    0.3818    2.9091 O.2       1 <0>        -0.9328
     12 C6          1.4613   -1.1956    4.4767 C.ar      1 <0>        -0.6723
     13 C7          0.6119   -0.1649    4.8333 C.ar      1 <0>        -0.0215
     14 C8         -0.2294   -0.3075    5.9209 C.ar      1 <0>        -0.1120
     15 C9         -0.2215   -1.4809    6.6516 C.ar      1 <0>        -0.0684
     16 C10         0.6272   -2.5119    6.2945 C.ar      1 <0>        -0.1090
     17 C11         1.4654   -2.3709    5.2043 C.ar      1 <0>        -0.0165
     18 C12        -1.1380   -1.6360    7.8379 C.3       1 <0>         0.1362
     19 C13        -1.5125   -3.1101    8.0037 C.3       1 <0>        -0.1517
     20 C14        -0.4258   -1.1456    9.1001 C.3       1 <0>         0.4271
     21 F1         -0.0833    0.2023    8.9484 F         1 <0>        -0.1790
     22 F2         -1.2765   -1.2896   10.2013 F         1 <0>        -0.1652
     23 F3          0.7337   -1.9012    9.3046 F         1 <0>        -0.1723
     24 O3         -2.3223   -0.8642    7.6289 O.3       1 <0>        -0.5153
     25 C15         1.3083   -2.1138   -2.3706 C.3       1 <0>         0.0118
     26 C16         1.2674   -3.5583   -2.8732 C.3       1 <0>        -0.0740
     27 C17         2.6258   -4.2752   -2.7984 C.3       1 <0>        -0.1438
     28 C18         2.9001   -3.7350   -4.2118 C.3       1 <0>        -0.1440
     29 C19         1.3751   -3.6818   -4.4022 C.3       1 <0>        -0.1100
     30 C20         0.1306   -4.3516   -2.2820 C.ar      1 <0>        -0.1422
     31 C21         0.1648   -5.7379   -2.2868 C.ar      1 <0>        -0.0609
     32 C22        -0.9031   -6.4261   -1.7321 C.ar      1 <0>        -0.1422
     33 C23        -1.9590   -5.7127   -1.1964 C.ar      1 <0>         0.1109
     34 N3         -1.9578   -4.3942   -1.2097 N.ar      1 <0>        -0.4602
     35 C24        -0.9563   -3.7067   -1.7233 C.ar      1 <0>         0.0508
     36 H2          1.8609    1.1545    1.3105 H         1 <0>         0.1085
     37 H3          0.1018    1.3705    1.1452 H         1 <0>         0.0900
     38 H4          0.7829    0.7475    2.6672 H         1 <0>         0.0858
     39 H5          0.3352   -0.1408   -0.9917 H         1 <0>         0.1474
     40 H6          2.0694   -0.2573   -0.6072 H         1 <0>         0.1414
     41 H7          2.2367   -3.8452   -0.6733 H         1 <0>         0.1503
     42 H8          3.1311   -2.3255   -0.4294 H         1 <0>         0.1400
     43 H9          1.0092   -3.5073    1.4224 H         1 <0>         0.0968
     44 H10         2.7578   -3.3784    1.7494 H         1 <0>         0.1435
     45 H11         0.6058    0.7518    4.2624 H         1 <0>         0.1506
     46 H12        -0.8925    0.4980    6.1999 H         1 <0>         0.1402
     47 H13         0.6336   -3.4285    6.8656 H         1 <0>         0.1476
     48 H14         2.1259   -3.1778    4.9231 H         1 <0>         0.1478
     49 H15        -0.6091   -3.6988    8.1631 H         1 <0>         0.0914
     50 H16        -2.1754   -3.2223    8.8617 H         1 <0>         0.0908
     51 H17        -2.0199   -3.4595    7.1045 H         1 <0>         0.0929
     52 H18        -2.1601    0.0823    7.5155 H         1 <0>         0.3885
     53 H19         0.5215   -1.5373   -2.8572 H         1 <0>         0.1400
     54 H20         2.2781   -1.6748   -2.6050 H         1 <0>         0.1446
     55 H21         3.2929   -3.8685   -2.0384 H         1 <0>         0.0828
     56 H22         2.5444   -5.3613   -2.7542 H         1 <0>         0.1053
     57 H23         3.3756   -2.7543   -4.2197 H         1 <0>         0.0897
     58 H24         3.3969   -4.4527   -4.8647 H         1 <0>         0.0869
     59 H25         0.9518   -4.6056   -4.7966 H         1 <0>         0.1011
     60 H26         1.0325   -2.7959   -4.9371 H         1 <0>         0.0849
     61 H27         1.0033   -6.2687   -2.7129 H         1 <0>         0.1473
     62 H28        -0.9102   -7.5060   -1.7189 H         1 <0>         0.1506
     63 H29        -2.7947   -6.2414   -0.7623 H         1 <0>         0.1698
     64 H30        -0.9883   -2.6273   -1.7113 H         1 <0>         0.1433
     65 H31         0.2169   -2.5304   -0.6996 H         1 <0>         0.4194
@<TRIPOS>BOND
     1    1    2 1
     2    1   36 1
     3    1   37 1
     4    1   38 1
     5    2    3 1
     6    2    8 1
     7    2    4 1
     8    4    5 1
     9    4   39 1
    10    4   40 1
    11    5    6 1
    12    5   25 1
    13    5   65 1
    14    6    7 1
    15    6   41 1
    16    6   42 1
    17    7    8 1
    18    7   43 1
    19    7   44 1
    20    8    9 1
    21    9   10 2
    22    9   11 2
    23    9   12 1
    24   12   17 ar
    25   12   13 ar
    26   13   14 ar
    27   13   45 1
    28   14   15 ar
    29   14   46 1
    30   15   16 ar
    31   15   18 1
    32   16   17 ar
    33   16   47 1
    34   17   48 1
    35   18   19 1
    36   18   20 1
    37   18   24 1
    38   19   49 1
    39   19   50 1
    40   19   51 1
    41   20   21 1
    42   20   22 1
    43   20   23 1
    44   24   52 1
    45   25   26 1
    46   25   53 1
    47   25   54 1
    48   26   29 1
    49   26   27 1
    50   26   30 1
    51   27   28 1
    52   27   55 1
    53   27   56 1
    54   28   29 1
    55   28   57 1
    56   28   58 1
    57   29   59 1
    58   29   60 1
    59   30   35 ar
    60   30   31 ar
    61   31   32 ar
    62   31   61 1
    63   32   33 ar
    64   32   62 1
    65   33   34 ar
    66   33   63 1
    67   34   35 ar
    68   35   64 1
@<TRIPOS>MOLECULE
CHEMBL490953
   57    59     0     0     0
SMALL
USER_CHARGES

@<TRIPOS>ATOM
      1 C1         -0.5380    0.8198    0.9408 C.3       1 <0>        -0.1876
      2 C2         -0.3267   -0.6262    0.4879 C.3       1 <0>         0.1583
      3 H1         -1.2833   -1.1483    0.4716 H         1 <0>         0.0878
      4 C3          0.2920   -0.6414   -0.9140 C.3       1 <0>         0.0318
      5 N1          0.6347   -2.0222   -1.2796 N.3       1 <0>        -0.5317
      6 C4          1.6543   -2.5747   -0.3779 C.3       1 <0>         0.0453
      7 C5          1.0916   -2.6388    1.0460 C.3       1 <0>         0.1200
      8 N2          0.5911   -1.3053    1.4152 N.pl3     1 <0>        -0.9954
      9 S1          1.0530   -0.5855    2.8332 S.o2      1 <0>         2.6881
     10 O1          2.1960   -1.2929    3.2942 O.2       1 <0>        -0.9541
     11 O2          1.0701    0.8147    2.5912 O.2       1 <0>        -0.9463
     12 C6         -0.2278   -0.8781    4.0074 C.ar      1 <0>        -0.6644
     13 C7         -1.2743    0.0173    4.1261 C.ar      1 <0>        -0.0209
     14 C8         -2.2791   -0.2123    5.0473 C.ar      1 <0>        -0.1149
     15 C9         -2.2377   -1.3374    5.8494 C.ar      1 <0>        -0.0796
     16 C10        -1.1916   -2.2331    5.7300 C.ar      1 <0>        -0.1120
     17 C11        -0.1890   -2.0058    4.8058 C.ar      1 <0>        -0.0161
     18 C12        -3.3326   -1.5871    6.8543 C.3       1 <0>         0.1392
     19 C13        -2.7639   -2.3584    8.0470 C.3       1 <0>        -0.1510
     20 C14        -4.4469   -2.4071    6.2011 C.3       1 <0>         0.4276
     21 F1         -3.9295   -3.6303    5.7616 F         1 <0>        -0.1727
     22 F2         -5.4634   -2.6389    7.1340 F         1 <0>        -0.1692
     23 F3         -4.9669   -1.7019    5.1105 F         1 <0>        -0.1794
     24 O3         -3.8611   -0.3376    7.3032 O.3       1 <0>        -0.5173
     25 C15         1.0708   -2.1032   -2.6800 C.3       1 <0>         0.0194
     26 C16        -0.1499   -2.0291   -3.5994 C.3       1 <0>         0.3577
     27 C17         0.2769   -2.2823   -5.0224 C.ar      1 <0>        -0.2151
     28 C18         0.6672   -1.2295   -5.8362 C.ar      1 <0>        -0.0402
     29 C19         1.0518   -1.5095   -7.1383 C.ar      1 <0>        -0.1724
     30 C20         1.0335   -2.8195   -7.5791 C.ar      1 <0>         0.1184
     31 N3          0.6559   -3.7957   -6.7772 N.ar      1 <0>        -0.4809
     32 C21         0.2896   -3.5670   -5.5310 C.ar      1 <0>         0.1383
     33 F4         -1.0838   -2.9966   -3.2135 F         1 <0>        -0.1775
     34 F5         -0.7283   -0.7588   -3.5050 F         1 <0>        -0.1903
     35 H2          0.3943    1.3742    0.8333 H         1 <0>         0.0971
     36 H3         -1.3095    1.2839    0.3264 H         1 <0>         0.0759
     37 H4         -0.8494    0.8316    1.9853 H         1 <0>         0.0672
     38 H5         -0.4244   -0.2422   -1.6320 H         1 <0>         0.1059
     39 H6          1.1936   -0.0289   -0.9203 H         1 <0>         0.0478
     40 H7          1.9260   -3.5777   -0.7071 H         1 <0>         0.0950
     41 H8          2.5370   -1.9354   -0.3917 H         1 <0>         0.0465
     42 H9          0.2728   -3.3574    1.0841 H         1 <0>         0.0826
     43 H10         1.8786   -2.9393    1.7376 H         1 <0>         0.1039
     44 H11        -1.3067    0.8963    3.4994 H         1 <0>         0.1511
     45 H12        -3.0964    0.4876    5.1405 H         1 <0>         0.1360
     46 H13        -1.1590   -3.1120    6.3569 H         1 <0>         0.1436
     47 H14         0.6263   -2.7076    4.7100 H         1 <0>         0.1471
     48 H15        -1.9700   -1.7742    8.5123 H         1 <0>         0.0938
     49 H16        -3.5558   -2.5390    8.7739 H         1 <0>         0.0871
     50 H17        -2.3607   -3.3114    7.7046 H         1 <0>         0.0909
     51 H18        -4.2393    0.2055    6.5982 H         1 <0>         0.3878
     52 H19         1.7423   -1.2733   -2.9001 H         1 <0>         0.0723
     53 H20         1.5926   -3.0461   -2.8441 H         1 <0>         0.1085
     54 H21         0.6712   -0.2155   -5.4645 H         1 <0>         0.1432
     55 H22         1.3614   -0.7142   -7.8001 H         1 <0>         0.1447
     56 H23         1.3316   -3.0460   -8.5921 H         1 <0>         0.1640
     57 H24        -0.0083   -4.3930   -4.9021 H         1 <0>         0.1649
@<TRIPOS>BOND
     1    1    2 1
     2    1   35 1
     3    1   36 1
     4    1   37 1
     5    2    3 1
     6    2    8 1
     7    2    4 1
     8    4    5 1
     9    4   38 1
    10    4   39 1
    11    5    6 1
    12    5   25 1
    13    6    7 1
    14    6   40 1
    15    6   41 1
    16    7    8 1
    17    7   42 1
    18    7   43 1
    19    8    9 1
    20    9   10 2
    21    9   11 2
    22    9   12 1
    23   12   17 ar
    24   12   13 ar
    25   13   14 ar
    26   13   44 1
    27   14   15 ar
    28   14   45 1
    29   15   16 ar
    30   15   18 1
    31   16   17 ar
    32   16   46 1
    33   17   47 1
    34   18   19 1
    35   18   20 1
    36   18   24 1
    37   19   48 1
    38   19   49 1
    39   19   50 1
    40   20   21 1
    41   20   22 1
    42   20   23 1
    43   24   51 1
    44   25   26 1
    45   25   52 1
    46   25   53 1
    47   26   27 1
    48   26   33 1
    49   26   34 1
    50   27   32 ar
    51   27   28 ar
    52   28   29 ar
    53   28   54 1
    54   29   30 ar
    55   29   55 1
    56   30   31 ar
    57   30   56 1
    58   31   32 ar
    59   32   57 1
@<TRIPOS>MOLECULE
CHEMBL490953__1
   57    59     0     0     0
SMALL
USER_CHARGES

@<TRIPOS>ATOM
      1 C1         -0.5380    0.8198    0.9408 C.3       1 <0>        -0.1877
      2 C2         -0.3267   -0.6262    0.4879 C.3       1 <0>         0.1587
      3 H1         -1.2833   -1.1483    0.4716 H         1 <0>         0.0878
      4 C3          0.2920   -0.6414   -0.9140 C.3       1 <0>         0.0316
      5 N1          0.6347   -2.0222   -1.2796 N.3       1 <0>        -0.5316
      6 C4          1.6543   -2.5747   -0.3779 C.3       1 <0>         0.0451
      7 C5          1.0916   -2.6388    1.0460 C.3       1 <0>         0.1202
      8 N2          0.5911   -1.3053    1.4152 N.pl3     1 <0>        -0.9953
      9 S1          1.0530   -0.5855    2.8332 S.o2      1 <0>         2.6879
     10 O1          2.1960   -1.2929    3.2942 O.2       1 <0>        -0.9539
     11 O2          1.0701    0.8147    2.5912 O.2       1 <0>        -0.9463
     12 C6         -0.2278   -0.8781    4.0074 C.ar      1 <0>        -0.6643
     13 C7         -1.2743    0.0173    4.1261 C.ar      1 <0>        -0.0210
     14 C8         -2.2791   -0.2123    5.0473 C.ar      1 <0>        -0.1149
     15 C9         -2.2377   -1.3374    5.8494 C.ar      1 <0>        -0.0796
     16 C10        -1.1916   -2.2331    5.7300 C.ar      1 <0>        -0.1120
     17 C11        -0.1890   -2.0058    4.8058 C.ar      1 <0>        -0.0161
     18 C12        -3.3326   -1.5871    6.8543 C.3       1 <0>         0.1394
     19 C13        -3.5077   -3.0939    7.0538 C.3       1 <0>        -0.1504
     20 C14        -2.9593   -0.9361    8.1876 C.3       1 <0>         0.4270
     21 F1         -2.7991    0.4417    8.0052 F         1 <0>        -0.1794
     22 F2         -3.9757   -1.1679    9.1205 F         1 <0>        -0.1691
     23 F3         -1.7617   -1.4868    8.6563 F         1 <0>        -0.1726
     24 O3         -4.5559   -1.0246    6.3755 O.3       1 <0>        -0.5173
     25 C15         1.0708   -2.1032   -2.6800 C.3       1 <0>         0.0193
     26 C16        -0.1499   -2.0291   -3.5994 C.3       1 <0>         0.3578
     27 C17         0.2769   -2.2823   -5.0224 C.ar      1 <0>        -0.2152
     28 C18         0.6672   -1.2295   -5.8362 C.ar      1 <0>        -0.0402
     29 C19         1.0518   -1.5095   -7.1383 C.ar      1 <0>        -0.1724
     30 C20         1.0335   -2.8195   -7.5791 C.ar      1 <0>         0.1184
     31 N3          0.6559   -3.7957   -6.7772 N.ar      1 <0>        -0.4809
     32 C21         0.2896   -3.5670   -5.5310 C.ar      1 <0>         0.1383
     33 F4         -1.0838   -2.9966   -3.2135 F         1 <0>        -0.1776
     34 F5         -0.7283   -0.7588   -3.5050 F         1 <0>        -0.1903
     35 H2          0.3943    1.3742    0.8333 H         1 <0>         0.0970
     36 H3         -1.3095    1.2839    0.3264 H         1 <0>         0.0759
     37 H4         -0.8494    0.8316    1.9853 H         1 <0>         0.0673
     38 H5         -0.4244   -0.2422   -1.6320 H         1 <0>         0.1059
     39 H6          1.1936   -0.0289   -0.9203 H         1 <0>         0.0477
     40 H7          1.9260   -3.5777   -0.7071 H         1 <0>         0.0950
     41 H8          2.5370   -1.9354   -0.3917 H         1 <0>         0.0465
     42 H9          0.2728   -3.3574    1.0841 H         1 <0>         0.0826
     43 H10         1.8786   -2.9393    1.7376 H         1 <0>         0.1038
     44 H11        -1.3067    0.8963    3.4994 H         1 <0>         0.1511
     45 H12        -3.0964    0.4876    5.1405 H         1 <0>         0.1360
     46 H13        -1.1590   -3.1120    6.3569 H         1 <0>         0.1436
     47 H14         0.6263   -2.7076    4.7100 H         1 <0>         0.1472
     48 H15        -2.5746   -3.5229    7.4190 H         1 <0>         0.0908
     49 H16        -4.2997   -3.2745    7.7806 H         1 <0>         0.0870
     50 H17        -3.7737   -3.5577    6.1039 H         1 <0>         0.0937
     51 H18        -4.5179   -0.0699    6.2262 H         1 <0>         0.3878
     52 H19         1.7423   -1.2733   -2.9001 H         1 <0>         0.0723
     53 H20         1.5926   -3.0461   -2.8441 H         1 <0>         0.1085
     54 H21         0.6712   -0.2155   -5.4645 H         1 <0>         0.1432
     55 H22         1.3614   -0.7142   -7.8001 H         1 <0>         0.1447
     56 H23         1.3316   -3.0460   -8.5921 H         1 <0>         0.1640
     57 H24        -0.0083   -4.3930   -4.9021 H         1 <0>         0.1649
@<TRIPOS>BOND
     1    1    2 1
     2    1   35 1
     3    1   36 1
     4    1   37 1
     5    2    3 1
     6    2    8 1
     7    2    4 1
     8    4    5 1
     9    4   38 1
    10    4   39 1
    11    5    6 1
    12    5   25 1
    13    6    7 1
    14    6   40 1
    15    6   41 1
    16    7    8 1
    17    7   42 1
    18    7   43 1
    19    8    9 1
    20    9   10 2
    21    9   11 2
    22    9   12 1
    23   12   17 ar
    24   12   13 ar
    25   13   14 ar
    26   13   44 1
    27   14   15 ar
    28   14   45 1
    29   15   16 ar
    30   15   18 1
    31   16   17 ar
    32   16   46 1
    33   17   47 1
    34   18   19 1
    35   18   20 1
    36   18   24 1
    37   19   48 1
    38   19   49 1
    39   19   50 1
    40   20   21 1
    41   20   22 1
    42   20   23 1
    43   24   51 1
    44   25   26 1
    45   25   52 1
    46   25   53 1
    47   26   27 1
    48   26   33 1
    49   26   34 1
    50   27   32 ar
    51   27   28 ar
    52   28   29 ar
    53   28   54 1
    54   29   30 ar
    55   29   55 1
    56   30   31 ar
    57   30   56 1
    58   31   32 ar
    59   32   57 1
@<TRIPOS>MOLECULE
CHEMBL522964
   61    64     0     0     0
SMALL
USER_CHARGES

@<TRIPOS>ATOM
      1 C1         -0.2630    1.4338    0.3451 C.3       1 <0>        -0.1848
      2 C2         -0.0191   -0.0707    0.2112 C.3       1 <0>         0.1580
      3 H1         -0.9260   -0.6137    0.4771 H         1 <0>         0.0851
      4 C3          0.3748   -0.4020   -1.2322 C.3       1 <0>         0.0499
      5 N1          0.7569   -1.8177   -1.3195 N.3       1 <0>        -0.5296
      6 C4          1.9413   -2.1016   -0.4982 C.3       1 <0>         0.0459
      7 C5          1.6116   -1.8401    0.9753 C.3       1 <0>         0.1210
      8 N2          1.0781   -0.4747    1.1035 N.pl3     1 <0>        -0.9932
      9 S1          1.6999    0.5808    2.2178 S.o2      1 <0>         2.6878
     10 O1          2.9573    0.0540    2.6188 O.2       1 <0>        -0.9543
     11 O2          1.5605    1.8828    1.6659 O.2       1 <0>        -0.9470
     12 C6          0.6535    0.5194    3.6341 C.ar      1 <0>        -0.6646
     13 C7         -0.4317    1.3705    3.7290 C.ar      1 <0>        -0.0207
     14 C8         -1.2527    1.3224    4.8401 C.ar      1 <0>        -0.1149
     15 C9         -0.9888    0.4229    5.8561 C.ar      1 <0>        -0.0795
     16 C10         0.0958   -0.4288    5.7607 C.ar      1 <0>        -0.1117
     17 C11         0.9143   -0.3836    4.6476 C.ar      1 <0>        -0.0160
     18 C12        -1.8832    0.3711    7.0678 C.3       1 <0>         0.1394
     19 C13        -1.0678   -0.0691    8.2852 C.3       1 <0>        -0.1510
     20 C14        -3.0154   -0.6286    6.8237 C.3       1 <0>         0.4276
     21 F1         -2.4746   -1.8973    6.5887 F         1 <0>        -0.1724
     22 F2         -3.8458   -0.6767    7.9486 F         1 <0>        -0.1691
     23 F3         -3.7611   -0.2260    5.7105 F         1 <0>        -0.1796
     24 O3         -2.4356    1.6670    7.3078 O.3       1 <0>        -0.5173
     25 C15         0.9760   -2.2187   -2.7156 C.3       1 <0>         0.0978
     26 C16         0.9766   -3.7455   -2.8136 C.3       1 <0>        -0.0922
     27 C17         2.2940   -4.4291   -3.1852 C.3       1 <0>        -0.1710
     28 C18         1.1525   -4.3643   -4.2018 C.3       1 <0>        -0.1574
     29 C19         0.0712   -4.4595   -1.8432 C.ar      1 <0>         0.0296
     30 C20        -1.3060   -4.3219   -1.9247 C.ar      1 <0>        -0.1515
     31 C21        -2.1046   -4.9919   -1.0174 C.ar      1 <0>         0.0989
     32 N3         -1.5708   -5.7540   -0.0829 N.ar      1 <0>        -0.4899
     33 C22        -0.2655   -5.9080    0.0245 C.ar      1 <0>         0.0988
     34 C23         0.5955   -5.2741   -0.8513 C.ar      1 <0>        -0.1708
     35 H2          0.5732    1.9779   -0.0941 H         1 <0>         0.0923
     36 H3         -1.1832    1.7003   -0.1748 H         1 <0>         0.0735
     37 H4         -0.3527    1.6949    1.3996 H         1 <0>         0.0691
     38 H5         -0.4712   -0.2121   -1.8927 H         1 <0>         0.0895
     39 H6          1.2174    0.2213   -1.5314 H         1 <0>         0.0440
     40 H7          2.2314   -3.1445   -0.6264 H         1 <0>         0.0918
     41 H8          2.7621   -1.4546   -0.8077 H         1 <0>         0.0411
     42 H9          0.8634   -2.5558    1.3157 H         1 <0>         0.0777
     43 H10         2.5160   -1.9380    1.5758 H         1 <0>         0.0998
     44 H11        -0.6379    2.0733    2.9353 H         1 <0>         0.1501
     45 H12        -2.1001    1.9878    4.9146 H         1 <0>         0.1359
     46 H13         0.3022   -1.1313    6.5546 H         1 <0>         0.1435
     47 H14         1.7595   -1.0516    4.5714 H         1 <0>         0.1466
     48 H15        -0.2612    0.6431    8.4592 H         1 <0>         0.0938
     49 H16        -1.7147   -0.1066    9.1617 H         1 <0>         0.0872
     50 H17        -0.6464   -1.0576    8.1021 H         1 <0>         0.0909
     51 H18        -2.9663    2.0101    6.5759 H         1 <0>         0.3877
     52 H19         0.1783   -1.8149   -3.3391 H         1 <0>         0.0828
     53 H20         1.9358   -1.8322   -3.0583 H         1 <0>         0.0458
     54 H21         3.1603   -3.7910   -3.3599 H         1 <0>         0.0989
     55 H22         2.5062   -5.3953   -2.7277 H         1 <0>         0.0989
     56 H23         0.6136   -5.2879   -4.4131 H         1 <0>         0.0984
     57 H24         1.2677   -3.6835   -5.0453 H         1 <0>         0.1005
     58 H25        -1.7491   -3.6987   -2.6874 H         1 <0>         0.1283
     59 H26        -3.1783   -4.8900   -1.0741 H         1 <0>         0.1509
     60 H27         0.1351   -6.5401    0.8032 H         1 <0>         0.1511
     61 H28         1.6634   -5.4081   -0.7614 H         1 <0>         0.1288
@<TRIPOS>BOND
     1    1    2 1
     2    1   35 1
     3    1   36 1
     4    1   37 1
     5    2    3 1
     6    2    8 1
     7    2    4 1
     8    4    5 1
     9    4   38 1
    10    4   39 1
    11    5    6 1
    12    5   25 1
    13    6    7 1
    14    6   40 1
    15    6   41 1
    16    7    8 1
    17    7   42 1
    18    7   43 1
    19    8    9 1
    20    9   10 2
    21    9   11 2
    22    9   12 1
    23   12   17 ar
    24   12   13 ar
    25   13   14 ar
    26   13   44 1
    27   14   15 ar
    28   14   45 1
    29   15   16 ar
    30   15   18 1
    31   16   17 ar
    32   16   46 1
    33   17   47 1
    34   18   19 1
    35   18   20 1
    36   18   24 1
    37   19   48 1
    38   19   49 1
    39   19   50 1
    40   20   21 1
    41   20   22 1
    42   20   23 1
    43   24   51 1
    44   25   26 1
    45   25   52 1
    46   25   53 1
    47   26   28 1
    48   26   27 1
    49   26   29 1
    50   27   28 1
    51   27   54 1
    52   27   55 1
    53   28   56 1
    54   28   57 1
    55   29   34 ar
    56   29   30 ar
    57   30   31 ar
    58   30   58 1
    59   31   32 ar
    60   31   59 1
    61   32   33 ar
    62   33   34 ar
    63   33   60 1
    64   34   61 1
@<TRIPOS>MOLECULE
CHEMBL522964__1
   62    65     0     0     0
SMALL
USER_CHARGES

@<TRIPOS>ATOM
      1 C1         -0.2630    1.4338    0.3451 C.3       1 <0>        -0.1892
      2 C2         -0.0191   -0.0707    0.2112 C.3       1 <0>         0.1605
      3 H1         -0.9260   -0.6137    0.4771 H         1 <0>         0.0816
      4 C3          0.3748   -0.4020   -1.2322 C.3       1 <0>         0.0463
      5 N1          0.7569   -1.8177   -1.3195 N.3       1 <0>        -0.5425
      6 C4          1.9413   -2.1016   -0.4982 C.3       1 <0>         0.0376
      7 C5          1.6116   -1.8401    0.9753 C.3       1 <0>         0.1220
      8 N2          1.0781   -0.4747    1.1035 N.pl3     1 <0>        -0.9968
      9 S1          1.6999    0.5808    2.2178 S.o2      1 <0>         2.6867
     10 O1          2.9573    0.0540    2.6188 O.2       1 <0>        -0.9502
     11 O2          1.5605    1.8828    1.6659 O.2       1 <0>        -0.9409
     12 C6          0.6535    0.5194    3.6341 C.ar      1 <0>        -0.6668
     13 C7         -0.4317    1.3705    3.7290 C.ar      1 <0>        -0.0207
     14 C8         -1.2527    1.3224    4.8401 C.ar      1 <0>        -0.1137
     15 C9         -0.9888    0.4229    5.8561 C.ar      1 <0>        -0.0758
     16 C10         0.0958   -0.4288    5.7607 C.ar      1 <0>        -0.1119
     17 C11         0.9143   -0.3836    4.6476 C.ar      1 <0>        -0.0185
     18 C12        -1.8832    0.3711    7.0678 C.3       1 <0>         0.1380
     19 C13        -1.0678   -0.0691    8.2852 C.3       1 <0>        -0.1525
     20 C14        -3.0154   -0.6286    6.8237 C.3       1 <0>         0.4284
     21 F1         -2.4746   -1.8973    6.5887 F         1 <0>        -0.1760
     22 F2         -3.8458   -0.6767    7.9486 F         1 <0>        -0.1658
     23 F3         -3.7611   -0.2260    5.7105 F         1 <0>        -0.1810
     24 O3         -2.4356    1.6670    7.3078 O.3       1 <0>        -0.5144
     25 C15         0.9760   -2.2187   -2.7156 C.3       1 <0>         0.0914
     26 C16         0.9766   -3.7455   -2.8136 C.3       1 <0>        -0.1266
     27 C17         2.2940   -4.4291   -3.1852 C.3       1 <0>        -0.1619
     28 C18         1.1525   -4.3643   -4.2018 C.3       1 <0>        -0.1423
     29 C19         0.0712   -4.4595   -1.8432 C.ar      1 <0>         0.1156
     30 C20        -1.3060   -4.3219   -1.9247 C.ar      1 <0>        -0.1099
     31 C21        -2.1046   -4.9919   -1.0174 C.ar      1 <0>         0.1323
     32 N3         -1.5708   -5.7540   -0.0829 N.ar      1 <0>        -0.4500
     33 C22        -0.2655   -5.9080    0.0245 C.ar      1 <0>         0.1337
     34 C23         0.5955   -5.2741   -0.8513 C.ar      1 <0>        -0.1315
     35 H2          0.5732    1.9779   -0.0941 H         1 <0>         0.0953
     36 H3         -1.1832    1.7003   -0.1748 H         1 <0>         0.0760
     37 H4         -0.3527    1.6949    1.3996 H         1 <0>         0.0720
     38 H5         -0.4712   -0.2121   -1.8927 H         1 <0>         0.0938
     39 H6          1.2174    0.2213   -1.5314 H         1 <0>         0.0526
     40 H7          2.2314   -3.1445   -0.6264 H         1 <0>         0.0873
     41 H8          2.7621   -1.4546   -0.8077 H         1 <0>         0.0523
     42 H9          0.8634   -2.5558    1.3157 H         1 <0>         0.0689
     43 H10         2.5160   -1.9380    1.5758 H         1 <0>         0.1042
     44 H11        -0.6379    2.0733    2.9353 H         1 <0>         0.1507
     45 H12        -2.1001    1.9878    4.9146 H         1 <0>         0.1378
     46 H13         0.3022   -1.1313    6.5546 H         1 <0>         0.1444
     47 H14         1.7595   -1.0516    4.5714 H         1 <0>         0.1459
     48 H15        -0.2612    0.6431    8.4592 H         1 <0>         0.0954
     49 H16        -1.7147   -0.1066    9.1617 H         1 <0>         0.0894
     50 H17        -0.6464   -1.0576    8.1021 H         1 <0>         0.0901
     51 H18        -2.9663    2.0101    6.5759 H         1 <0>         0.3880
     52 H19         0.1783   -1.8149   -3.3391 H         1 <0>         0.0924
     53 H20         1.9358   -1.8322   -3.0583 H         1 <0>         0.0617
     54 H21         3.1603   -3.7910   -3.3599 H         1 <0>         0.1133
     55 H22         2.5062   -5.3953   -2.7277 H         1 <0>         0.1047
     56 H23         0.6136   -5.2879   -4.4131 H         1 <0>         0.1051
     57 H24         1.2677   -3.6835   -5.0453 H         1 <0>         0.1154
     58 H25        -1.7491   -3.6987   -2.6874 H         1 <0>         0.1811
     59 H26        -3.1783   -4.8900   -1.0741 H         1 <0>         0.2077
     60 H27         0.1351   -6.5401    0.8032 H         1 <0>         0.2080
     61 H28         1.6634   -5.4081   -0.7614 H         1 <0>         0.1806
     62 H29        -2.1535   -6.2130    0.5422 H         1 <0>         0.4508
@<TRIPOS>BOND
     1    1    2 1
     2    1   35 1
     3    1   36 1
     4    1   37 1
     5    2    3 1
     6    2    8 1
     7    2    4 1
     8    4    5 1
     9    4   38 1
    10    4   39 1
    11    5    6 1
    12    5   25 1
    13    6    7 1
    14    6   40 1
    15    6   41 1
    16    7    8 1
    17    7   42 1
    18    7   43 1
    19    8    9 1
    20    9   10 2
    21    9   11 2
    22    9   12 1
    23   12   17 ar
    24   12   13 ar
    25   13   14 ar
    26   13   44 1
    27   14   15 ar
    28   14   45 1
    29   15   16 ar
    30   15   18 1
    31   16   17 ar
    32   16   46 1
    33   17   47 1
    34   18   19 1
    35   18   20 1
    36   18   24 1
    37   19   48 1
    38   19   49 1
    39   19   50 1
    40   20   21 1
    41   20   22 1
    42   20   23 1
    43   24   51 1
    44   25   26 1
    45   25   52 1
    46   25   53 1
    47   26   28 1
    48   26   27 1
    49   26   29 1
    50   27   28 1
    51   27   54 1
    52   27   55 1
    53   28   56 1
    54   28   57 1
    55   29   34 ar
    56   29   30 ar
    57   30   31 ar
    58   30   58 1
    59   31   32 ar
    60   31   59 1
    61   32   33 ar
    62   32   62 1
    63   33   34 ar
    64   33   60 1
    65   34   61 1
@<TRIPOS>MOLECULE
CHEMBL522964__2
   62    65     0     0     0
SMALL
USER_CHARGES

@<TRIPOS>ATOM
      1 C1          0.0662    1.4268    0.5802 C.3       1 <0>        -0.1895
      2 C2          0.1846   -0.0821    0.3566 C.3       1 <0>         0.1337
      3 H1         -0.7764   -0.5578    0.5521 H         1 <0>         0.1037
      4 C3          0.6101   -0.3564   -1.0896 C.3       1 <0>        -0.0188
      5 N1          0.8547   -1.7939   -1.2625 N.4       1 <0>        -0.3823
      6 C4          1.9903   -2.2116   -0.4306 C.3       1 <0>        -0.0235
      7 C5          1.6332   -2.0291    1.0482 C.3       1 <0>         0.0916
      8 N2          1.2040   -0.6373    1.2602 N.pl3     1 <0>        -1.0094
      9 S1          1.8543    0.2797    2.4762 S.o2      1 <0>         2.6907
     10 O1          3.0471   -0.3753    2.8853 O.2       1 <0>        -0.9382
     11 O2          1.8420    1.6257    2.0208 O.2       1 <0>        -0.9330
     12 C6          0.7424    0.1996    3.8407 C.ar      1 <0>        -0.6726
     13 C7         -0.2764    1.1265    3.9574 C.ar      1 <0>        -0.0215
     14 C8         -1.1488    1.0637    5.0279 C.ar      1 <0>        -0.1123
     15 C9         -1.0025    0.0737    5.9815 C.ar      1 <0>        -0.0681
     16 C10         0.0158   -0.8538    5.8643 C.ar      1 <0>        -0.1087
     17 C11         0.8855   -0.7936    4.7915 C.ar      1 <0>        -0.0163
     18 C12        -1.9529    0.0058    7.1491 C.3       1 <0>         0.1362
     19 C13        -1.2308   -0.5873    8.3606 C.3       1 <0>        -0.1535
     20 C14        -3.1470   -0.8783    6.7839 C.3       1 <0>         0.4284
     21 F1         -2.6964   -2.1660    6.4740 F         1 <0>        -0.1740
     22 F2         -4.0293   -0.9414    7.8678 F         1 <0>        -0.1644
     23 F3         -3.8073   -0.3361    5.6761 F         1 <0>        -0.1811
     24 O3         -2.4132    1.3210    7.4657 O.3       1 <0>        -0.5134
     25 C15         1.1553   -2.0714   -2.6734 C.3       1 <0>         0.0373
     26 C16         1.3113   -3.5801   -2.8745 C.3       1 <0>        -0.1469
     27 C17         2.7149   -4.1119   -3.1714 C.3       1 <0>        -0.1570
     28 C18         1.6612   -4.0731   -4.2800 C.3       1 <0>        -0.1269
     29 C19         0.4013   -4.4445   -2.0403 C.ar      1 <0>        -0.0471
     30 C20        -0.9724   -4.4146   -2.2258 C.ar      1 <0>        -0.1750
     31 C21        -1.7755   -5.2213   -1.4421 C.ar      1 <0>         0.1156
     32 N3         -1.2493   -6.0118   -0.5271 N.ar      1 <0>        -0.4688
     33 C22         0.0524   -6.0662   -0.3233 C.ar      1 <0>         0.1164
     34 C23         0.9182   -5.2928   -1.0731 C.ar      1 <0>        -0.1718
     35 H2          0.9813    1.9164    0.2468 H         1 <0>         0.1069
     36 H3         -0.7802    1.8130    0.0123 H         1 <0>         0.0890
     37 H4         -0.0867    1.6260    1.6409 H         1 <0>         0.0869
     38 H5         -0.1816   -0.0383   -1.7680 H         1 <0>         0.1471
     39 H6          1.5228    0.1968   -1.3111 H         1 <0>         0.1409
     40 H7          2.2157   -3.2605   -0.6234 H         1 <0>         0.1451
     41 H8          2.8612   -1.6022   -0.6721 H         1 <0>         0.1396
     42 H9          0.8202   -2.7045    1.3147 H         1 <0>         0.0974
     43 H10         2.5066   -2.2414    1.6648 H         1 <0>         0.1438
     44 H11        -0.3907    1.9001    3.2124 H         1 <0>         0.1499
     45 H12        -1.9443    1.7884    5.1195 H         1 <0>         0.1401
     46 H13         0.1302   -1.6271    6.6095 H         1 <0>         0.1478
     47 H14         1.6788   -1.5205    4.6980 H         1 <0>         0.1480
     48 H15        -0.3801    0.0426    8.6207 H         1 <0>         0.0955
     49 H16        -1.9182   -0.6364    9.2051 H         1 <0>         0.0911
     50 H17        -0.8797   -1.5905    8.1191 H         1 <0>         0.0912
     51 H18        -2.8815    1.7588    6.7417 H         1 <0>         0.3879
     52 H19         0.3408   -1.7040   -3.2976 H         1 <0>         0.1387
     53 H20         2.0819   -1.5699   -2.9529 H         1 <0>         0.1397
     54 H21         3.5272   -3.3869   -3.2235 H         1 <0>         0.1140
     55 H22         2.9804   -5.0871   -2.7632 H         1 <0>         0.1139
     56 H23         1.2334   -5.0228   -4.6012 H         1 <0>         0.1136
     57 H24         1.7802   -3.3226   -5.0614 H         1 <0>         0.1150
     58 H25        -1.4094   -3.7687   -2.9730 H         1 <0>         0.1416
     59 H26        -2.8465   -5.2038   -1.5803 H         1 <0>         0.1657
     60 H27         0.4467   -6.7257    0.4356 H         1 <0>         0.1664
     61 H28         1.9838   -5.3454   -0.9049 H         1 <0>         0.1436
     62 H29         0.0315   -2.3092   -0.9890 H         1 <0>         0.4204
@<TRIPOS>BOND
     1    1    2 1
     2    1   35 1
     3    1   36 1
     4    1   37 1
     5    2    3 1
     6    2    8 1
     7    2    4 1
     8    4    5 1
     9    4   38 1
    10    4   39 1
    11    5    6 1
    12    5   25 1
    13    5   62 1
    14    6    7 1
    15    6   40 1
    16    6   41 1
    17    7    8 1
    18    7   42 1
    19    7   43 1
    20    8    9 1
    21    9   10 2
    22    9   11 2
    23    9   12 1
    24   12   17 ar
    25   12   13 ar
    26   13   14 ar
    27   13   44 1
    28   14   15 ar
    29   14   45 1
    30   15   16 ar
    31   15   18 1
    32   16   17 ar
    33   16   46 1
    34   17   47 1
    35   18   19 1
    36   18   20 1
    37   18   24 1
    38   19   48 1
    39   19   49 1
    40   19   50 1
    41   20   21 1
    42   20   22 1
    43   20   23 1
    44   24   51 1
    45   25   26 1
    46   25   52 1
    47   25   53 1
    48   26   28 1
    49   26   27 1
    50   26   29 1
    51   27   28 1
    52   27   54 1
    53   27   55 1
    54   28   56 1
    55   28   57 1
    56   29   34 ar
    57   29   30 ar
    58   30   31 ar
    59   30   58 1
    60   31   32 ar
    61   31   59 1
    62   32   33 ar
    63   33   34 ar
    64   33   60 1
    65   34   61 1
@<TRIPOS>MOLECULE
CHEMBL522964__3
   61    64     0     0     0
SMALL
USER_CHARGES

@<TRIPOS>ATOM
      1 C1         -0.2630    1.4338    0.3451 C.3       1 <0>        -0.1850
      2 C2         -0.0191   -0.0707    0.2112 C.3       1 <0>         0.1584
      3 H1         -0.9260   -0.6137    0.4771 H         1 <0>         0.0851
      4 C3          0.3748   -0.4020   -1.2322 C.3       1 <0>         0.0497
      5 N1          0.7569   -1.8177   -1.3195 N.3       1 <0>        -0.5295
      6 C4          1.9413   -2.1016   -0.4982 C.3       1 <0>         0.0458
      7 C5          1.6116   -1.8401    0.9753 C.3       1 <0>         0.1212
      8 N2          1.0781   -0.4747    1.1035 N.pl3     1 <0>        -0.9932
      9 S1          1.6999    0.5808    2.2178 S.o2      1 <0>         2.6876
     10 O1          2.9573    0.0540    2.6188 O.2       1 <0>        -0.9542
     11 O2          1.5605    1.8828    1.6659 O.2       1 <0>        -0.9470
     12 C6          0.6535    0.5194    3.6341 C.ar      1 <0>        -0.6646
     13 C7         -0.4317    1.3705    3.7290 C.ar      1 <0>        -0.0208
     14 C8         -1.2527    1.3224    4.8401 C.ar      1 <0>        -0.1149
     15 C9         -0.9888    0.4229    5.8561 C.ar      1 <0>        -0.0795
     16 C10         0.0958   -0.4288    5.7607 C.ar      1 <0>        -0.1116
     17 C11         0.9143   -0.3836    4.6476 C.ar      1 <0>        -0.0160
     18 C12        -1.8832    0.3711    7.0678 C.3       1 <0>         0.1395
     19 C13        -1.8972   -1.0514    7.6310 C.3       1 <0>        -0.1505
     20 C14        -1.3565    1.3359    8.1321 C.3       1 <0>         0.4270
     21 F1         -1.3437    2.6366    7.6172 F         1 <0>        -0.1794
     22 F2         -2.1868    1.2878    9.2570 F         1 <0>        -0.1690
     23 F3         -0.0573    0.9653    8.4954 F         1 <0>        -0.1726
     24 O3         -3.2103    0.7496    6.6968 O.3       1 <0>        -0.5172
     25 C15         0.9760   -2.2187   -2.7156 C.3       1 <0>         0.0976
     26 C16         0.9766   -3.7455   -2.8136 C.3       1 <0>        -0.0922
     27 C17         2.2940   -4.4291   -3.1852 C.3       1 <0>        -0.1710
     28 C18         1.1525   -4.3643   -4.2018 C.3       1 <0>        -0.1574
     29 C19         0.0712   -4.4595   -1.8432 C.ar      1 <0>         0.0298
     30 C20        -1.3060   -4.3219   -1.9247 C.ar      1 <0>        -0.1514
     31 C21        -2.1046   -4.9919   -1.0174 C.ar      1 <0>         0.0988
     32 N3         -1.5708   -5.7540   -0.0829 N.ar      1 <0>        -0.4901
     33 C22        -0.2655   -5.9080    0.0245 C.ar      1 <0>         0.0986
     34 C23         0.5955   -5.2741   -0.8513 C.ar      1 <0>        -0.1708
     35 H2          0.5732    1.9779   -0.0941 H         1 <0>         0.0922
     36 H3         -1.1832    1.7003   -0.1748 H         1 <0>         0.0735
     37 H4         -0.3527    1.6949    1.3996 H         1 <0>         0.0692
     38 H5         -0.4712   -0.2121   -1.8927 H         1 <0>         0.0895
     39 H6          1.2174    0.2213   -1.5314 H         1 <0>         0.0439
     40 H7          2.2314   -3.1445   -0.6264 H         1 <0>         0.0918
     41 H8          2.7621   -1.4546   -0.8077 H         1 <0>         0.0410
     42 H9          0.8634   -2.5558    1.3157 H         1 <0>         0.0776
     43 H10         2.5160   -1.9380    1.5758 H         1 <0>         0.0997
     44 H11        -0.6379    2.0733    2.9353 H         1 <0>         0.1501
     45 H12        -2.1001    1.9878    4.9146 H         1 <0>         0.1359
     46 H13         0.3022   -1.1313    6.5546 H         1 <0>         0.1436
     47 H14         1.7595   -1.0516    4.5714 H         1 <0>         0.1466
     48 H15        -0.8850   -1.3401    7.9140 H         1 <0>         0.0907
     49 H16        -2.5442   -1.0888    8.5074 H         1 <0>         0.0871
     50 H17        -2.2725   -1.7387    6.8728 H         1 <0>         0.0938
     51 H18        -3.2770    1.6422    6.3309 H         1 <0>         0.3877
     52 H19         0.1783   -1.8149   -3.3391 H         1 <0>         0.0828
     53 H20         1.9358   -1.8322   -3.0583 H         1 <0>         0.0458
     54 H21         3.1603   -3.7910   -3.3599 H         1 <0>         0.0989
     55 H22         2.5062   -5.3953   -2.7277 H         1 <0>         0.0989
     56 H23         0.6136   -5.2879   -4.4131 H         1 <0>         0.0984
     57 H24         1.2677   -3.6835   -5.0453 H         1 <0>         0.1006
     58 H25        -1.7491   -3.6987   -2.6874 H         1 <0>         0.1284
     59 H26        -3.1783   -4.8900   -1.0741 H         1 <0>         0.1510
     60 H27         0.1351   -6.5401    0.8032 H         1 <0>         0.1511
     61 H28         1.6634   -5.4081   -0.7614 H         1 <0>         0.1288
@<TRIPOS>BOND
     1    1    2 1
     2    1   35 1
     3    1   36 1
     4    1   37 1
     5    2    3 1
     6    2    8 1
     7    2    4 1
     8    4    5 1
     9    4   38 1
    10    4   39 1
    11    5    6 1
    12    5   25 1
    13    6    7 1
    14    6   40 1
    15    6   41 1
    16    7    8 1
    17    7   42 1
    18    7   43 1
    19    8    9 1
    20    9   10 2
    21    9   11 2
    22    9   12 1
    23   12   17 ar
    24   12   13 ar
    25   13   14 ar
    26   13   44 1
    27   14   15 ar
    28   14   45 1
    29   15   16 ar
    30   15   18 1
    31   16   17 ar
    32   16   46 1
    33   17   47 1
    34   18   19 1
    35   18   20 1
    36   18   24 1
    37   19   48 1
    38   19   49 1
    39   19   50 1
    40   20   21 1
    41   20   22 1
    42   20   23 1
    43   24   51 1
    44   25   26 1
    45   25   52 1
    46   25   53 1
    47   26   28 1
    48   26   27 1
    49   26   29 1
    50   27   28 1
    51   27   54 1
    52   27   55 1
    53   28   56 1
    54   28   57 1
    55   29   34 ar
    56   29   30 ar
    57   30   31 ar
    58   30   58 1
    59   31   32 ar
    60   31   59 1
    61   32   33 ar
    62   33   34 ar
    63   33   60 1
    64   34   61 1
@<TRIPOS>MOLECULE
CHEMBL522964__4
   62    65     0     0     0
SMALL
USER_CHARGES

@<TRIPOS>ATOM
      1 C1         -0.2630    1.4338    0.3451 C.3       1 <0>        -0.1894
      2 C2         -0.0191   -0.0707    0.2112 C.3       1 <0>         0.1609
      3 H1         -0.9260   -0.6137    0.4771 H         1 <0>         0.0816
      4 C3          0.3748   -0.4020   -1.2322 C.3       1 <0>         0.0461
      5 N1          0.7569   -1.8177   -1.3195 N.3       1 <0>        -0.5423
      6 C4          1.9413   -2.1016   -0.4982 C.3       1 <0>         0.0374
      7 C5          1.6116   -1.8401    0.9753 C.3       1 <0>         0.1222
      8 N2          1.0781   -0.4747    1.1035 N.pl3     1 <0>        -0.9967
      9 S1          1.6999    0.5808    2.2178 S.o2      1 <0>         2.6864
     10 O1          2.9573    0.0540    2.6188 O.2       1 <0>        -0.9501
     11 O2          1.5605    1.8828    1.6659 O.2       1 <0>        -0.9408
     12 C6          0.6535    0.5194    3.6341 C.ar      1 <0>        -0.6668
     13 C7         -0.4317    1.3705    3.7290 C.ar      1 <0>        -0.0207
     14 C8         -1.2527    1.3224    4.8401 C.ar      1 <0>        -0.1136
     15 C9         -0.9888    0.4229    5.8561 C.ar      1 <0>        -0.0759
     16 C10         0.0958   -0.4288    5.7607 C.ar      1 <0>        -0.1121
     17 C11         0.9143   -0.3836    4.6476 C.ar      1 <0>        -0.0184
     18 C12        -1.8832    0.3711    7.0678 C.3       1 <0>         0.1379
     19 C13        -1.8972   -1.0514    7.6310 C.3       1 <0>        -0.1497
     20 C14        -1.3565    1.3359    8.1321 C.3       1 <0>         0.4267
     21 F1         -1.3437    2.6366    7.6172 F         1 <0>        -0.1785
     22 F2         -2.1868    1.2878    9.2570 F         1 <0>        -0.1668
     23 F3         -0.0573    0.9653    8.4954 F         1 <0>        -0.1723
     24 O3         -3.2103    0.7496    6.6968 O.3       1 <0>        -0.5176
     25 C15         0.9760   -2.2187   -2.7156 C.3       1 <0>         0.0913
     26 C16         0.9766   -3.7455   -2.8136 C.3       1 <0>        -0.1267
     27 C17         2.2940   -4.4291   -3.1852 C.3       1 <0>        -0.1619
     28 C18         1.1525   -4.3643   -4.2018 C.3       1 <0>        -0.1423
     29 C19         0.0712   -4.4595   -1.8432 C.ar      1 <0>         0.1158
     30 C20        -1.3060   -4.3219   -1.9247 C.ar      1 <0>        -0.1099
     31 C21        -2.1046   -4.9919   -1.0174 C.ar      1 <0>         0.1324
     32 N3         -1.5708   -5.7540   -0.0829 N.ar      1 <0>        -0.4501
     33 C22        -0.2655   -5.9080    0.0245 C.ar      1 <0>         0.1336
     34 C23         0.5955   -5.2741   -0.8513 C.ar      1 <0>        -0.1315
     35 H2          0.5732    1.9779   -0.0941 H         1 <0>         0.0952
     36 H3         -1.1832    1.7003   -0.1748 H         1 <0>         0.0760
     37 H4         -0.3527    1.6949    1.3996 H         1 <0>         0.0721
     38 H5         -0.4712   -0.2121   -1.8927 H         1 <0>         0.0938
     39 H6          1.2174    0.2213   -1.5314 H         1 <0>         0.0526
     40 H7          2.2314   -3.1445   -0.6264 H         1 <0>         0.0873
     41 H8          2.7621   -1.4546   -0.8077 H         1 <0>         0.0523
     42 H9          0.8634   -2.5558    1.3157 H         1 <0>         0.0688
     43 H10         2.5160   -1.9380    1.5758 H         1 <0>         0.1041
     44 H11        -0.6379    2.0733    2.9353 H         1 <0>         0.1507
     45 H12        -2.1001    1.9878    4.9146 H         1 <0>         0.1378
     46 H13         0.3022   -1.1313    6.5546 H         1 <0>         0.1444
     47 H14         1.7595   -1.0516    4.5714 H         1 <0>         0.1459
     48 H15        -0.8850   -1.3401    7.9140 H         1 <0>         0.0910
     49 H16        -2.5442   -1.0888    8.5074 H         1 <0>         0.0892
     50 H17        -2.2725   -1.7387    6.8728 H         1 <0>         0.0907
     51 H18        -3.2770    1.6422    6.3309 H         1 <0>         0.3890
     52 H19         0.1783   -1.8149   -3.3391 H         1 <0>         0.0925
     53 H20         1.9358   -1.8322   -3.0583 H         1 <0>         0.0617
     54 H21         3.1603   -3.7910   -3.3599 H         1 <0>         0.1133
     55 H22         2.5062   -5.3953   -2.7277 H         1 <0>         0.1047
     56 H23         0.6136   -5.2879   -4.4131 H         1 <0>         0.1051
     57 H24         1.2677   -3.6835   -5.0453 H         1 <0>         0.1154
     58 H25        -1.7491   -3.6987   -2.6874 H         1 <0>         0.1811
     59 H26        -3.1783   -4.8900   -1.0741 H         1 <0>         0.2077
     60 H27         0.1351   -6.5401    0.8032 H         1 <0>         0.2080
     61 H28         1.6634   -5.4081   -0.7614 H         1 <0>         0.1806
     62 H29        -2.1535   -6.2130    0.5422 H         1 <0>         0.4507
@<TRIPOS>BOND
     1    1    2 1
     2    1   35 1
     3    1   36 1
     4    1   37 1
     5    2    3 1
     6    2    8 1
     7    2    4 1
     8    4    5 1
     9    4   38 1
    10    4   39 1
    11    5    6 1
    12    5   25 1
    13    6    7 1
    14    6   40 1
    15    6   41 1
    16    7    8 1
    17    7   42 1
    18    7   43 1
    19    8    9 1
    20    9   10 2
    21    9   11 2
    22    9   12 1
    23   12   17 ar
    24   12   13 ar
    25   13   14 ar
    26   13   44 1
    27   14   15 ar
    28   14   45 1
    29   15   16 ar
    30   15   18 1
    31   16   17 ar
    32   16   46 1
    33   17   47 1
    34   18   19 1
    35   18   20 1
    36   18   24 1
    37   19   48 1
    38   19   49 1
    39   19   50 1
    40   20   21 1
    41   20   22 1
    42   20   23 1
    43   24   51 1
    44   25   26 1
    45   25   52 1
    46   25   53 1
    47   26   28 1
    48   26   27 1
    49   26   29 1
    50   27   28 1
    51   27   54 1
    52   27   55 1
    53   28   56 1
    54   28   57 1
    55   29   34 ar
    56   29   30 ar
    57   30   31 ar
    58   30   58 1
    59   31   32 ar
    60   31   59 1
    61   32   33 ar
    62   32   62 1
    63   33   34 ar
    64   33   60 1
    65   34   61 1
@<TRIPOS>MOLECULE
CHEMBL522964__5
   62    65     0     0     0
SMALL
USER_CHARGES

@<TRIPOS>ATOM
      1 C1          0.0662    1.4268    0.5802 C.3       1 <0>        -0.1897
      2 C2          0.1846   -0.0821    0.3566 C.3       1 <0>         0.1341
      3 H1         -0.7764   -0.5578    0.5521 H         1 <0>         0.1038
      4 C3          0.6101   -0.3564   -1.0896 C.3       1 <0>        -0.0189
      5 N1          0.8547   -1.7939   -1.2625 N.4       1 <0>        -0.3821
      6 C4          1.9903   -2.2116   -0.4306 C.3       1 <0>        -0.0237
      7 C5          1.6332   -2.0291    1.0482 C.3       1 <0>         0.0918
      8 N2          1.2040   -0.6373    1.2602 N.pl3     1 <0>        -1.0093
      9 S1          1.8543    0.2797    2.4762 S.o2      1 <0>         2.6904
     10 O1          3.0471   -0.3753    2.8853 O.2       1 <0>        -0.9381
     11 O2          1.8420    1.6257    2.0208 O.2       1 <0>        -0.9329
     12 C6          0.7424    0.1996    3.8407 C.ar      1 <0>        -0.6725
     13 C7         -0.2764    1.1265    3.9574 C.ar      1 <0>        -0.0215
     14 C8         -1.1488    1.0637    5.0279 C.ar      1 <0>        -0.1122
     15 C9         -1.0025    0.0737    5.9815 C.ar      1 <0>        -0.0682
     16 C10         0.0158   -0.8538    5.8643 C.ar      1 <0>        -0.1088
     17 C11         0.8855   -0.7936    4.7915 C.ar      1 <0>        -0.0163
     18 C12        -1.9529    0.0058    7.1491 C.3       1 <0>         0.1361
     19 C13        -2.1033   -1.4484    7.6003 C.3       1 <0>        -0.1518
     20 C14        -1.4020    0.8439    8.3045 C.3       1 <0>         0.4271
     21 F1         -1.2645    2.1736    7.8919 F         1 <0>        -0.1791
     22 F2         -2.2843    0.7809    9.3884 F         1 <0>        -0.1651
     23 F3         -0.1536    0.3437    8.6897 F         1 <0>        -0.1722
     24 O3         -3.2281    0.5167    6.7556 O.3       1 <0>        -0.5154
     25 C15         1.1553   -2.0714   -2.6734 C.3       1 <0>         0.0373
     26 C16         1.3113   -3.5801   -2.8745 C.3       1 <0>        -0.1470
     27 C17         2.7149   -4.1119   -3.1714 C.3       1 <0>        -0.1571
     28 C18         1.6612   -4.0731   -4.2800 C.3       1 <0>        -0.1269
     29 C19         0.4013   -4.4445   -2.0403 C.ar      1 <0>        -0.0469
     30 C20        -0.9724   -4.4146   -2.2258 C.ar      1 <0>        -0.1749
     31 C21        -1.7755   -5.2213   -1.4421 C.ar      1 <0>         0.1156
     32 N3         -1.2493   -6.0118   -0.5271 N.ar      1 <0>        -0.4689
     33 C22         0.0524   -6.0662   -0.3233 C.ar      1 <0>         0.1163
     34 C23         0.9182   -5.2928   -1.0731 C.ar      1 <0>        -0.1718
     35 H2          0.9813    1.9164    0.2468 H         1 <0>         0.1068
     36 H3         -0.7802    1.8130    0.0123 H         1 <0>         0.0890
     37 H4         -0.0867    1.6260    1.6409 H         1 <0>         0.0870
     38 H5         -0.1816   -0.0383   -1.7680 H         1 <0>         0.1472
     39 H6          1.5228    0.1968   -1.3111 H         1 <0>         0.1408
     40 H7          2.2157   -3.2605   -0.6234 H         1 <0>         0.1451
     41 H8          2.8612   -1.6022   -0.6721 H         1 <0>         0.1396
     42 H9          0.8202   -2.7045    1.3147 H         1 <0>         0.0973
     43 H10         2.5066   -2.2414    1.6648 H         1 <0>         0.1437
     44 H11        -0.3907    1.9001    3.2124 H         1 <0>         0.1499
     45 H12        -1.9443    1.7884    5.1195 H         1 <0>         0.1401
     46 H13         0.1302   -1.6271    6.6095 H         1 <0>         0.1478
     47 H14         1.6788   -1.5205    4.6980 H         1 <0>         0.1480
     48 H15        -1.1306   -1.8382    7.9005 H         1 <0>         0.0916
     49 H16        -2.7907   -1.4975    8.4448 H         1 <0>         0.0909
     50 H17        -2.4958   -2.0455    6.7772 H         1 <0>         0.0930
     51 H18        -3.2082    1.4363    6.4570 H         1 <0>         0.3884
     52 H19         0.3408   -1.7040   -3.2976 H         1 <0>         0.1387
     53 H20         2.0819   -1.5699   -2.9529 H         1 <0>         0.1396
     54 H21         3.5272   -3.3869   -3.2235 H         1 <0>         0.1140
     55 H22         2.9804   -5.0871   -2.7632 H         1 <0>         0.1139
     56 H23         1.2334   -5.0228   -4.6012 H         1 <0>         0.1136
     57 H24         1.7802   -3.3226   -5.0614 H         1 <0>         0.1150
     58 H25        -1.4094   -3.7687   -2.9730 H         1 <0>         0.1416
     59 H26        -2.8465   -5.2038   -1.5803 H         1 <0>         0.1657
     60 H27         0.4467   -6.7257    0.4356 H         1 <0>         0.1664
     61 H28         1.9838   -5.3454   -0.9049 H         1 <0>         0.1435
     62 H29         0.0315   -2.3092   -0.9890 H         1 <0>         0.4204
@<TRIPOS>BOND
     1    1    2 1
     2    1   35 1
     3    1   36 1
     4    1   37 1
     5    2    3 1
     6    2    8 1
     7    2    4 1
     8    4    5 1
     9    4   38 1
    10    4   39 1
    11    5    6 1
    12    5   25 1
    13    5   62 1
    14    6    7 1
    15    6   40 1
    16    6   41 1
    17    7    8 1
    18    7   42 1
    19    7   43 1
    20    8    9 1
    21    9   10 2
    22    9   11 2
    23    9   12 1
    24   12   17 ar
    25   12   13 ar
    26   13   14 ar
    27   13   44 1
    28   14   15 ar
    29   14   45 1
    30   15   16 ar
    31   15   18 1
    32   16   17 ar
    33   16   46 1
    34   17   47 1
    35   18   19 1
    36   18   20 1
    37   18   24 1
    38   19   48 1
    39   19   49 1
    40   19   50 1
    41   20   21 1
    42   20   22 1
    43   20   23 1
    44   24   51 1
    45   25   26 1
    46   25   52 1
    47   25   53 1
    48   26   28 1
    49   26   27 1
    50   26   29 1
    51   27   28 1
    52   27   54 1
    53   27   55 1
    54   28   56 1
    55   28   57 1
    56   29   34 ar
    57   29   30 ar
    58   30   31 ar
    59   30   58 1
    60   31   32 ar
    61   31   59 1
    62   32   33 ar
    63   33   34 ar
    64   33   60 1
    65   34   61 1
@<TRIPOS>MOLECULE
CHEMBL522463
   61    64     0     0     0
SMALL
USER_CHARGES

@<TRIPOS>ATOM
      1 C1         -0.2556    1.4328    0.3497 C.3       1 <0>        -0.1847
      2 C2         -0.0125   -0.0717    0.2148 C.3       1 <0>         0.1578
      3 H1         -0.9191   -0.6145    0.4822 H         1 <0>         0.0852
      4 C3          0.3784   -0.4025   -1.2295 C.3       1 <0>         0.0498
      5 N1          0.7598   -1.8184   -1.3181 N.3       1 <0>        -0.5295
      6 C4          1.9457   -2.1030   -0.4993 C.3       1 <0>         0.0464
      7 C5          1.6191   -1.8419    0.9750 C.3       1 <0>         0.1209
      8 N2          1.0863   -0.4764    1.1048 N.pl3     1 <0>        -0.9931
      9 S1          1.7106    0.5784    2.2182 S.o2      1 <0>         2.6878
     10 O1          2.9687    0.0511    2.6164 O.2       1 <0>        -0.9546
     11 O2          1.5704    1.8807    1.6672 O.2       1 <0>        -0.9468
     12 C6          0.6670    0.5168    3.6366 C.ar      1 <0>        -0.6645
     13 C7         -0.4177    1.3681    3.7341 C.ar      1 <0>        -0.0204
     14 C8         -1.2364    1.3198    4.8468 C.ar      1 <0>        -0.1148
     15 C9         -0.9707    0.4198    5.8619 C.ar      1 <0>        -0.0796
     16 C10         0.1135   -0.4322    5.7639 C.ar      1 <0>        -0.1119
     17 C11         0.9297   -0.3868    4.6492 C.ar      1 <0>        -0.0163
     18 C12        -1.8627    0.3677    7.0754 C.3       1 <0>         0.1393
     19 C13        -1.0449   -0.0733    8.2910 C.3       1 <0>        -0.1509
     20 C14        -2.9957   -0.6316    6.8331 C.3       1 <0>         0.4277
     21 F1         -2.4557   -1.9003    6.5965 F         1 <0>        -0.1728
     22 F2         -3.8237   -0.6799    7.9597 F         1 <0>        -0.1691
     23 F3         -3.7435   -0.2284    5.7217 F         1 <0>        -0.1793
     24 O3         -2.4143    1.6637    7.3171 O.3       1 <0>        -0.5173
     25 C15         0.9760   -2.2189   -2.7149 C.3       1 <0>         0.0963
     26 C16         0.9760   -3.7457   -2.8134 C.3       1 <0>        -0.0848
     27 C17         2.2930   -4.4297   -3.1855 C.3       1 <0>        -0.1724
     28 C18         1.1513   -4.3640   -4.2019 C.3       1 <0>        -0.1585
     29 C19         0.0705   -4.4596   -1.8431 C.ar      1 <0>        -0.0656
     30 C20         0.6032   -5.2682   -0.8505 C.ar      1 <0>        -0.0735
     31 C21        -0.2678   -5.9054    0.0197 C.ar      1 <0>        -0.1709
     32 C22        -1.6286   -5.7149   -0.1300 C.ar      1 <0>         0.0907
     33 N3         -2.0999   -4.9388   -1.0861 N.ar      1 <0>        -0.4829
     34 C23        -1.3008   -4.3123   -1.9278 C.ar      1 <0>         0.1195
     35 H2          0.5798    1.9768   -0.0910 H         1 <0>         0.0922
     36 H3         -1.1768    1.6999   -0.1682 H         1 <0>         0.0738
     37 H4         -0.3431    1.6936    1.4044 H         1 <0>         0.0688
     38 H5         -0.4689   -0.2122   -1.8883 H         1 <0>         0.0901
     39 H6          1.2206    0.2206   -1.5302 H         1 <0>         0.0440
     40 H7          2.2352   -3.1459   -0.6285 H         1 <0>         0.0908
     41 H8          2.7662   -1.4562   -0.8101 H         1 <0>         0.0410
     42 H9          0.8712   -2.5575    1.3166 H         1 <0>         0.0771
     43 H10         2.5246   -1.9404    1.5737 H         1 <0>         0.0993
     44 H11        -0.6253    2.0713    2.9411 H         1 <0>         0.1503
     45 H12        -2.0835    1.9854    4.9233 H         1 <0>         0.1360
     46 H13         0.3212   -1.1351    6.5571 H         1 <0>         0.1434
     47 H14         1.7746   -1.0550    4.5710 H         1 <0>         0.1465
     48 H15        -0.2378    0.6387    8.4636 H         1 <0>         0.0938
     49 H16        -1.6901   -0.1109    9.1687 H         1 <0>         0.0872
     50 H17        -0.6242   -1.0618    8.1066 H         1 <0>         0.0907
     51 H18        -2.9464    2.0072    6.5864 H         1 <0>         0.3878
     52 H19         0.1772   -1.8146   -3.3366 H         1 <0>         0.0834
     53 H20         1.9353   -1.8326   -3.0593 H         1 <0>         0.0455
     54 H21         3.1596   -3.7919   -3.3601 H         1 <0>         0.0983
     55 H22         2.5049   -5.3962   -2.7284 H         1 <0>         0.0970
     56 H23         0.6121   -5.2873   -4.4134 H         1 <0>         0.0979
     57 H24         1.2667   -3.6830   -5.0452 H         1 <0>         0.1003
     58 H25         1.6713   -5.3988   -0.7577 H         1 <0>         0.1282
     59 H26         0.1121   -6.5428    0.8044 H         1 <0>         0.1313
     60 H27        -2.3139   -6.2076    0.5438 H         1 <0>         0.1508
     61 H28        -1.7234   -3.6805   -2.6950 H         1 <0>         0.1475
@<TRIPOS>BOND
     1    1    2 1
     2    1   35 1
     3    1   36 1
     4    1   37 1
     5    2    3 1
     6    2    8 1
     7    2    4 1
     8    4    5 1
     9    4   38 1
    10    4   39 1
    11    5    6 1
    12    5   25 1
    13    6    7 1
    14    6   40 1
    15    6   41 1
    16    7    8 1
    17    7   42 1
    18    7   43 1
    19    8    9 1
    20    9   10 2
    21    9   11 2
    22    9   12 1
    23   12   17 ar
    24   12   13 ar
    25   13   14 ar
    26   13   44 1
    27   14   15 ar
    28   14   45 1
    29   15   16 ar
    30   15   18 1
    31   16   17 ar
    32   16   46 1
    33   17   47 1
    34   18   19 1
    35   18   20 1
    36   18   24 1
    37   19   48 1
    38   19   49 1
    39   19   50 1
    40   20   21 1
    41   20   22 1
    42   20   23 1
    43   24   51 1
    44   25   26 1
    45   25   52 1
    46   25   53 1
    47   26   28 1
    48   26   27 1
    49   26   29 1
    50   27   28 1
    51   27   54 1
    52   27   55 1
    53   28   56 1
    54   28   57 1
    55   29   34 ar
    56   29   30 ar
    57   30   31 ar
    58   30   58 1
    59   31   32 ar
    60   31   59 1
    61   32   33 ar
    62   32   60 1
    63   33   34 ar
    64   34   61 1
@<TRIPOS>MOLECULE
CHEMBL522463__1
   62    65     0     0     0
SMALL
USER_CHARGES

@<TRIPOS>ATOM
      1 C1          0.0696    1.4291    0.5779 C.3       1 <0>        -0.1894
      2 C2          0.1892   -0.0799    0.3559 C.3       1 <0>         0.1335
      3 H1         -0.7708   -0.5565    0.5544 H         1 <0>         0.1038
      4 C3          0.6115   -0.3557   -1.0909 C.3       1 <0>        -0.0189
      5 N1          0.8573   -1.7931   -1.2626 N.4       1 <0>        -0.3817
      6 C4          1.9954   -2.2084   -0.4329 C.3       1 <0>        -0.0226
      7 C5          1.6417   -2.0244    1.0466 C.3       1 <0>         0.0915
      8 N2          1.2114   -0.6328    1.2578 N.pl3     1 <0>        -1.0093
      9 S1          1.8636    0.2865    2.4710 S.o2      1 <0>         2.6906
     10 O1          3.0583   -0.3664    2.8779 O.2       1 <0>        -0.9386
     11 O2          1.8484    1.6319    2.0140 O.2       1 <0>        -0.9328
     12 C6          0.7553    0.2066    3.8385 C.ar      1 <0>        -0.6725
     13 C7         -0.2645    1.1324    3.9567 C.ar      1 <0>        -0.0213
     14 C8         -1.1339    1.0697    5.0295 C.ar      1 <0>        -0.1121
     15 C9         -0.9840    0.0810    5.9839 C.ar      1 <0>        -0.0682
     16 C10         0.0352   -0.8453    5.8652 C.ar      1 <0>        -0.1089
     17 C11         0.9021   -0.7852    4.7901 C.ar      1 <0>        -0.0166
     18 C12        -1.9313    0.0133    7.1540 C.3       1 <0>         0.1362
     19 C13        -1.2053   -0.5774    8.3643 C.3       1 <0>        -0.1535
     20 C14        -3.1252   -0.8728    6.7929 C.3       1 <0>         0.4284
     21 F1         -2.6736   -2.1603    6.4834 F         1 <0>        -0.1743
     22 F2         -4.0046   -0.9357    7.8792 F         1 <0>        -0.1644
     23 F3         -3.7890   -0.3328    5.6862 F         1 <0>        -0.1809
     24 O3         -2.3925    1.3283    7.4702 O.3       1 <0>        -0.5134
     25 C15         1.1548   -2.0721   -2.6738 C.3       1 <0>         0.0355
     26 C16         1.3114   -3.5809   -2.8734 C.3       1 <0>        -0.1382
     27 C17         2.7152   -4.1124   -3.1694 C.3       1 <0>        -0.1587
     28 C18         1.6618   -4.0751   -4.2784 C.3       1 <0>        -0.1283
     29 C19         0.4015   -4.4448   -2.0387 C.ar      1 <0>        -0.1512
     30 C20         0.9265   -5.2855   -1.0689 C.ar      1 <0>        -0.0691
     31 C21         0.0516   -6.0621   -0.3250 C.ar      1 <0>        -0.1599
     32 C22        -1.3053   -5.9732   -0.5730 C.ar      1 <0>         0.1177
     33 N3         -1.7692   -5.1628   -1.5039 N.ar      1 <0>        -0.4700
     34 C23        -0.9670   -4.4051   -2.2263 C.ar      1 <0>         0.1046
     35 H2          0.9832    1.9194    0.2413 H         1 <0>         0.1068
     36 H3         -0.7788    1.8136    0.0118 H         1 <0>         0.0892
     37 H4         -0.0806    1.6296    1.6387 H         1 <0>         0.0866
     38 H5         -0.1822   -0.0393   -1.7678 H         1 <0>         0.1476
     39 H6          1.5230    0.1983   -1.3154 H         1 <0>         0.1409
     40 H7          2.2215   -3.2573   -0.6248 H         1 <0>         0.1439
     41 H8          2.8650   -1.5984   -0.6772 H         1 <0>         0.1396
     42 H9          0.8301   -2.7004    1.3159 H         1 <0>         0.0969
     43 H10         2.5168   -2.2349    1.6613 H         1 <0>         0.1433
     44 H11        -0.3816    1.9048    3.2110 H         1 <0>         0.1501
     45 H12        -1.9302    1.7934    5.1222 H         1 <0>         0.1402
     46 H13         0.1526   -1.6176    6.6110 H         1 <0>         0.1477
     47 H14         1.6961   -1.5112    4.6954 H         1 <0>         0.1478
     48 H15        -0.3548    0.0539    8.6215 H         1 <0>         0.0955
     49 H16        -1.8905   -0.6264    9.2107 H         1 <0>         0.0911
     50 H17        -0.8535   -1.5805    8.1232 H         1 <0>         0.0911
     51 H18        -2.8632    1.7645    6.7468 H         1 <0>         0.3880
     52 H19         0.3385   -1.7060   -3.2965 H         1 <0>         0.1391
     53 H20         2.0804   -1.5703   -2.9561 H         1 <0>         0.1393
     54 H21         3.5273   -3.3872   -3.2220 H         1 <0>         0.1130
     55 H22         2.9810   -5.0872   -2.7603 H         1 <0>         0.1118
     56 H23         1.2345   -5.0252   -4.5988 H         1 <0>         0.1130
     57 H24         1.7808   -3.3253   -5.0605 H         1 <0>         0.1145
     58 H25         1.9916   -5.3344   -0.8973 H         1 <0>         0.1425
     59 H26         0.4255   -6.7283    0.4384 H         1 <0>         0.1479
     60 H27        -1.9936   -6.5749    0.0021 H         1 <0>         0.1670
     61 H28        -1.3841   -3.7494   -2.9763 H         1 <0>         0.1587
     62 H29         0.0353   -2.3090   -0.9863 H         1 <0>         0.4201
@<TRIPOS>BOND
     1    1    2 1
     2    1   35 1
     3    1   36 1
     4    1   37 1
     5    2    3 1
     6    2    8 1
     7    2    4 1
     8    4    5 1
     9    4   38 1
    10    4   39 1
    11    5    6 1
    12    5   25 1
    13    5   62 1
    14    6    7 1
    15    6   40 1
    16    6   41 1
    17    7    8 1
    18    7   42 1
    19    7   43 1
    20    8    9 1
    21    9   10 2
    22    9   11 2
    23    9   12 1
    24   12   17 ar
    25   12   13 ar
    26   13   14 ar
    27   13   44 1
    28   14   15 ar
    29   14   45 1
    30   15   16 ar
    31   15   18 1
    32   16   17 ar
    33   16   46 1
    34   17   47 1
    35   18   19 1
    36   18   20 1
    37   18   24 1
    38   19   48 1
    39   19   49 1
    40   19   50 1
    41   20   21 1
    42   20   22 1
    43   20   23 1
    44   24   51 1
    45   25   26 1
    46   25   52 1
    47   25   53 1
    48   26   28 1
    49   26   27 1
    50   26   29 1
    51   27   28 1
    52   27   54 1
    53   27   55 1
    54   28   56 1
    55   28   57 1
    56   29   34 ar
    57   29   30 ar
    58   30   31 ar
    59   30   58 1
    60   31   32 ar
    61   31   59 1
    62   32   33 ar
    63   32   60 1
    64   33   34 ar
    65   34   61 1
@<TRIPOS>MOLECULE
CHEMBL522463__2
   61    64     0     0     0
SMALL
USER_CHARGES

@<TRIPOS>ATOM
      1 C1         -0.2556    1.4328    0.3497 C.3       1 <0>        -0.1849
      2 C2         -0.0125   -0.0717    0.2148 C.3       1 <0>         0.1581
      3 H1         -0.9191   -0.6145    0.4822 H         1 <0>         0.0853
      4 C3          0.3784   -0.4025   -1.2295 C.3       1 <0>         0.0495
      5 N1          0.7598   -1.8184   -1.3181 N.3       1 <0>        -0.5293
      6 C4          1.9457   -2.1030   -0.4993 C.3       1 <0>         0.0463
      7 C5          1.6191   -1.8419    0.9750 C.3       1 <0>         0.1211
      8 N2          1.0863   -0.4764    1.1048 N.pl3     1 <0>        -0.9930
      9 S1          1.7106    0.5784    2.2182 S.o2      1 <0>         2.6875
     10 O1          2.9687    0.0511    2.6164 O.2       1 <0>        -0.9545
     11 O2          1.5704    1.8807    1.6672 O.2       1 <0>        -0.9467
     12 C6          0.6670    0.5168    3.6366 C.ar      1 <0>        -0.6644
     13 C7         -0.4177    1.3681    3.7341 C.ar      1 <0>        -0.0204
     14 C8         -1.2364    1.3198    4.8468 C.ar      1 <0>        -0.1148
     15 C9         -0.9707    0.4198    5.8619 C.ar      1 <0>        -0.0796
     16 C10         0.1135   -0.4322    5.7639 C.ar      1 <0>        -0.1119
     17 C11         0.9297   -0.3868    4.6492 C.ar      1 <0>        -0.0163
     18 C12        -1.8627    0.3677    7.0754 C.3       1 <0>         0.1395
     19 C13        -1.8760   -1.0550    7.6380 C.3       1 <0>        -0.1504
     20 C14        -1.3336    1.3319    8.1390 C.3       1 <0>         0.4269
     21 F1         -1.3215    2.6328    7.6246 F         1 <0>        -0.1793
     22 F2         -2.1616    1.2836    9.2656 F         1 <0>        -0.1690
     23 F3         -0.0337    0.9608    8.4995 F         1 <0>        -0.1726
     24 O3         -3.1905    0.7467    6.7072 O.3       1 <0>        -0.5172
     25 C15         0.9760   -2.2189   -2.7149 C.3       1 <0>         0.0961
     26 C16         0.9760   -3.7457   -2.8134 C.3       1 <0>        -0.0848
     27 C17         2.2930   -4.4297   -3.1855 C.3       1 <0>        -0.1724
     28 C18         1.1513   -4.3640   -4.2019 C.3       1 <0>        -0.1585
     29 C19         0.0705   -4.4596   -1.8431 C.ar      1 <0>        -0.0655
     30 C20         0.6032   -5.2682   -0.8505 C.ar      1 <0>        -0.0735
     31 C21        -0.2678   -5.9054    0.0197 C.ar      1 <0>        -0.1710
     32 C22        -1.6286   -5.7149   -0.1300 C.ar      1 <0>         0.0906
     33 N3         -2.0999   -4.9388   -1.0861 N.ar      1 <0>        -0.4829
     34 C23        -1.3008   -4.3123   -1.9278 C.ar      1 <0>         0.1196
     35 H2          0.5798    1.9768   -0.0910 H         1 <0>         0.0921
     36 H3         -1.1768    1.6999   -0.1682 H         1 <0>         0.0738
     37 H4         -0.3431    1.6936    1.4044 H         1 <0>         0.0689
     38 H5         -0.4689   -0.2122   -1.8883 H         1 <0>         0.0901
     39 H6          1.2206    0.2206   -1.5302 H         1 <0>         0.0439
     40 H7          2.2352   -3.1459   -0.6285 H         1 <0>         0.0908
     41 H8          2.7662   -1.4562   -0.8101 H         1 <0>         0.0410
     42 H9          0.8712   -2.5575    1.3166 H         1 <0>         0.0771
     43 H10         2.5246   -1.9404    1.5737 H         1 <0>         0.0993
     44 H11        -0.6253    2.0713    2.9411 H         1 <0>         0.1503
     45 H12        -2.0835    1.9854    4.9233 H         1 <0>         0.1360
     46 H13         0.3212   -1.1351    6.5571 H         1 <0>         0.1434
     47 H14         1.7746   -1.0550    4.5710 H         1 <0>         0.1465
     48 H15        -0.8632   -1.3441    7.9188 H         1 <0>         0.0906
     49 H16        -2.5211   -1.0926    8.5158 H         1 <0>         0.0871
     50 H17        -2.2530   -1.7419    6.8803 H         1 <0>         0.0936
     51 H18        -3.2576    1.6395    6.3418 H         1 <0>         0.3878
     52 H19         0.1772   -1.8146   -3.3366 H         1 <0>         0.0835
     53 H20         1.9353   -1.8326   -3.0593 H         1 <0>         0.0455
     54 H21         3.1596   -3.7919   -3.3601 H         1 <0>         0.0983
     55 H22         2.5049   -5.3962   -2.7284 H         1 <0>         0.0970
     56 H23         0.6121   -5.2873   -4.4134 H         1 <0>         0.0979
     57 H24         1.2667   -3.6830   -5.0452 H         1 <0>         0.1003
     58 H25         1.6713   -5.3988   -0.7577 H         1 <0>         0.1282
     59 H26         0.1121   -6.5428    0.8044 H         1 <0>         0.1313
     60 H27        -2.3139   -6.2076    0.5438 H         1 <0>         0.1508
     61 H28        -1.7234   -3.6805   -2.6950 H         1 <0>         0.1475
@<TRIPOS>BOND
     1    1    2 1
     2    1   35 1
     3    1   36 1
     4    1   37 1
     5    2    3 1
     6    2    8 1
     7    2    4 1
     8    4    5 1
     9    4   38 1
    10    4   39 1
    11    5    6 1
    12    5   25 1
    13    6    7 1
    14    6   40 1
    15    6   41 1
    16    7    8 1
    17    7   42 1
    18    7   43 1
    19    8    9 1
    20    9   10 2
    21    9   11 2
    22    9   12 1
    23   12   17 ar
    24   12   13 ar
    25   13   14 ar
    26   13   44 1
    27   14   15 ar
    28   14   45 1
    29   15   16 ar
    30   15   18 1
    31   16   17 ar
    32   16   46 1
    33   17   47 1
    34   18   19 1
    35   18   20 1
    36   18   24 1
    37   19   48 1
    38   19   49 1
    39   19   50 1
    40   20   21 1
    41   20   22 1
    42   20   23 1
    43   24   51 1
    44   25   26 1
    45   25   52 1
    46   25   53 1
    47   26   28 1
    48   26   27 1
    49   26   29 1
    50   27   28 1
    51   27   54 1
    52   27   55 1
    53   28   56 1
    54   28   57 1
    55   29   34 ar
    56   29   30 ar
    57   30   31 ar
    58   30   58 1
    59   31   32 ar
    60   31   59 1
    61   32   33 ar
    62   32   60 1
    63   33   34 ar
    64   34   61 1
@<TRIPOS>MOLECULE
CHEMBL522463__3
   62    65     0     0     0
SMALL
USER_CHARGES

@<TRIPOS>ATOM
      1 C1          0.0696    1.4291    0.5779 C.3       1 <0>        -0.1896
      2 C2          0.1892   -0.0799    0.3559 C.3       1 <0>         0.1338
      3 H1         -0.7708   -0.5565    0.5544 H         1 <0>         0.1039
      4 C3          0.6115   -0.3557   -1.0909 C.3       1 <0>        -0.0191
      5 N1          0.8573   -1.7931   -1.2626 N.4       1 <0>        -0.3816
      6 C4          1.9954   -2.2084   -0.4329 C.3       1 <0>        -0.0228
      7 C5          1.6417   -2.0244    1.0466 C.3       1 <0>         0.0917
      8 N2          1.2114   -0.6328    1.2578 N.pl3     1 <0>        -1.0092
      9 S1          1.8636    0.2865    2.4710 S.o2      1 <0>         2.6904
     10 O1          3.0583   -0.3664    2.8779 O.2       1 <0>        -0.9384
     11 O2          1.8484    1.6319    2.0140 O.2       1 <0>        -0.9327
     12 C6          0.7553    0.2066    3.8385 C.ar      1 <0>        -0.6725
     13 C7         -0.2645    1.1324    3.9567 C.ar      1 <0>        -0.0212
     14 C8         -1.1339    1.0697    5.0295 C.ar      1 <0>        -0.1121
     15 C9         -0.9840    0.0810    5.9839 C.ar      1 <0>        -0.0683
     16 C10         0.0352   -0.8453    5.8652 C.ar      1 <0>        -0.1090
     17 C11         0.9021   -0.7852    4.7901 C.ar      1 <0>        -0.0166
     18 C12        -1.9313    0.0133    7.1540 C.3       1 <0>         0.1361
     19 C13        -2.0786   -1.4406    7.6073 C.3       1 <0>        -0.1516
     20 C14        -1.3786    0.8535    8.3069 C.3       1 <0>         0.4271
     21 F1         -1.2438    2.1829    7.8924 F         1 <0>        -0.1790
     22 F2         -2.2580    0.7907    9.3932 F         1 <0>        -0.1651
     23 F3         -0.1285    0.3554    8.6895 F         1 <0>        -0.1723
     24 O3         -3.2081    0.5221    6.7631 O.3       1 <0>        -0.5154
     25 C15         1.1548   -2.0721   -2.6738 C.3       1 <0>         0.0355
     26 C16         1.3114   -3.5809   -2.8734 C.3       1 <0>        -0.1383
     27 C17         2.7152   -4.1124   -3.1694 C.3       1 <0>        -0.1588
     28 C18         1.6618   -4.0751   -4.2784 C.3       1 <0>        -0.1283
     29 C19         0.4015   -4.4448   -2.0387 C.ar      1 <0>        -0.1509
     30 C20         0.9265   -5.2855   -1.0689 C.ar      1 <0>        -0.0692
     31 C21         0.0516   -6.0621   -0.3250 C.ar      1 <0>        -0.1600
     32 C22        -1.3053   -5.9732   -0.5730 C.ar      1 <0>         0.1175
     33 N3         -1.7692   -5.1628   -1.5039 N.ar      1 <0>        -0.4700
     34 C23        -0.9670   -4.4051   -2.2263 C.ar      1 <0>         0.1046
     35 H2          0.9832    1.9194    0.2413 H         1 <0>         0.1067
     36 H3         -0.7788    1.8136    0.0118 H         1 <0>         0.0892
     37 H4         -0.0806    1.6296    1.6387 H         1 <0>         0.0867
     38 H5         -0.1822   -0.0393   -1.7678 H         1 <0>         0.1476
     39 H6          1.5230    0.1983   -1.3154 H         1 <0>         0.1408
     40 H7          2.2215   -3.2573   -0.6248 H         1 <0>         0.1439
     41 H8          2.8650   -1.5984   -0.6772 H         1 <0>         0.1396
     42 H9          0.8301   -2.7004    1.3159 H         1 <0>         0.0968
     43 H10         2.5168   -2.2349    1.6613 H         1 <0>         0.1432
     44 H11        -0.3816    1.9048    3.2110 H         1 <0>         0.1501
     45 H12        -1.9302    1.7934    5.1222 H         1 <0>         0.1402
     46 H13         0.1526   -1.6176    6.6110 H         1 <0>         0.1477
     47 H14         1.6961   -1.5112    4.6954 H         1 <0>         0.1478
     48 H15        -1.1047   -1.8287    7.9055 H         1 <0>         0.0915
     49 H16        -2.7638   -1.4896    8.4537 H         1 <0>         0.0909
     50 H17        -2.4724   -2.0392    6.7859 H         1 <0>         0.0928
     51 H18        -3.1903    1.4413    6.4633 H         1 <0>         0.3886
     52 H19         0.3385   -1.7060   -3.2965 H         1 <0>         0.1391
     53 H20         2.0804   -1.5703   -2.9561 H         1 <0>         0.1392
     54 H21         3.5273   -3.3872   -3.2220 H         1 <0>         0.1131
     55 H22         2.9810   -5.0872   -2.7603 H         1 <0>         0.1118
     56 H23         1.2345   -5.0252   -4.5988 H         1 <0>         0.1130
     57 H24         1.7808   -3.3253   -5.0605 H         1 <0>         0.1145
     58 H25         1.9916   -5.3344   -0.8973 H         1 <0>         0.1425
     59 H26         0.4255   -6.7283    0.4384 H         1 <0>         0.1479
     60 H27        -1.9936   -6.5749    0.0021 H         1 <0>         0.1670
     61 H28        -1.3841   -3.7494   -2.9763 H         1 <0>         0.1587
     62 H29         0.0353   -2.3090   -0.9863 H         1 <0>         0.4201
@<TRIPOS>BOND
     1    1    2 1
     2    1   35 1
     3    1   36 1
     4    1   37 1
     5    2    3 1
     6    2    8 1
     7    2    4 1
     8    4    5 1
     9    4   38 1
    10    4   39 1
    11    5    6 1
    12    5   25 1
    13    5   62 1
    14    6    7 1
    15    6   40 1
    16    6   41 1
    17    7    8 1
    18    7   42 1
    19    7   43 1
    20    8    9 1
    21    9   10 2
    22    9   11 2
    23    9   12 1
    24   12   17 ar
    25   12   13 ar
    26   13   14 ar
    27   13   44 1
    28   14   15 ar
    29   14   45 1
    30   15   16 ar
    31   15   18 1
    32   16   17 ar
    33   16   46 1
    34   17   47 1
    35   18   19 1
    36   18   20 1
    37   18   24 1
    38   19   48 1
    39   19   49 1
    40   19   50 1
    41   20   21 1
    42   20   22 1
    43   20   23 1
    44   24   51 1
    45   25   26 1
    46   25   52 1
    47   25   53 1
    48   26   28 1
    49   26   27 1
    50   26   29 1
    51   27   28 1
    52   27   54 1
    53   27   55 1
    54   28   56 1
    55   28   57 1
    56   29   34 ar
    57   29   30 ar
    58   30   31 ar
    59   30   58 1
    60   31   32 ar
    61   31   59 1
    62   32   33 ar
    63   32   60 1
    64   33   34 ar
    65   34   61 1
@<TRIPOS>MOLECULE
CHEMBL341324
   44    45     0     0     0
SMALL
USER_CHARGES

@<TRIPOS>ATOM
      1 C1         -0.0187    1.5258    0.0104 C.3       1 <0>        -0.1740
      2 C2          0.0021   -0.0041    0.0020 C.3       1 <0>         0.1071
      3 N1         -1.3723   -0.5112    0.0124 N.am      1 <0>        -0.6264
      4 C3         -2.0716   -0.7579   -1.2510 C.3       1 <0>         0.1135
      5 C4         -1.8159   -2.1971   -1.7029 C.3       1 <0>        -0.1658
      6 C5         -1.9934   -0.7507    1.1843 C.2       1 <0>         0.5165
      7 O1         -3.1312   -1.1705    1.1929 O.2       1 <0>        -0.4989
      8 C6         -1.2740   -0.4969    2.4840 C.3       1 <0>        -0.0580
      9 C7         -2.1818   -0.8420    3.6363 C.2       1 <0>         0.1324
     10 C8         -1.8017   -1.7158    4.5990 C.2       1 <0>        -0.3061
     11 S1         -3.2480   -1.7087    5.6458 S.3       1 <0>        -0.1273
     12 C9         -4.1697   -0.6120    4.7626 C.2       1 <0>         0.4375
     13 N2         -3.3817   -0.3013    3.7553 N.2       1 <0>        -0.5749
     14 N3         -5.4465   -0.1454    5.0331 N.2       1 <0>        -1.0088
     15 S2         -6.2544   -0.6760    6.3778 S.o2      1 <0>         2.6189
     16 O2         -6.5048   -2.0608    6.1811 O.2       1 <0>        -1.0079
     17 O3         -5.5387   -0.1834    7.5023 O.2       1 <0>        -1.0045
     18 C10        -7.8248    0.1229    6.3911 C.ar      1 <0>        -0.6164
     19 C11        -8.9810   -0.6232    6.2553 C.ar      1 <0>        -0.0192
     20 C12       -10.2133    0.0027    6.2656 C.ar      1 <0>        -0.1425
     21 C13       -10.2905    1.3752    6.4113 C.ar      1 <0>        -0.0650
     22 C14        -9.1341    2.1222    6.5473 C.ar      1 <0>        -0.0661
     23 C15        -7.9010    1.4943    6.5430 C.ar      1 <0>         0.0413
     24 C16        -6.6411    2.3066    6.6972 C.3       1 <0>        -0.1697
     25 Cl1        -9.2303    3.8458    6.7303 Cl        1 <0>        -0.0698
     26 H1          1.0039    1.9031    0.0027 H         1 <0>         0.0642
     27 H2         -0.5459    1.8868   -0.8726 H         1 <0>         0.0560
     28 H3         -0.5289    1.8773    0.9072 H         1 <0>         0.0618
     29 H4          0.5123   -0.3556   -0.8948 H         1 <0>         0.0740
     30 H5          0.5293   -0.3651    0.8851 H         1 <0>         0.0792
     31 H6         -3.1417   -0.6062   -1.1097 H         1 <0>         0.0819
     32 H7         -1.7041   -0.0678   -2.0105 H         1 <0>         0.0694
     33 H8         -2.3362   -2.3807   -2.6429 H         1 <0>         0.0609
     34 H9         -0.7458   -2.3488   -1.8443 H         1 <0>         0.0516
     35 H10        -2.1835   -2.8871   -0.9434 H         1 <0>         0.0597
     36 H11        -0.3776   -1.1152    2.5299 H         1 <0>         0.0984
     37 H12        -0.9936    0.5547    2.5447 H         1 <0>         0.1000
     38 H13        -0.8782   -2.2657    4.7042 H         1 <0>         0.1701
     39 H14        -8.9211   -1.6955    6.1407 H         1 <0>         0.1466
     40 H15       -11.1160   -0.5806    6.1595 H         1 <0>         0.1376
     41 H16       -11.2534    1.8642    6.4187 H         1 <0>         0.1357
     42 H17        -6.2871    2.6182    5.7145 H         1 <0>         0.0974
     43 H18        -6.8488    3.1875    7.3046 H         1 <0>         0.0776
     44 H19        -5.8761    1.7017    7.1840 H         1 <0>         0.1120
@<TRIPOS>BOND
     1    1    2 1
     2    1   26 1
     3    1   27 1
     4    1   28 1
     5    2    3 1
     6    2   29 1
     7    2   30 1
     8    3    4 1
     9    3    6 am
    10    4    5 1
    11    4   31 1
    12    4   32 1
    13    5   33 1
    14    5   34 1
    15    5   35 1
    16    6    7 2
    17    6    8 1
    18    8    9 1
    19    8   36 1
    20    8   37 1
    21    9   13 1
    22    9   10 2
    23   10   11 1
    24   10   38 1
    25   11   12 1
    26   12   13 2
    27   12   14 1
    28   14   15 1
    29   15   16 2
    30   15   17 2
    31   15   18 1
    32   18   23 ar
    33   18   19 ar
    34   19   20 ar
    35   19   39 1
    36   20   21 ar
    37   20   40 1
    38   21   22 ar
    39   21   41 1
    40   22   23 ar
    41   22   25 1
    42   23   24 1
    43   24   42 1
    44   24   43 1
    45   24   44 1
@<TRIPOS>MOLECULE
CHEMBL341324__1
   45    46     0     0     0
SMALL
USER_CHARGES

@<TRIPOS>ATOM
      1 C1         -0.0187    1.5258    0.0104 C.3       1 <0>        -0.1683
      2 C2          0.0021   -0.0041    0.0020 C.3       1 <0>         0.1098
      3 N1         -1.3723   -0.5112    0.0124 N.am      1 <0>        -0.6105
      4 C3         -2.0716   -0.7579   -1.2510 C.3       1 <0>         0.0986
      5 C4         -1.8159   -2.1971   -1.7029 C.3       1 <0>        -0.1751
      6 C5         -1.9934   -0.7507    1.1843 C.2       1 <0>         0.5116
      7 O1         -1.4145   -0.5464    2.2303 O.2       1 <0>        -0.5215
      8 C6         -3.4072   -1.2723    1.1950 C.3       1 <0>        -0.0913
      9 C7         -3.8649   -1.4538    2.6193 C.2       1 <0>         0.1082
     10 C8         -4.5592   -0.4888    3.2222 C.2       1 <0>        -0.1746
     11 S1         -4.8442   -1.1864    4.8410 S.3       1 <0>        -0.0066
     12 C9         -4.0010   -2.7409    4.5888 C.2       1 <0>         0.5072
     13 N2         -3.5722   -2.6075    3.2858 N.pl3     1 <0>        -0.5971
     14 N3         -3.8381   -3.7417    5.4186 N.2       1 <0>        -0.9689
     15 S2         -4.4648   -3.6587    6.9491 S.o2      1 <0>         2.6506
     16 O2         -3.7571   -2.6267    7.6224 O.2       1 <0>        -0.9588
     17 O3         -5.8788   -3.6465    6.8089 O.2       1 <0>        -0.9559
     18 C10        -4.0525   -5.1659    7.7633 C.ar      1 <0>        -0.6369
     19 C11        -3.2079   -5.1516    8.8579 C.ar      1 <0>        -0.0122
     20 C12        -2.8840   -6.3335    9.4971 C.ar      1 <0>        -0.1336
     21 C13        -3.4041   -7.5308    9.0421 C.ar      1 <0>        -0.0482
     22 C14        -4.2492   -7.5457    7.9470 C.ar      1 <0>        -0.0639
     23 C15        -4.5779   -6.3614    7.3113 C.ar      1 <0>         0.0379
     24 C16        -5.5034   -6.3762    6.1220 C.3       1 <0>        -0.1746
     25 Cl1        -4.9028   -9.0488    7.3750 Cl        1 <0>        -0.0542
     26 H1          1.0039    1.9031    0.0027 H         1 <0>         0.0683
     27 H2         -0.5459    1.8868   -0.8726 H         1 <0>         0.0562
     28 H3         -0.5289    1.8773    0.9072 H         1 <0>         0.0601
     29 H4          0.5123   -0.3556   -0.8948 H         1 <0>         0.0789
     30 H5          0.5293   -0.3651    0.8851 H         1 <0>         0.0849
     31 H6         -3.1417   -0.6062   -1.1097 H         1 <0>         0.0824
     32 H7         -1.7041   -0.0678   -2.0105 H         1 <0>         0.0856
     33 H8         -2.3362   -2.3807   -2.6429 H         1 <0>         0.0727
     34 H9         -0.7458   -2.3488   -1.8443 H         1 <0>         0.0616
     35 H10        -2.1835   -2.8871   -0.9434 H         1 <0>         0.0565
     36 H11        -4.0610   -0.5603    0.6912 H         1 <0>         0.1325
     37 H12        -3.4450   -2.2302    0.6764 H         1 <0>         0.1157
     38 H13        -4.8693    0.4693    2.8319 H         1 <0>         0.2122
     39 H14        -2.8008   -4.2166    9.2134 H         1 <0>         0.1521
     40 H15        -2.2242   -6.3217   10.3521 H         1 <0>         0.1465
     41 H16        -3.1504   -8.4543    9.5412 H         1 <0>         0.1446
     42 H17        -4.9202   -6.4973    5.2092 H         1 <0>         0.0950
     43 H18        -6.2048   -7.2050    6.2177 H         1 <0>         0.0908
     44 H19        -6.0547   -5.4368    6.0790 H         1 <0>         0.1057
     45 H20        -3.0709   -3.3165    2.8536 H         1 <0>         0.4259
@<TRIPOS>BOND
     1    1    2 1
     2    1   26 1
     3    1   27 1
     4    1   28 1
     5    2    3 1
     6    2   29 1
     7    2   30 1
     8    3    4 1
     9    3    6 am
    10    4    5 1
    11    4   31 1
    12    4   32 1
    13    5   33 1
    14    5   34 1
    15    5   35 1
    16    6    7 2
    17    6    8 1
    18    8    9 1
    19    8   36 1
    20    8   37 1
    21    9   13 1
    22    9   10 2
    23   10   11 1
    24   10   38 1
    25   11   12 1
    26   12   13 1
    27   12   14 2
    28   13   45 1
    29   14   15 1
    30   15   16 2
    31   15   17 2
    32   15   18 1
    33   18   23 ar
    34   18   19 ar
    35   19   20 ar
    36   19   39 1
    37   20   21 ar
    38   20   40 1
    39   21   22 ar
    40   21   41 1
    41   22   23 ar
    42   22   25 1
    43   23   24 1
    44   24   42 1
    45   24   43 1
    46   24   44 1
@<TRIPOS>MOLECULE
CHEMBL473555
   66    69     0     0     0
SMALL
USER_CHARGES

@<TRIPOS>ATOM
      1 C1         -0.2162    1.5398    0.2695 C.3       1 <0>        -0.1852
      2 C2         -0.0870    0.0208    0.1396 C.3       1 <0>         0.1602
      3 H1         -1.0573   -0.4452    0.3115 H         1 <0>         0.0855
      4 C3          0.4134   -0.3351   -1.2644 C.3       1 <0>         0.0486
      5 N1          0.6826   -1.7776   -1.3338 N.3       1 <0>        -0.5246
      6 C4          1.7556   -2.1645   -0.4081 C.3       1 <0>         0.0422
      7 C5          1.3101   -1.8836    1.0310 C.3       1 <0>         0.1230
      8 N2          0.8827   -0.4788    1.1261 N.pl3     1 <0>        -0.9955
      9 S1          1.4815    0.5148    2.3079 S.o2      1 <0>         2.6883
     10 O1          2.6467   -0.1180    2.8186 O.2       1 <0>        -0.9588
     11 O2          1.5040    1.8268    1.7624 O.2       1 <0>        -0.9510
     12 C6          0.3037    0.5344    3.6182 C.ar      1 <0>        -0.6810
     13 C7         -0.7109    1.4732    3.6216 C.ar      1 <0>        -0.0225
     14 C8         -1.6350    1.4886    4.6497 C.ar      1 <0>        -0.1359
     15 C9         -1.5447    0.5648    5.6740 C.ar      1 <0>        -0.0116
     16 C10        -0.5306   -0.3746    5.6701 C.ar      1 <0>        -0.1415
     17 C11         0.3909   -0.3927    4.6399 C.ar      1 <0>        -0.0163
     18 C12        -2.5514    0.5822    6.7953 C.3       1 <0>        -0.0388
     19 C13        -3.9543    0.3652    6.2245 C.3       1 <0>        -0.1399
     20 C14        -2.2270   -0.5347    7.7894 C.3       1 <0>        -0.1479
     21 C15        -2.4952    1.9336    7.5103 C.3       1 <0>        -0.1411
     22 C16         0.9994   -2.1885   -2.7081 C.3       1 <0>         0.1663
     23 C17        -0.1542   -1.8432   -3.6142 C.ar      1 <0>        -0.0821
     24 C18        -1.4481   -2.1415   -3.2300 C.ar      1 <0>        -0.0883
     25 C19        -2.5063   -1.8248   -4.0611 C.ar      1 <0>        -0.1230
     26 C20        -2.2706   -1.2093   -5.2762 C.ar      1 <0>        -0.1152
     27 C21        -0.9768   -0.9101   -5.6600 C.ar      1 <0>        -0.1199
     28 C22         0.0811   -1.2230   -4.8270 C.ar      1 <0>        -0.1110
     29 C23         1.2394   -3.6758   -2.7450 C.ar      1 <0>        -0.0325
     30 C24         0.3852   -4.5490   -2.0892 C.ar      1 <0>        -0.1442
     31 C25         0.6371   -5.9068   -2.1452 C.ar      1 <0>         0.0957
     32 N3          1.6751   -6.3733   -2.8115 N.ar      1 <0>        -0.4840
     33 C26         2.5083   -5.5725   -3.4468 C.ar      1 <0>         0.1001
     34 C27         2.3165   -4.2038   -3.4403 C.ar      1 <0>        -0.1673
     35 H2          0.7020    2.0135   -0.0779 H         1 <0>         0.0917
     36 H3         -1.0547    1.8861   -0.3346 H         1 <0>         0.0722
     37 H4         -0.3877    1.8019    1.3135 H         1 <0>         0.0715
     38 H5         -0.3470   -0.0713   -1.9994 H         1 <0>         0.0941
     39 H6          1.3298    0.2164   -1.4745 H         1 <0>         0.0450
     40 H7          1.9685   -3.2274   -0.5220 H         1 <0>         0.0913
     41 H8          2.6533   -1.5875   -0.6301 H         1 <0>         0.0440
     42 H9          0.4758   -2.5354    1.2899 H         1 <0>         0.0796
     43 H10         2.1419   -2.0605    1.7129 H         1 <0>         0.1008
     44 H11        -0.7815    2.1950    2.8213 H         1 <0>         0.1424
     45 H12        -2.4272    2.2226    4.6527 H         1 <0>         0.1320
     46 H13        -0.4599   -1.0962    6.4706 H         1 <0>         0.1375
     47 H14         1.1810   -1.1290    4.6349 H         1 <0>         0.1381
     48 H15        -3.9944   -0.5976    5.7151 H         1 <0>         0.0581
     49 H16        -4.6825    0.3778    7.0354 H         1 <0>         0.0638
     50 H17        -4.1854    1.1608    5.5162 H         1 <0>         0.0592
     51 H18        -1.2275   -0.3801    8.1960 H         1 <0>         0.0610
     52 H19        -2.9551   -0.5221    8.6004 H         1 <0>         0.0632
     53 H20        -2.2670   -1.4975    7.2800 H         1 <0>         0.0609
     54 H21        -2.7264    2.7293    6.8021 H         1 <0>         0.0594
     55 H22        -3.2234    1.9462    8.3213 H         1 <0>         0.0641
     56 H23        -1.4958    2.0882    7.9170 H         1 <0>         0.0585
     57 H24         1.8952   -1.6674   -3.0458 H         1 <0>         0.0626
     58 H25        -1.6323   -2.6224   -2.2807 H         1 <0>         0.1291
     59 H26        -3.5172   -2.0585   -3.7613 H         1 <0>         0.1224
     60 H27        -3.0973   -0.9625   -5.9259 H         1 <0>         0.1214
     61 H28        -0.7926   -0.4295   -6.6095 H         1 <0>         0.1225
     62 H29         1.0917   -0.9859   -5.1252 H         1 <0>         0.1194
     63 H30        -0.4661   -4.1730   -1.5413 H         1 <0>         0.1408
     64 H31        -0.0235   -6.5936   -1.6371 H         1 <0>         0.1551
     65 H32         3.3478   -5.9913   -3.9817 H         1 <0>         0.1555
     66 H33         2.9995   -3.5535   -3.9666 H         1 <0>         0.1321
@<TRIPOS>BOND
     1    1    2 1
     2    1   35 1
     3    1   36 1
     4    1   37 1
     5    2    3 1
     6    2    8 1
     7    2    4 1
     8    4    5 1
     9    4   38 1
    10    4   39 1
    11    5    6 1
    12    5   22 1
    13    6    7 1
    14    6   40 1
    15    6   41 1
    16    7    8 1
    17    7   42 1
    18    7   43 1
    19    8    9 1
    20    9   10 2
    21    9   11 2
    22    9   12 1
    23   12   17 ar
    24   12   13 ar
    25   13   14 ar
    26   13   44 1
    27   14   15 ar
    28   14   45 1
    29   15   16 ar
    30   15   18 1
    31   16   17 ar
    32   16   46 1
    33   17   47 1
    34   18   19 1
    35   18   20 1
    36   18   21 1
    37   19   48 1
    38   19   49 1
    39   19   50 1
    40   20   51 1
    41   20   52 1
    42   20   53 1
    43   21   54 1
    44   21   55 1
    45   21   56 1
    46   22   23 1
    47   22   29 1
    48   22   57 1
    49   23   28 ar
    50   23   24 ar
    51   24   25 ar
    52   24   58 1
    53   25   26 ar
    54   25   59 1
    55   26   27 ar
    56   26   60 1
    57   27   28 ar
    58   27   61 1
    59   28   62 1
    60   29   34 ar
    61   29   30 ar
    62   30   31 ar
    63   30   63 1
    64   31   32 ar
    65   31   64 1
    66   32   33 ar
    67   33   34 ar
    68   33   65 1
    69   34   66 1
@<TRIPOS>MOLECULE
CHEMBL473555__1
   67    70     0     0     0
SMALL
USER_CHARGES

@<TRIPOS>ATOM
      1 C1         -0.2162    1.5398    0.2695 C.3       1 <0>        -0.1886
      2 C2         -0.0870    0.0208    0.1396 C.3       1 <0>         0.1609
      3 H1         -1.0573   -0.4452    0.3115 H         1 <0>         0.0876
      4 C3          0.4134   -0.3351   -1.2644 C.3       1 <0>         0.0489
      5 N1          0.6826   -1.7776   -1.3338 N.3       1 <0>        -0.5272
      6 C4          1.7556   -2.1645   -0.4081 C.3       1 <0>         0.0363
      7 C5          1.3101   -1.8836    1.0310 C.3       1 <0>         0.1225
      8 N2          0.8827   -0.4788    1.1261 N.pl3     1 <0>        -0.9984
      9 S1          1.4815    0.5148    2.3079 S.o2      1 <0>         2.6885
     10 O1          2.6467   -0.1180    2.8186 O.2       1 <0>        -0.9573
     11 O2          1.5040    1.8268    1.7624 O.2       1 <0>        -0.9466
     12 C6          0.3037    0.5344    3.6182 C.ar      1 <0>        -0.6837
     13 C7         -0.7109    1.4732    3.6216 C.ar      1 <0>        -0.0225
     14 C8         -1.6350    1.4886    4.6497 C.ar      1 <0>        -0.1342
     15 C9         -1.5447    0.5648    5.6740 C.ar      1 <0>        -0.0069
     16 C10        -0.5306   -0.3746    5.6701 C.ar      1 <0>        -0.1409
     17 C11         0.3909   -0.3927    4.6399 C.ar      1 <0>        -0.0177
     18 C12        -2.5514    0.5822    6.7953 C.3       1 <0>        -0.0400
     19 C13        -3.9543    0.3652    6.2245 C.3       1 <0>        -0.1399
     20 C14        -2.2270   -0.5347    7.7894 C.3       1 <0>        -0.1484
     21 C15        -2.4952    1.9336    7.5103 C.3       1 <0>        -0.1425
     22 C16         0.9994   -2.1885   -2.7081 C.3       1 <0>         0.1505
     23 C17        -0.1542   -1.8432   -3.6142 C.ar      1 <0>        -0.1065
     24 C18        -1.4481   -2.1415   -3.2300 C.ar      1 <0>        -0.0912
     25 C19        -2.5063   -1.8248   -4.0611 C.ar      1 <0>        -0.1190
     26 C20        -2.2706   -1.2093   -5.2762 C.ar      1 <0>        -0.1012
     27 C21        -0.9768   -0.9101   -5.6600 C.ar      1 <0>        -0.1149
     28 C22         0.0811   -1.2230   -4.8270 C.ar      1 <0>        -0.1042
     29 C23         1.2394   -3.6758   -2.7450 C.ar      1 <0>         0.0536
     30 C24         0.3852   -4.5490   -2.0892 C.ar      1 <0>        -0.1065
     31 C25         0.6371   -5.9068   -2.1452 C.ar      1 <0>         0.1298
     32 N3          1.6751   -6.3733   -2.8115 N.ar      1 <0>        -0.4459
     33 C26         2.5083   -5.5725   -3.4468 C.ar      1 <0>         0.1371
     34 C27         2.3165   -4.2038   -3.4403 C.ar      1 <0>        -0.1255
     35 H2          0.7020    2.0135   -0.0779 H         1 <0>         0.0936
     36 H3         -1.0547    1.8861   -0.3346 H         1 <0>         0.0750
     37 H4         -0.3877    1.8019    1.3135 H         1 <0>         0.0754
     38 H5         -0.3470   -0.0713   -1.9994 H         1 <0>         0.1000
     39 H6          1.3298    0.2164   -1.4745 H         1 <0>         0.0531
     40 H7          1.9685   -3.2274   -0.5220 H         1 <0>         0.0796
     41 H8          2.6533   -1.5875   -0.6301 H         1 <0>         0.0537
     42 H9          0.4758   -2.5354    1.2899 H         1 <0>         0.0801
     43 H10         2.1419   -2.0605    1.7129 H         1 <0>         0.1045
     44 H11        -0.7815    2.1950    2.8213 H         1 <0>         0.1424
     45 H12        -2.4272    2.2226    4.6527 H         1 <0>         0.1339
     46 H13        -0.4599   -1.0962    6.4706 H         1 <0>         0.1386
     47 H14         1.1810   -1.1290    4.6349 H         1 <0>         0.1370
     48 H15        -3.9944   -0.5976    5.7151 H         1 <0>         0.0570
     49 H16        -4.6825    0.3777    7.0354 H         1 <0>         0.0657
     50 H17        -4.1854    1.1608    5.5162 H         1 <0>         0.0594
     51 H18        -1.2275   -0.3801    8.1960 H         1 <0>         0.0614
     52 H19        -2.9551   -0.5221    8.6004 H         1 <0>         0.0651
     53 H20        -2.2670   -1.4975    7.2800 H         1 <0>         0.0599
     54 H21        -2.7264    2.7293    6.8021 H         1 <0>         0.0600
     55 H22        -3.2234    1.9462    8.3213 H         1 <0>         0.0661
     56 H23        -1.4958    2.0882    7.9170 H         1 <0>         0.0593
     57 H24         1.8952   -1.6674   -3.0458 H         1 <0>         0.0835
     58 H25        -1.6323   -2.6224   -2.2807 H         1 <0>         0.1295
     59 H26        -3.5172   -2.0585   -3.7613 H         1 <0>         0.1283
     60 H27        -3.0973   -0.9625   -5.9259 H         1 <0>         0.1284
     61 H28        -0.7926   -0.4295   -6.6095 H         1 <0>         0.1293
     62 H29         1.0917   -0.9859   -5.1252 H         1 <0>         0.1241
     63 H30        -0.4661   -4.1730   -1.5413 H         1 <0>         0.1904
     64 H31        -0.0235   -6.5936   -1.6371 H         1 <0>         0.2112
     65 H32         3.3478   -5.9913   -3.9817 H         1 <0>         0.2116
     66 H33         2.9995   -3.5535   -3.9666 H         1 <0>         0.1844
     67 H34         1.8300   -7.3306   -2.8348 H         1 <0>         0.4526
@<TRIPOS>BOND
     1    1    2 1
     2    1   35 1
     3    1   36 1
     4    1   37 1
     5    2    3 1
     6    2    8 1
     7    2    4 1
     8    4    5 1
     9    4   38 1
    10    4   39 1
    11    5    6 1
    12    5   22 1
    13    6    7 1
    14    6   40 1
    15    6   41 1
    16    7    8 1
    17    7   42 1
    18    7   43 1
    19    8    9 1
    20    9   10 2
    21    9   11 2
    22    9   12 1
    23   12   17 ar
    24   12   13 ar
    25   13   14 ar
    26   13   44 1
    27   14   15 ar
    28   14   45 1
    29   15   16 ar
    30   15   18 1
    31   16   17 ar
    32   16   46 1
    33   17   47 1
    34   18   19 1
    35   18   20 1
    36   18   21 1
    37   19   48 1
    38   19   49 1
    39   19   50 1
    40   20   51 1
    41   20   52 1
    42   20   53 1
    43   21   54 1
    44   21   55 1
    45   21   56 1
    46   22   23 1
    47   22   29 1
    48   22   57 1
    49   23   28 ar
    50   23   24 ar
    51   24   25 ar
    52   24   58 1
    53   25   26 ar
    54   25   59 1
    55   26   27 ar
    56   26   60 1
    57   27   28 ar
    58   27   61 1
    59   28   62 1
    60   29   34 ar
    61   29   30 ar
    62   30   31 ar
    63   30   63 1
    64   31   32 ar
    65   31   64 1
    66   32   33 ar
    67   32   67 1
    68   33   34 ar
    69   33   65 1
    70   34   66 1
@<TRIPOS>MOLECULE
CHEMBL473555__2
   66    69     0     0     0
SMALL
USER_CHARGES

@<TRIPOS>ATOM
      1 C1         -0.4392    1.4380    0.2866 C.3       1 <0>        -0.1875
      2 C2         -0.2028   -0.0679    0.1553 C.3       1 <0>         0.1609
      3 H1         -1.1327   -0.6027    0.3486 H         1 <0>         0.0854
      4 C3          0.2918   -0.3899   -1.2589 C.3       1 <0>         0.0469
      5 N1          0.6636   -1.8092   -1.3328 N.3       1 <0>        -0.5254
      6 C4          1.7816   -2.1148   -0.4302 C.3       1 <0>         0.0420
      7 C5          1.3480   -1.8635    1.0179 C.3       1 <0>         0.1225
      8 N2          0.8217   -0.4932    1.1210 N.pl3     1 <0>        -0.9954
      9 S1          1.3720    0.5442    2.2886 S.o2      1 <0>         2.6880
     10 O1          2.5889   -0.0031    2.7774 O.2       1 <0>        -0.9588
     11 O2          1.2911    1.8526    1.7402 O.2       1 <0>        -0.9512
     12 C6          0.2218    0.4851    3.6221 C.ar      1 <0>        -0.6808
     13 C7         -0.8563    1.3500    3.6439 C.ar      1 <0>        -0.0226
     14 C8         -1.7587    1.3036    4.6900 C.ar      1 <0>        -0.1359
     15 C9         -1.5832    0.3920    5.7143 C.ar      1 <0>        -0.0117
     16 C10        -0.5056   -0.4736    5.6921 C.ar      1 <0>        -0.1416
     17 C11         0.3944   -0.4301    4.6437 C.ar      1 <0>        -0.0164
     18 C12        -2.5664    0.3421    6.8553 C.3       1 <0>        -0.0388
     19 C13        -3.9614    0.0247    6.3130 C.3       1 <0>        -0.1399
     20 C14        -2.1443   -0.7457    7.8450 C.3       1 <0>        -0.1479
     21 C15        -2.5916    1.6966    7.5663 C.3       1 <0>        -0.1412
     22 C16         0.9797   -2.1994   -2.7133 C.3       1 <0>         0.1665
     23 C17         1.3556   -3.6583   -2.7494 C.ar      1 <0>        -0.0830
     24 C18         0.6586   -4.5709   -1.9798 C.ar      1 <0>        -0.0901
     25 C19         1.0034   -5.9091   -2.0129 C.ar      1 <0>        -0.1230
     26 C20         2.0450   -6.3348   -2.8159 C.ar      1 <0>        -0.1152
     27 C21         2.7415   -5.4224   -3.5861 C.ar      1 <0>        -0.1196
     28 C22         2.3939   -4.0848   -3.5563 C.ar      1 <0>        -0.1108
     29 C23        -0.2251   -1.9693   -3.5887 C.ar      1 <0>        -0.0320
     30 C24        -1.5010   -2.2609   -3.1311 C.ar      1 <0>        -0.1435
     31 C25        -2.5822   -2.0368   -3.9623 C.ar      1 <0>         0.0949
     32 N3         -2.4104   -1.5525   -5.1768 N.ar      1 <0>        -0.4843
     33 C26        -1.2119   -1.2637   -5.6450 C.ar      1 <0>         0.0996
     34 C27        -0.0846   -1.4556   -4.8689 C.ar      1 <0>        -0.1672
     35 H2          0.4567    1.9750   -0.0249 H         1 <0>         0.0963
     36 H3         -1.2769    1.7309   -0.3464 H         1 <0>         0.0725
     37 H4         -0.6660    1.6811    1.3247 H         1 <0>         0.0693
     38 H5         -0.5015   -0.1839   -1.9774 H         1 <0>         0.0903
     39 H6          1.1609    0.2262   -1.4893 H         1 <0>         0.0456
     40 H7          2.0687   -3.1598   -0.5477 H         1 <0>         0.0967
     41 H8          2.6299   -1.4747   -0.6722 H         1 <0>         0.0436
     42 H9          0.5690   -2.5736    1.2954 H         1 <0>         0.0795
     43 H10         2.2049   -1.9778    1.6818 H         1 <0>         0.1010
     44 H11        -0.9934    2.0622    2.8437 H         1 <0>         0.1424
     45 H12        -2.6006    1.9798    4.7074 H         1 <0>         0.1320
     46 H13        -0.3683   -1.1856    6.4925 H         1 <0>         0.1375
     47 H14         1.2343   -1.1088    4.6245 H         1 <0>         0.1381
     48 H15        -3.9434   -0.9403    5.8064 H         1 <0>         0.0581
     49 H16        -4.6725   -0.0114    7.1382 H         1 <0>         0.0638
     50 H17        -4.2621    0.7996    5.6079 H         1 <0>         0.0592
     51 H18        -1.1504   -0.5196    8.2314 H         1 <0>         0.0610
     52 H19        -2.8554   -0.7818    8.6703 H         1 <0>         0.0632
     53 H20        -2.1263   -1.7107    7.3384 H         1 <0>         0.0608
     54 H21        -2.8923    2.4715    6.8613 H         1 <0>         0.0595
     55 H22        -3.3027    1.6605    8.3916 H         1 <0>         0.0641
     56 H23        -1.5978    1.9227    7.9527 H         1 <0>         0.0585
     57 H24         1.8138   -1.6001   -3.0783 H         1 <0>         0.0633
     58 H25        -0.1552   -4.2383   -1.3525 H         1 <0>         0.1308
     59 H26         0.4593   -6.6220   -1.4111 H         1 <0>         0.1227
     60 H27         2.3149   -7.3803   -2.8412 H         1 <0>         0.1215
     61 H28         3.5554   -5.7549   -4.2132 H         1 <0>         0.1226
     62 H29         2.9356   -3.3724   -4.1609 H         1 <0>         0.1195
     63 H30        -1.6481   -2.6584   -2.1378 H         1 <0>         0.1416
     64 H31        -3.5793   -2.2614   -3.6134 H         1 <0>         0.1548
     65 H32        -1.1105   -0.8688   -6.6451 H         1 <0>         0.1552
     66 H33         0.8938   -1.2125   -5.2562 H         1 <0>         0.1318
@<TRIPOS>BOND
     1    1    2 1
     2    1   35 1
     3    1   36 1
     4    1   37 1
     5    2    3 1
     6    2    8 1
     7    2    4 1
     8    4    5 1
     9    4   38 1
    10    4   39 1
    11    5    6 1
    12    5   22 1
    13    6    7 1
    14    6   40 1
    15    6   41 1
    16    7    8 1
    17    7   42 1
    18    7   43 1
    19    8    9 1
    20    9   10 2
    21    9   11 2
    22    9   12 1
    23   12   17 ar
    24   12   13 ar
    25   13   14 ar
    26   13   44 1
    27   14   15 ar
    28   14   45 1
    29   15   16 ar
    30   15   18 1
    31   16   17 ar
    32   16   46 1
    33   17   47 1
    34   18   19 1
    35   18   20 1
    36   18   21 1
    37   19   48 1
    38   19   49 1
    39   19   50 1
    40   20   51 1
    41   20   52 1
    42   20   53 1
    43   21   54 1
    44   21   55 1
    45   21   56 1
    46   22   23 1
    47   22   29 1
    48   22   57 1
    49   23   28 ar
    50   23   24 ar
    51   24   25 ar
    52   24   58 1
    53   25   26 ar
    54   25   59 1
    55   26   27 ar
    56   26   60 1
    57   27   28 ar
    58   27   61 1
    59   28   62 1
    60   29   34 ar
    61   29   30 ar
    62   30   31 ar
    63   30   63 1
    64   31   32 ar
    65   31   64 1
    66   32   33 ar
    67   33   34 ar
    68   33   65 1
    69   34   66 1
@<TRIPOS>MOLECULE
CHEMBL473555__3
   67    70     0     0     0
SMALL
USER_CHARGES

@<TRIPOS>ATOM
      1 C1         -0.4392    1.4380    0.2866 C.3       1 <0>        -0.1910
      2 C2         -0.2028   -0.0679    0.1553 C.3       1 <0>         0.1621
      3 H1         -1.1327   -0.6027    0.3486 H         1 <0>         0.0856
      4 C3          0.2918   -0.3899   -1.2589 C.3       1 <0>         0.0404
      5 N1          0.6636   -1.8092   -1.3328 N.3       1 <0>        -0.5288
      6 C4          1.7816   -2.1148   -0.4302 C.3       1 <0>         0.0431
      7 C5          1.3480   -1.8635    1.0179 C.3       1 <0>         0.1207
      8 N2          0.8217   -0.4932    1.1210 N.pl3     1 <0>        -0.9983
      9 S1          1.3720    0.5442    2.2886 S.o2      1 <0>         2.6880
     10 O1          2.5889   -0.0031    2.7774 O.2       1 <0>        -0.9533
     11 O2          1.2911    1.8526    1.7402 O.2       1 <0>        -0.9499
     12 C6          0.2218    0.4851    3.6221 C.ar      1 <0>        -0.6834
     13 C7         -0.8563    1.3500    3.6439 C.ar      1 <0>        -0.0244
     14 C8         -1.7587    1.3036    4.6900 C.ar      1 <0>        -0.1353
     15 C9         -1.5832    0.3920    5.7143 C.ar      1 <0>        -0.0071
     16 C10        -0.5056   -0.4736    5.6921 C.ar      1 <0>        -0.1398
     17 C11         0.3944   -0.4301    4.6437 C.ar      1 <0>        -0.0160
     18 C12        -2.5664    0.3421    6.8553 C.3       1 <0>        -0.0399
     19 C13        -3.9614    0.0247    6.3130 C.3       1 <0>        -0.1394
     20 C14        -2.1443   -0.7457    7.8450 C.3       1 <0>        -0.1490
     21 C15        -2.5916    1.6966    7.5663 C.3       1 <0>        -0.1423
     22 C16         0.9797   -2.1994   -2.7133 C.3       1 <0>         0.1506
     23 C17         1.3556   -3.6583   -2.7494 C.ar      1 <0>        -0.1075
     24 C18         0.6586   -4.5709   -1.9798 C.ar      1 <0>        -0.0915
     25 C19         1.0034   -5.9091   -2.0129 C.ar      1 <0>        -0.1189
     26 C20         2.0450   -6.3348   -2.8159 C.ar      1 <0>        -0.1011
     27 C21         2.7415   -5.4224   -3.5861 C.ar      1 <0>        -0.1151
     28 C22         2.3939   -4.0848   -3.5563 C.ar      1 <0>        -0.1052
     29 C23        -0.2251   -1.9693   -3.5887 C.ar      1 <0>         0.0541
     30 C24        -1.5010   -2.2609   -3.1311 C.ar      1 <0>        -0.1058
     31 C25        -2.5822   -2.0368   -3.9623 C.ar      1 <0>         0.1291
     32 N3         -2.4104   -1.5525   -5.1768 N.ar      1 <0>        -0.4461
     33 C26        -1.2119   -1.2637   -5.6450 C.ar      1 <0>         0.1366
     34 C27        -0.0846   -1.4556   -4.8689 C.ar      1 <0>        -0.1256
     35 H2          0.4567    1.9750   -0.0249 H         1 <0>         0.0986
     36 H3         -1.2769    1.7309   -0.3464 H         1 <0>         0.0704
     37 H4         -0.6660    1.6811    1.3247 H         1 <0>         0.0750
     38 H5         -0.5015   -0.1839   -1.9774 H         1 <0>         0.0795
     39 H6          1.1609    0.2262   -1.4893 H         1 <0>         0.0555
     40 H7          2.0687   -3.1598   -0.5477 H         1 <0>         0.1022
     41 H8          2.6299   -1.4747   -0.6722 H         1 <0>         0.0518
     42 H9          0.5690   -2.5736    1.2954 H         1 <0>         0.0820
     43 H10         2.2049   -1.9778    1.6818 H         1 <0>         0.1069
     44 H11        -0.9934    2.0622    2.8437 H         1 <0>         0.1409
     45 H12        -2.6006    1.9798    4.7074 H         1 <0>         0.1330
     46 H13        -0.3683   -1.1856    6.4925 H         1 <0>         0.1394
     47 H14         1.2343   -1.1088    4.6245 H         1 <0>         0.1387
     48 H15        -3.9434   -0.9403    5.8064 H         1 <0>         0.0572
     49 H16        -4.6725   -0.0114    7.1382 H         1 <0>         0.0657
     50 H17        -4.2621    0.7996    5.6079 H         1 <0>         0.0585
     51 H18        -1.1504   -0.5196    8.2314 H         1 <0>         0.0619
     52 H19        -2.8554   -0.7818    8.6703 H         1 <0>         0.0652
     53 H20        -2.1263   -1.7107    7.3384 H         1 <0>         0.0605
     54 H21        -2.8923    2.4715    6.8613 H         1 <0>         0.0593
     55 H22        -3.3027    1.6605    8.3916 H         1 <0>         0.0661
     56 H23        -1.5978    1.9227    7.9527 H         1 <0>         0.0595
     57 H24         1.8138   -1.6001   -3.0783 H         1 <0>         0.0847
     58 H25        -0.1552   -4.2383   -1.3525 H         1 <0>         0.1324
     59 H26         0.4593   -6.6220   -1.4111 H         1 <0>         0.1287
     60 H27         2.3149   -7.3803   -2.8412 H         1 <0>         0.1285
     61 H28         3.5554   -5.7549   -4.2132 H         1 <0>         0.1292
     62 H29         2.9356   -3.3724   -4.1609 H         1 <0>         0.1237
     63 H30        -1.6481   -2.6584   -2.1378 H         1 <0>         0.1912
     64 H31        -3.5793   -2.2614   -3.6134 H         1 <0>         0.2108
     65 H32        -1.1105   -0.8688   -6.6451 H         1 <0>         0.2113
     66 H33         0.8938   -1.2125   -5.2562 H         1 <0>         0.1840
     67 H34        -3.1858   -1.4050   -5.7405 H         1 <0>         0.4524
@<TRIPOS>BOND
     1    1    2 1
     2    1   35 1
     3    1   36 1
     4    1   37 1
     5    2    3 1
     6    2    8 1
     7    2    4 1
     8    4    5 1
     9    4   38 1
    10    4   39 1
    11    5    6 1
    12    5   22 1
    13    6    7 1
    14    6   40 1
    15    6   41 1
    16    7    8 1
    17    7   42 1
    18    7   43 1
    19    8    9 1
    20    9   10 2
    21    9   11 2
    22    9   12 1
    23   12   17 ar
    24   12   13 ar
    25   13   14 ar
    26   13   44 1
    27   14   15 ar
    28   14   45 1
    29   15   16 ar
    30   15   18 1
    31   16   17 ar
    32   16   46 1
    33   17   47 1
    34   18   19 1
    35   18   20 1
    36   18   21 1
    37   19   48 1
    38   19   49 1
    39   19   50 1
    40   20   51 1
    41   20   52 1
    42   20   53 1
    43   21   54 1
    44   21   55 1
    45   21   56 1
    46   22   23 1
    47   22   29 1
    48   22   57 1
    49   23   28 ar
    50   23   24 ar
    51   24   25 ar
    52   24   58 1
    53   25   26 ar
    54   25   59 1
    55   26   27 ar
    56   26   60 1
    57   27   28 ar
    58   27   61 1
    59   28   62 1
    60   29   34 ar
    61   29   30 ar
    62   30   31 ar
    63   30   63 1
    64   31   32 ar
    65   31   64 1
    66   32   33 ar
    67   32   67 1
    68   33   34 ar
    69   33   65 1
    70   34   66 1
@<TRIPOS>MOLECULE
CHEMBL220102
   54    58     0     0     0
SMALL
USER_CHARGES

@<TRIPOS>ATOM
      1 C1          0.3107   -0.4786   -1.0953 C.3       1 <0>        -0.1399
      2 C2         -0.2254   -0.1633    0.3041 C.3       1 <0>        -0.1451
      3 C3          0.7490   -0.7056    1.3518 C.3       1 <0>        -0.0084
      4 N1          2.0629   -0.0751    1.1760 N.4       1 <0>        -0.3456
      5 C4          2.6151   -0.4322   -0.1362 C.3       1 <0>        -0.0180
      6 C5          1.7124    0.1206   -1.2413 C.3       1 <0>        -0.1444
      7 C6          2.9726   -0.5402    2.2315 C.3       1 <0>        -0.0959
      8 C7          4.2853   -1.1940    1.7952 C.3       1 <0>        -0.1294
      9 C8          3.1631   -2.0505    2.3851 C.3       1 <0>        -0.1142
     10 C9          2.9940    0.2950    3.4857 C.2       1 <0>         0.5450
     11 O1          3.1153   -0.2391    4.5679 O.2       1 <0>        -0.4787
     12 N2          2.8782    1.6353    3.4049 N.am      1 <0>        -0.7155
     13 C10         3.0080    2.4559    4.6116 C.3       1 <0>         0.1555
     14 C11         1.6572    2.5292    5.3263 C.3       1 <0>        -0.0927
     15 C12         0.6196    3.1558    4.3927 C.3       1 <0>        -0.1073
     16 C13         1.0685    4.5661    4.0046 C.3       1 <0>        -0.0864
     17 C14         2.4193    4.4927    3.2899 C.3       1 <0>        -0.1118
     18 C15         3.4569    3.8661    4.2235 C.3       1 <0>        -0.0903
     19 C16         3.5925    4.7230    5.4837 C.3       1 <0>        -0.0988
     20 C17         2.2417    4.7964    6.1984 C.3       1 <0>         0.1350
     21 C18         1.2041    5.4230    5.2648 C.3       1 <0>        -0.1410
     22 C19         1.7929    3.3861    6.5865 C.3       1 <0>        -0.1387
     23 O2          2.3684    5.5968    7.3754 O.3       1 <0>        -0.5562
     24 H1          0.3601   -1.5589   -1.2318 H         1 <0>         0.0840
     25 H2         -0.3509   -0.0452   -1.8454 H         1 <0>         0.0974
     26 H3         -0.3230    0.9159    0.4218 H         1 <0>         0.0874
     27 H4         -1.1998   -0.6339    0.4351 H         1 <0>         0.1163
     28 H5          0.3702   -0.4829    2.3493 H         1 <0>         0.1289
     29 H6          0.8456   -1.7848    1.2334 H         1 <0>         0.1329
     30 H7          3.6139   -0.0077   -0.2373 H         1 <0>         0.1356
     31 H8          2.6719   -1.5173   -0.2230 H         1 <0>         0.1337
     32 H9          2.1232   -0.1471   -2.2148 H         1 <0>         0.1170
     33 H10         1.6551    1.2057   -1.1556 H         1 <0>         0.0885
     34 H11         4.4738   -1.2791    0.7250 H         1 <0>         0.1362
     35 H12         5.1647   -1.0200    2.4153 H         1 <0>         0.1384
     36 H13         3.3042   -2.4400    3.3933 H         1 <0>         0.1463
     37 H14         2.6134   -2.6990    1.7030 H         1 <0>         0.1285
     38 H15         2.7088    2.0567    2.5478 H         1 <0>         0.3909
     39 H16         3.7472    2.0094    5.2767 H         1 <0>         0.1006
     40 H17         1.3374    1.5245    5.6028 H         1 <0>         0.0809
     41 H18         0.5230    2.5453    3.4949 H         1 <0>         0.0521
     42 H19        -0.3427    3.2080    4.9019 H         1 <0>         0.0720
     43 H20         0.3293    5.0125    3.3395 H         1 <0>         0.0795
     44 H21         2.3227    3.8822    2.3921 H         1 <0>         0.0530
     45 H22         2.7391    5.4974    3.0134 H         1 <0>         0.0793
     46 H23         4.4192    3.8139    3.7143 H         1 <0>         0.0878
     47 H24         4.3317    4.2766    6.1488 H         1 <0>         0.0774
     48 H25         3.9123    5.7277    5.2072 H         1 <0>         0.0827
     49 H26         1.5239    6.4277    4.9883 H         1 <0>         0.0765
     50 H27         0.2418    5.4752    5.7740 H         1 <0>         0.0700
     51 H28         0.8305    3.4384    7.0957 H         1 <0>         0.0746
     52 H29         2.5321    2.9397    7.2516 H         1 <0>         0.0774
     53 H30         1.5483    5.6870    7.8798 H         1 <0>         0.3811
     54 H31         1.9647    0.9272    1.2370 H         1 <0>         0.4158
@<TRIPOS>BOND
     1    1    6 1
     2    1    2 1
     3    1   24 1
     4    1   25 1
     5    2    3 1
     6    2   26 1
     7    2   27 1
     8    3    4 1
     9    3   28 1
    10    3   29 1
    11    4    5 1
    12    4    7 1
    13    4   54 1
    14    5    6 1
    15    5   30 1
    16    5   31 1
    17    6   32 1
    18    6   33 1
    19    7    9 1
    20    7    8 1
    21    7   10 1
    22    8    9 1
    23    8   34 1
    24    8   35 1
    25    9   36 1
    26    9   37 1
    27   10   11 2
    28   10   12 am
    29   12   13 1
    30   12   38 1
    31   13   18 1
    32   13   14 1
    33   13   39 1
    34   14   22 1
    35   14   15 1
    36   14   40 1
    37   15   16 1
    38   15   41 1
    39   15   42 1
    40   16   21 1
    41   16   17 1
    42   16   43 1
    43   17   18 1
    44   17   44 1
    45   17   45 1
    46   18   19 1
    47   18   46 1
    48   19   20 1
    49   19   47 1
    50   19   48 1
    51   20   21 1
    52   20   22 1
    53   20   23 1
    54   21   49 1
    55   21   50 1
    56   22   51 1
    57   22   52 1
    58   23   53 1
@<TRIPOS>MOLECULE
CHEMBL565094
   53    55     0     0     0
SMALL
USER_CHARGES

@<TRIPOS>ATOM
      1 C1         -0.0882    1.4795   -0.0108 C.3       1 <0>        -0.1398
      2 C2         -0.0587   -0.0501   -0.0232 C.3       1 <0>        -0.0386
      3 C3          0.6758   -0.5562    1.2199 C.3       1 <0>        -0.1411
      4 C4         -1.4911   -0.5878   -0.0234 C.3       1 <0>        -0.1478
      5 C5          0.6576   -0.5287   -1.2596 C.ar      1 <0>        -0.0141
      6 C6         -0.0031   -1.3242   -2.1769 C.ar      1 <0>        -0.1426
      7 C7          0.6540   -1.7633   -3.3111 C.ar      1 <0>        -0.0191
      8 C8          1.9717   -1.4064   -3.5282 C.ar      1 <0>        -0.6882
      9 C9          2.6322   -0.6102   -2.6113 C.ar      1 <0>        -0.0189
     10 C10         1.9738   -0.1676   -1.4793 C.ar      1 <0>        -0.1374
     11 S1          2.8097   -1.9670   -4.9733 S.o2      1 <0>         2.6982
     12 O1          4.1981   -1.9460   -4.6715 O.2       1 <0>        -0.9564
     13 O2          2.1404   -3.1459   -5.3992 O.2       1 <0>        -0.9533
     14 N1          2.5645   -0.8311   -6.1531 N.pl3     1 <0>        -0.9738
     15 C11         1.4104   -0.9637   -7.0138 C.3       1 <0>         0.1275
     16 C12         1.7783   -1.8256   -8.2467 C.3       1 <0>        -0.1366
     17 C13         2.6705   -1.0772   -9.1453 C.3       1 <0>        -0.1081
     18 C14         4.0159   -0.7061   -8.5291 C.3       1 <0>         0.1745
     19 C15         3.8729    0.5798   -7.7528 C.3       1 <0>        -0.1513
     20 C16         3.5300    0.2784   -6.2787 C.3       1 <0>         0.1251
     21 C17         5.0519   -0.5195   -9.6394 C.3       1 <0>        -0.1890
     22 C18         4.5359   -0.4070  -11.0754 C.3       1 <0>        -0.1774
     23 C19         5.2549   -1.6779  -10.6181 C.3       1 <0>        -0.1671
     24 O3          4.4415   -1.7490   -7.6497 O.3       1 <0>        -0.5496
     25 H1          0.9323    1.8626   -0.0106 H         1 <0>         0.0590
     26 H2         -0.6115    1.8401   -0.8963 H         1 <0>         0.0578
     27 H3         -0.6063    1.8257    0.8835 H         1 <0>         0.0635
     28 H4          0.1577   -0.2100    2.1142 H         1 <0>         0.0638
     29 H5          0.6968   -1.6459    1.2110 H         1 <0>         0.0586
     30 H6          1.6963   -0.1731    1.2200 H         1 <0>         0.0594
     31 H7         -2.0144   -0.2273   -0.9090 H         1 <0>         0.0606
     32 H8         -1.4702   -1.6776   -0.0322 H         1 <0>         0.0611
     33 H9         -2.0093   -0.2416    0.8709 H         1 <0>         0.0629
     34 H10        -1.0326   -1.6031   -2.0073 H         1 <0>         0.1369
     35 H11         0.1380   -2.3854   -4.0274 H         1 <0>         0.1382
     36 H12         3.6618   -0.3316   -2.7808 H         1 <0>         0.1380
     37 H13         2.4887    0.4576   -0.7648 H         1 <0>         0.1313
     38 H14         0.6009   -1.4437   -6.4639 H         1 <0>         0.0757
     39 H15         1.0887    0.0239   -7.3442 H         1 <0>         0.0780
     40 H16         2.2801   -2.7345   -7.9149 H         1 <0>         0.0848
     41 H17         0.8684   -2.0944   -8.7834 H         1 <0>         0.0726
     42 H18         2.8519   -1.6809  -10.0346 H         1 <0>         0.0699
     43 H19         2.1651   -0.1609   -9.4506 H         1 <0>         0.0687
     44 H20         4.8089    1.1364   -7.7997 H         1 <0>         0.0798
     45 H21         3.0754    1.1798   -8.1912 H         1 <0>         0.0771
     46 H22         3.1046    1.1713   -5.8207 H         1 <0>         0.0637
     47 H23         4.4451    0.0128   -5.7494 H         1 <0>         0.0925
     48 H24         5.9273    0.0719   -9.3711 H         1 <0>         0.1058
     49 H25         3.4584   -0.4660  -11.2291 H         1 <0>         0.1017
     50 H26         5.0718    0.2586  -11.7521 H         1 <0>         0.0934
     51 H27         6.2637   -1.8483  -10.9940 H         1 <0>         0.0938
     52 H28         4.6503   -2.5728  -10.4710 H         1 <0>         0.0990
     53 H29         5.3286   -1.6202   -7.2870 H         1 <0>         0.3773
@<TRIPOS>BOND
     1    1    2 1
     2    1   25 1
     3    1   26 1
     4    1   27 1
     5    2    3 1
     6    2    4 1
     7    2    5 1
     8    3   28 1
     9    3   29 1
    10    3   30 1
    11    4   31 1
    12    4   32 1
    13    4   33 1
    14    5   10 ar
    15    5    6 ar
    16    6    7 ar
    17    6   34 1
    18    7    8 ar
    19    7   35 1
    20    8    9 ar
    21    8   11 1
    22    9   10 ar
    23    9   36 1
    24   10   37 1
    25   11   12 2
    26   11   13 2
    27   11   14 1
    28   14   20 1
    29   14   15 1
    30   15   16 1
    31   15   38 1
    32   15   39 1
    33   16   17 1
    34   16   40 1
    35   16   41 1
    36   17   18 1
    37   17   42 1
    38   17   43 1
    39   18   19 1
    40   18   21 1
    41   18   24 1
    42   19   20 1
    43   19   44 1
    44   19   45 1
    45   20   46 1
    46   20   47 1
    47   21   23 1
    48   21   22 1
    49   21   48 1
    50   22   23 1
    51   22   49 1
    52   22   50 1
    53   23   51 1
    54   23   52 1
    55   24   53 1
@<TRIPOS>MOLECULE
CHEMBL565094__1
   53    55     0     0     0
SMALL
USER_CHARGES

@<TRIPOS>ATOM
      1 C1          0.0324    1.5471    0.0221 C.3       1 <0>        -0.1379
      2 C2          0.0486    0.0172    0.0153 C.3       1 <0>        -0.0363
      3 C3          0.7927   -0.4905    1.2520 C.3       1 <0>        -0.1408
      4 C4         -1.3883   -0.5081    0.0333 C.3       1 <0>        -0.1464
      5 C5          0.7468   -0.4723   -1.2272 C.ar      1 <0>        -0.0178
      6 C6          0.0689   -1.2655   -2.1340 C.ar      1 <0>        -0.1484
      7 C7          0.7094   -1.7145   -3.2737 C.ar      1 <0>        -0.0257
      8 C8          2.0276   -1.3699   -3.5070 C.ar      1 <0>        -0.6460
      9 C9          2.7052   -0.5759   -2.6007 C.ar      1 <0>         0.0086
     10 C10         2.0635   -0.1234   -1.4631 C.ar      1 <0>        -0.1366
     11 S1          2.8444   -1.9431   -4.9592 S.o2      1 <0>         2.6916
     12 O1          4.2363   -1.9330   -4.6732 O.2       1 <0>        -0.9629
     13 O2          2.1602   -3.1178   -5.3731 O.2       1 <0>        -0.9650
     14 N1          2.5957   -0.8096   -6.1406 N.pl3     1 <0>        -0.9716
     15 C11         1.5027   -1.0025   -7.0671 C.3       1 <0>         0.1148
     16 C12         0.2182   -0.3510   -6.4979 C.3       1 <0>        -0.1401
     17 C13         0.3249    1.1153   -6.5453 C.3       1 <0>        -0.1428
     18 C14         1.4506    1.6914   -5.6917 C.3       1 <0>         0.1698
     19 C15         2.7380    1.6657   -6.4781 C.3       1 <0>        -0.1158
     20 C16         3.4955    0.3589   -6.2006 C.3       1 <0>         0.1410
     21 C17         1.1144    3.1343   -5.3097 C.3       1 <0>        -0.1786
     22 C18         1.2006    3.5116   -3.8295 C.3       1 <0>        -0.1662
     23 C19        -0.1650    3.3722   -4.5052 C.3       1 <0>        -0.1827
     24 O3          1.6000    0.9065   -4.5069 O.3       1 <0>        -0.5402
     25 H1          1.0561    1.9213    0.0093 H         1 <0>         0.0587
     26 H2         -0.4977    1.9088   -0.8589 H         1 <0>         0.0572
     27 H3         -0.4726    1.9011    0.9208 H         1 <0>         0.0604
     28 H4          0.2877   -0.1365    2.1507 H         1 <0>         0.0614
     29 H5          0.8042   -1.5804    1.2472 H         1 <0>         0.0576
     30 H6          1.8164   -0.1163    1.2392 H         1 <0>         0.0588
     31 H7         -1.9185   -0.1464   -0.8477 H         1 <0>         0.0594
     32 H8         -1.3768   -1.5980    0.0285 H         1 <0>         0.0600
     33 H9         -1.8934   -0.1540    0.9320 H         1 <0>         0.0604
     34 H10        -0.9610   -1.5348   -1.9517 H         1 <0>         0.1318
     35 H11         0.1800   -2.3348   -3.9818 H         1 <0>         0.1336
     36 H12         3.7353   -0.3069   -2.7828 H         1 <0>         0.1326
     37 H13         2.5917    0.5000   -0.7569 H         1 <0>         0.1259
     38 H14         1.7511   -0.5407   -8.0226 H         1 <0>         0.0839
     39 H15         1.3345   -2.0695   -7.2129 H         1 <0>         0.0925
     40 H16        -0.6403   -0.6695   -7.0892 H         1 <0>         0.0765
     41 H17         0.0795   -0.6694   -5.4647 H         1 <0>         0.0665
     42 H18         0.4861    1.4173   -7.5802 H         1 <0>         0.0692
     43 H19        -0.6192    1.5422   -6.2069 H         1 <0>         0.0638
     44 H20         2.5130    1.7373   -7.5422 H         1 <0>         0.0782
     45 H21         3.3582    2.5125   -6.1840 H         1 <0>         0.0824
     46 H22         4.0214    0.4499   -5.2502 H         1 <0>         0.0848
     47 H23         4.2263    0.2025   -6.9940 H         1 <0>         0.0666
     48 H24         1.3980    3.8922   -6.0400 H         1 <0>         0.1073
     49 H25         1.4968    2.7319   -3.1278 H         1 <0>         0.1043
     50 H26         1.5411    4.5179   -3.5856 H         1 <0>         0.0904
     51 H27        -0.7229    4.2869   -4.7058 H         1 <0>         0.0927
     52 H28        -0.7672    2.5009   -4.2480 H         1 <0>         0.0897
     53 H29         0.7885    0.8187   -3.9883 H         1 <0>         0.3692
@<TRIPOS>BOND
     1    1    2 1
     2    1   25 1
     3    1   26 1
     4    1   27 1
     5    2    3 1
     6    2    4 1
     7    2    5 1
     8    3   28 1
     9    3   29 1
    10    3   30 1
    11    4   31 1
    12    4   32 1
    13    4   33 1
    14    5   10 ar
    15    5    6 ar
    16    6    7 ar
    17    6   34 1
    18    7    8 ar
    19    7   35 1
    20    8    9 ar
    21    8   11 1
    22    9   10 ar
    23    9   36 1
    24   10   37 1
    25   11   12 2
    26   11   13 2
    27   11   14 1
    28   14   20 1
    29   14   15 1
    30   15   16 1
    31   15   38 1
    32   15   39 1
    33   16   17 1
    34   16   40 1
    35   16   41 1
    36   17   18 1
    37   17   42 1
    38   17   43 1
    39   18   19 1
    40   18   21 1
    41   18   24 1
    42   19   20 1
    43   19   44 1
    44   19   45 1
    45   20   46 1
    46   20   47 1
    47   21   23 1
    48   21   22 1
    49   21   48 1
    50   22   23 1
    51   22   49 1
    52   22   50 1
    53   23   51 1
    54   23   52 1
    55   24   53 1
@<TRIPOS>MOLECULE
CHEMBL219784
   61    64     0     0     0
SMALL
USER_CHARGES

@<TRIPOS>ATOM
      1 C1         -0.0506   -3.2839   -3.8487 C.3       1 <0>        -0.0479
      2 N1          1.2058   -3.0407   -3.1272 N.4       1 <0>        -0.3842
      3 C2          1.0695   -3.5044   -1.7407 C.3       1 <0>        -0.0274
      4 C3          2.3370   -3.1479   -0.9571 C.3       1 <0>         0.0767
      5 N2          3.4979   -3.7016   -1.6711 N.am      1 <0>        -0.6347
      6 C4          3.6258   -3.4205   -3.1094 C.3       1 <0>         0.0867
      7 C5          2.2974   -3.7641   -3.7914 C.3       1 <0>        -0.0216
      8 C6          4.4185   -4.4449   -1.0258 C.2       1 <0>         0.5324
      9 O1          5.3021   -4.9924   -1.6505 O.2       1 <0>        -0.5004
     10 C7          4.3497   -4.5958    0.4721 C.3       1 <0>        -0.1233
     11 C8          4.3673   -3.2124    1.1254 C.3       1 <0>        -0.1205
     12 C9          4.2975   -3.3656    2.6461 C.3       1 <0>        -0.1775
     13 C10         5.5013   -4.1748    3.1329 C.3       1 <0>         0.1600
     14 C11         5.4838   -5.5582    2.4796 C.3       1 <0>        -0.1855
     15 C12         5.5535   -5.4050    0.9589 C.3       1 <0>        -0.0953
     16 N3          5.4345   -4.3215    4.5890 N.am      1 <0>        -0.6393
     17 C13         5.9350   -3.2524    5.4566 C.3       1 <0>         0.0925
     18 C14         5.9184   -3.5016    6.9661 C.3       1 <0>        -0.1830
     19 C15         4.9192   -2.5262    6.3408 C.3       1 <0>        -0.1972
     20 C16         4.9126   -5.4399    5.1304 C.2       1 <0>         0.5995
     21 O2          5.5741   -6.1080    5.9015 O.2       1 <0>        -0.4699
     22 C17         3.5387   -5.8536    4.7875 C.ar      1 <0>        -0.1851
     23 C18         3.0325   -5.6087    3.5077 C.ar      1 <0>        -0.0808
     24 C19         1.7494   -5.9960    3.1903 C.ar      1 <0>        -0.1211
     25 C20         0.9566   -6.6311    4.1430 C.ar      1 <0>         0.2717
     26 C21         1.4581   -6.8760    5.4189 C.ar      1 <0>        -0.1174
     27 C22         2.7426   -6.4964    5.7399 C.ar      1 <0>         0.0072
     28 Cl1         0.4659   -7.6669    6.6037 Cl        1 <0>        -0.0400
     29 N4         -0.3396   -7.0214    3.8195 N.pl3     1 <0>        -0.8493
     30 Cl2         1.1197   -5.6918    1.6014 Cl        1 <0>        -0.0763
     31 H1         -0.2687   -4.3518   -3.8487 H         1 <0>         0.1222
     32 H2         -0.8618   -2.7474   -3.3566 H         1 <0>         0.1265
     33 H3          0.0466   -2.9328   -4.8760 H         1 <0>         0.1278
     34 H4          0.2086   -3.0210   -1.2788 H         1 <0>         0.1468
     35 H5          0.9281   -4.5851   -1.7310 H         1 <0>         0.1322
     36 H6          2.4323   -2.0642   -0.8879 H         1 <0>         0.1037
     37 H7          2.2827   -3.5782    0.0429 H         1 <0>         0.1314
     38 H8          3.8511   -2.3644   -3.2576 H         1 <0>         0.0972
     39 H9          4.4234   -4.0312   -3.5325 H         1 <0>         0.1378
     40 H10         2.1189   -4.8370   -3.7198 H         1 <0>         0.1336
     41 H11         2.3413   -3.4722   -4.8407 H         1 <0>         0.1461
     42 H12         3.4300   -5.1140    0.7432 H         1 <0>         0.1038
     43 H13         5.2871   -2.6942    0.8542 H         1 <0>         0.0826
     44 H14         3.5097   -2.6359    0.7785 H         1 <0>         0.0755
     45 H15         4.3100   -2.3800    3.1115 H         1 <0>         0.0896
     46 H16         3.3777   -3.8838    2.9172 H         1 <0>         0.0985
     47 H17         6.4211   -3.6565    2.8618 H         1 <0>         0.0970
     48 H18         6.3414   -6.1347    2.8265 H         1 <0>         0.0898
     49 H19         4.5640   -6.0764    2.7508 H         1 <0>         0.1016
     50 H20         5.5411   -6.3906    0.4935 H         1 <0>         0.0842
     51 H21         6.4733   -4.8868    0.6878 H         1 <0>         0.0825
     52 H22         6.7600   -2.6661    5.0521 H         1 <0>         0.1287
     53 H23         5.5351   -4.4610    7.3137 H         1 <0>         0.1046
     54 H24         6.7327   -3.0793    7.5549 H         1 <0>         0.1067
     55 H25         5.0761   -1.4623    6.5181 H         1 <0>         0.1036
     56 H26         3.8785   -2.8439    6.2769 H         1 <0>         0.0935
     57 H27         3.6468   -5.1159    2.7686 H         1 <0>         0.2073
     58 H28         3.1327   -6.6909    6.7281 H         1 <0>         0.1517
     59 H29        -0.6900   -6.8510    2.9312 H         1 <0>         0.4067
     60 H30        -0.8926   -7.4637    4.4823 H         1 <0>         0.4116
     61 H31         1.4081   -2.0522   -3.1304 H         1 <0>         0.4265
@<TRIPOS>BOND
     1    1    2 1
     2    1   31 1
     3    1   32 1
     4    1   33 1
     5    2    7 1
     6    2    3 1
     7    2   61 1
     8    3    4 1
     9    3   34 1
    10    3   35 1
    11    4    5 1
    12    4   36 1
    13    4   37 1
    14    5    6 1
    15    5    8 am
    16    6    7 1
    17    6   38 1
    18    6   39 1
    19    7   40 1
    20    7   41 1
    21    8    9 2
    22    8   10 1
    23   10   15 1
    24   10   11 1
    25   10   42 1
    26   11   12 1
    27   11   43 1
    28   11   44 1
    29   12   13 1
    30   12   45 1
    31   12   46 1
    32   13   14 1
    33   13   16 1
    34   13   47 1
    35   14   15 1
    36   14   48 1
    37   14   49 1
    38   15   50 1
    39   15   51 1
    40   16   17 1
    41   16   20 am
    42   17   19 1
    43   17   18 1
    44   17   52 1
    45   18   19 1
    46   18   53 1
    47   18   54 1
    48   19   55 1
    49   19   56 1
    50   20   21 2
    51   20   22 1
    52   22   27 ar
    53   22   23 ar
    54   23   24 ar
    55   23   57 1
    56   24   25 ar
    57   24   30 1
    58   25   26 ar
    59   25   29 1
    60   26   27 ar
    61   26   28 1
    62   27   58 1
    63   29   59 1
    64   29   60 1
@<TRIPOS>MOLECULE
CHEMBL219784__1
   60    63     0     0     0
SMALL
USER_CHARGES

@<TRIPOS>ATOM
      1 C1         -0.3713   -3.2851   -3.8438 C.3       1 <0>         0.0240
      2 N1          0.9191   -3.1512   -3.1546 N.3       1 <0>        -0.5412
      3 C2          0.8146   -3.5803   -1.7536 C.3       1 <0>         0.0376
      4 C3          2.1234   -3.2573   -1.0249 C.3       1 <0>         0.1063
      5 N2          3.2368   -3.8554   -1.7772 N.am      1 <0>        -0.6143
      6 C4          3.3291   -3.5811   -3.2193 C.3       1 <0>         0.1148
      7 C5          1.9728   -3.8914   -3.8615 C.3       1 <0>         0.0396
      8 C6          4.1486   -4.6337   -1.1614 C.2       1 <0>         0.5241
      9 O1          4.9886   -5.2162   -1.8141 O.2       1 <0>        -0.5333
     10 C7          4.1245   -4.7802    0.3383 C.3       1 <0>        -0.1212
     11 C8          4.2213   -3.3981    0.9874 C.3       1 <0>        -0.1219
     12 C9          4.1967   -3.5469    2.5099 C.3       1 <0>        -0.1744
     13 C10         5.3818   -4.4048    2.9577 C.3       1 <0>         0.1595
     14 C11         5.2850   -5.7869    2.3086 C.3       1 <0>        -0.1830
     15 C12         5.3096   -5.6381    0.7861 C.3       1 <0>        -0.0931
     16 N3          5.3583   -4.5472    4.4156 N.am      1 <0>        -0.6394
     17 C13         5.9318   -3.4991    5.2633 C.3       1 <0>         0.0959
     18 C14         5.9561   -3.7460    6.7731 C.3       1 <0>        -0.1849
     19 C15         4.9775   -2.7306    6.1796 C.3       1 <0>        -0.1981
     20 C16         4.8090   -5.6425    4.9769 C.2       1 <0>         0.6035
     21 O2          5.4680   -6.3368    5.7268 O.2       1 <0>        -0.4781
     22 C17         3.4084   -5.9991    4.6815 C.ar      1 <0>        -0.1890
     23 C18         2.8698   -5.7347    3.4189 C.ar      1 <0>        -0.0779
     24 C19         1.5618   -6.0687    3.1460 C.ar      1 <0>        -0.1244
     25 C20         0.7759   -6.6692    4.1264 C.ar      1 <0>         0.2706
     26 C21         1.3097   -6.9334    5.3853 C.ar      1 <0>        -0.1199
     27 C22         2.6189   -6.6073    5.6619 C.ar      1 <0>         0.0040
     28 Cl1         0.3261   -7.6811    6.6048 Cl        1 <0>        -0.0486
     29 N4         -0.5456   -7.0056    3.8478 N.pl3     1 <0>        -0.8501
     30 Cl2         0.8919   -5.7402    1.5785 Cl        1 <0>        -0.0547
     31 H1         -0.6525   -4.3373   -3.8873 H         1 <0>         0.0263
     32 H2         -1.1335   -2.7276   -3.2994 H         1 <0>         0.0710
     33 H3         -0.2854   -2.8897   -4.8559 H         1 <0>         0.0726
     34 H4         -0.0092   -3.0534   -1.2722 H         1 <0>         0.0891
     35 H5          0.6322   -4.6542   -1.7147 H         1 <0>         0.0373
     36 H6          2.2560   -2.1767   -0.9720 H         1 <0>         0.0823
     37 H7          2.0951   -3.6753   -0.0187 H         1 <0>         0.0925
     38 H8          3.5775   -2.5316   -3.3772 H         1 <0>         0.0775
     39 H9          4.0978   -4.2132   -3.6638 H         1 <0>         0.0979
     40 H10         1.7742   -4.9610   -3.7933 H         1 <0>         0.0393
     41 H11         1.9888   -3.5901   -4.9089 H         1 <0>         0.0898
     42 H12         3.1937   -5.2597    0.6415 H         1 <0>         0.0991
     43 H13         5.1520   -2.9187    0.6841 H         1 <0>         0.0781
     44 H14         3.3770   -2.7870    0.6684 H         1 <0>         0.0835
     45 H15         4.2657   -2.5623    2.9724 H         1 <0>         0.0858
     46 H16         3.2660   -4.0264    2.8132 H         1 <0>         0.0961
     47 H17         6.3125   -3.9253    2.6545 H         1 <0>         0.0962
     48 H18         6.1293   -6.3980    2.6276 H         1 <0>         0.0847
     49 H19         4.3543   -6.2663    2.6119 H         1 <0>         0.0993
     50 H20         5.2406   -6.6228    0.3236 H         1 <0>         0.0810
     51 H21         6.2403   -5.1587    0.4828 H         1 <0>         0.0795
     52 H22         6.7662   -2.9479    4.8297 H         1 <0>         0.1279
     53 H23         5.5453   -4.6883    7.1356 H         1 <0>         0.1039
     54 H24         6.8067   -3.3574    7.3330 H         1 <0>         0.1042
     55 H25         5.1843   -1.6739    6.3491 H         1 <0>         0.1024
     56 H26         3.9229   -3.0048    6.1517 H         1 <0>         0.0940
     57 H27         3.4786   -5.2687    2.6583 H         1 <0>         0.2102
     58 H28         3.0338   -6.8167    6.6368 H         1 <0>         0.1486
     59 H29        -0.9184   -6.8217    2.9714 H         1 <0>         0.4083
     60 H30        -1.0938   -7.4239    4.5300 H         1 <0>         0.4092
@<TRIPOS>BOND
     1    1    2 1
     2    1   31 1
     3    1   32 1
     4    1   33 1
     5    2    7 1
     6    2    3 1
     7    3    4 1
     8    3   34 1
     9    3   35 1
    10    4    5 1
    11    4   36 1
    12    4   37 1
    13    5    6 1
    14    5    8 am
    15    6    7 1
    16    6   38 1
    17    6   39 1
    18    7   40 1
    19    7   41 1
    20    8    9 2
    21    8   10 1
    22   10   15 1
    23   10   11 1
    24   10   42 1
    25   11   12 1
    26   11   43 1
    27   11   44 1
    28   12   13 1
    29   12   45 1
    30   12   46 1
    31   13   14 1
    32   13   16 1
    33   13   47 1
    34   14   15 1
    35   14   48 1
    36   14   49 1
    37   15   50 1
    38   15   51 1
    39   16   17 1
    40   16   20 am
    41   17   19 1
    42   17   18 1
    43   17   52 1
    44   18   19 1
    45   18   53 1
    46   18   54 1
    47   19   55 1
    48   19   56 1
    49   20   21 2
    50   20   22 1
    51   22   27 ar
    52   22   23 ar
    53   23   24 ar
    54   23   57 1
    55   24   25 ar
    56   24   30 1
    57   25   26 ar
    58   25   29 1
    59   26   27 ar
    60   26   28 1
    61   27   58 1
    62   29   59 1
    63   29   60 1
@<TRIPOS>MOLECULE
CHEMBL560570
   60    64     0     0     0
SMALL
USER_CHARGES

@<TRIPOS>ATOM
      1 C1         -0.0030    1.4470   -0.2846 C.3       1 <0>        -0.1288
      2 C2          1.4972    1.8143   -0.1680 C.3       1 <0>        -0.1284
      3 C3          2.1889    0.6856   -0.9721 C.3       1 <0>        -0.1107
      4 C4          1.3701   -0.5771   -0.6328 C.3       1 <0>        -0.0197
      5 C5         -0.0235   -0.0929   -0.1956 C.3       1 <0>        -0.1027
      6 C6          2.0400   -1.3450    0.5085 C.3       1 <0>        -0.1399
      7 C7          3.4123   -1.7925    0.0753 C.2       1 <0>         0.5182
      8 O1          3.8618   -1.4255   -0.9896 O.2       1 <0>        -0.5349
      9 N1          4.1401   -2.6006    0.8714 N.am      1 <0>        -0.7055
     10 C8          5.4741   -3.0357    0.4503 C.3       1 <0>         0.0786
     11 C9          5.8376   -4.5065    0.6635 C.3       1 <0>        -0.1936
     12 C10         6.4680   -3.4271    1.5457 C.3       1 <0>        -0.1896
     13 C11         1.2505   -1.4718   -1.8681 C.3       1 <0>        -0.1431
     14 C12         0.3369   -2.6307   -1.5624 C.2       1 <0>         0.5141
     15 O2         -0.1059   -2.7747   -0.4425 O.2       1 <0>        -0.5378
     16 N2          0.0121   -3.5071   -2.5334 N.am      1 <0>        -0.7266
     17 C13        -0.8760   -4.6336   -2.2362 C.3       1 <0>         0.1585
     18 C14        -0.0560   -5.7931   -1.6670 C.3       1 <0>        -0.0927
     19 C15         0.9932   -6.2275   -2.6923 C.3       1 <0>        -0.1058
     20 C16         0.2948   -6.6790   -3.9766 C.3       1 <0>        -0.0869
     21 C17        -0.6327   -7.8555   -3.6663 C.3       1 <0>        -0.1081
     22 C18        -1.6819   -7.4211   -2.6409 C.3       1 <0>        -0.0882
     23 C19        -0.9835   -6.9697   -1.3566 C.3       1 <0>        -0.1065
     24 C20        -2.5019   -6.2617   -3.2102 C.3       1 <0>        -0.1053
     25 C21        -1.5744   -5.0851   -3.5205 C.3       1 <0>        -0.0931
     26 C22        -0.5252   -5.5195   -4.5459 C.3       1 <0>        -0.1094
     27 H1         -0.5679    1.8843    0.5387 H         1 <0>         0.0630
     28 H2         -0.4038    1.7792   -1.2422 H         1 <0>         0.0627
     29 H3          1.6931    2.7866   -0.6201 H         1 <0>         0.0646
     30 H4          1.8187    1.7995    0.8734 H         1 <0>         0.0636
     31 H5          2.1421    0.8948   -2.0408 H         1 <0>         0.0665
     32 H6          3.2236    0.5671   -0.6505 H         1 <0>         0.0772
     33 H7         -0.2226   -0.4051    0.8296 H         1 <0>         0.0691
     34 H8         -0.7851   -0.4954   -0.8635 H         1 <0>         0.0624
     35 H9          2.1276   -0.6968    1.3804 H         1 <0>         0.0936
     36 H10         1.4371   -2.2167    0.7629 H         1 <0>         0.1162
     37 H11         3.7806   -2.8942    1.7232 H         1 <0>         0.4016
     38 H12         5.8713   -2.5422   -0.4367 H         1 <0>         0.1376
     39 H13         5.0841   -5.1505    1.1170 H         1 <0>         0.0962
     40 H14         6.4739   -4.9810   -0.0835 H         1 <0>         0.1020
     41 H15         7.5191   -3.1915    1.3791 H         1 <0>         0.1038
     42 H16         6.1293   -3.3610    2.5796 H         1 <0>         0.0972
     43 H17         0.8402   -0.8944   -2.6965 H         1 <0>         0.0903
     44 H18         2.2364   -1.8484   -2.1408 H         1 <0>         0.1135
     45 H19         0.3663   -3.3919   -3.4290 H         1 <0>         0.3980
     46 H20        -1.6235   -4.3242   -1.5057 H         1 <0>         0.0869
     47 H21         0.4415   -5.4715   -0.7520 H         1 <0>         0.0721
     48 H22         1.6539   -5.3893   -2.9134 H         1 <0>         0.0601
     49 H23         1.5774   -7.0535   -2.2868 H         1 <0>         0.0610
     50 H24         1.0423   -6.9884   -4.7071 H         1 <0>         0.0700
     51 H25        -1.1302   -8.1772   -4.5812 H         1 <0>         0.0623
     52 H26        -0.0485   -8.6816   -3.2607 H         1 <0>         0.0621
     53 H27        -2.3427   -8.2593   -2.4198 H         1 <0>         0.0718
     54 H28        -0.3993   -7.7957   -0.9510 H         1 <0>         0.0645
     55 H29        -1.7310   -6.6602   -0.6261 H         1 <0>         0.0637
     56 H30        -2.9994   -6.5833   -4.1251 H         1 <0>         0.0678
     57 H31        -3.2494   -5.9522   -2.4797 H         1 <0>         0.0650
     58 H32        -2.1586   -4.2591   -3.9261 H         1 <0>         0.0753
     59 H33         0.1356   -4.6813   -4.7670 H         1 <0>         0.0591
     60 H34        -1.0227   -5.8411   -5.4608 H         1 <0>         0.0672
@<TRIPOS>BOND
     1    1    5 1
     2    1    2 1
     3    1   27 1
     4    1   28 1
     5    2    3 1
     6    2   29 1
     7    2   30 1
     8    3    4 1
     9    3   31 1
    10    3   32 1
    11    4    5 1
    12    4    6 1
    13    4   13 1
    14    5   33 1
    15    5   34 1
    16    6    7 1
    17    6   35 1
    18    6   36 1
    19    7    8 2
    20    7    9 am
    21    9   10 1
    22    9   37 1
    23   10   12 1
    24   10   11 1
    25   10   38 1
    26   11   12 1
    27   11   39 1
    28   11   40 1
    29   12   41 1
    30   12   42 1
    31   13   14 1
    32   13   43 1
    33   13   44 1
    34   14   15 2
    35   14   16 am
    36   16   17 1
    37   16   45 1
    38   17   25 1
    39   17   18 1
    40   17   46 1
    41   18   23 1
    42   18   19 1
    43   18   47 1
    44   19   20 1
    45   19   48 1
    46   19   49 1
    47   20   26 1
    48   20   21 1
    49   20   50 1
    50   21   22 1
    51   21   51 1
    52   21   52 1
    53   22   23 1
    54   22   24 1
    55   22   53 1
    56   23   54 1
    57   23   55 1
    58   24   25 1
    59   24   56 1
    60   24   57 1
    61   25   26 1
    62   25   58 1
    63   26   59 1
    64   26   60 1
@<TRIPOS>MOLECULE
CHEMBL596620
   59    64     0     0     0
SMALL
USER_CHARGES

@<TRIPOS>ATOM
      1 C1         -0.0235    1.3745    0.0114 C.ar      1 <0>        -0.1194
      2 C2          1.1644    2.0818    0.0036 C.ar      1 <0>        -0.1211
      3 C3          2.3690    1.4066   -0.0133 C.ar      1 <0>        -0.1069
      4 C4          2.3913    0.0222   -0.0198 C.ar      1 <0>        -0.0958
      5 C5          1.2035   -0.6853   -0.0111 C.ar      1 <0>        -0.0938
      6 C6         -0.0034   -0.0065    0.0036 C.ar      1 <0>        -0.1087
      7 C7          1.4935   -2.1723   -0.0208 C.3       1 <0>        -0.0687
      8 C8          2.9629   -2.2922   -0.4554 C.3       1 <0>        -0.0708
      9 C9          3.5616   -0.9395   -0.0366 C.3       1 <0>        -0.0710
     10 C10         3.0658   -2.4807   -1.9625 C.3       1 <0>        -0.1028
     11 C11         2.4140   -3.8072   -2.3630 C.3       1 <0>        -0.1373
     12 C12         3.1351   -4.9602   -1.6577 C.3       1 <0>         0.1122
     13 N1          3.1239   -4.7115   -0.2095 N.am      1 <0>        -0.6278
     14 C13         3.6501   -3.4317    0.2882 C.3       1 <0>         0.1449
     15 C14         2.6418   -5.6364    0.6441 C.2       1 <0>         0.7091
     16 O1          2.7225   -5.4569    1.8439 O.2       1 <0>        -0.5868
     17 N2          2.0704   -6.7602    0.1678 N.am      1 <0>        -0.7398
     18 C15         1.4476   -7.7129    1.0901 C.3       1 <0>         0.1773
     19 C16         2.5139   -8.6630    1.6388 C.3       1 <0>        -0.0959
     20 C17         3.1633   -9.4240    0.4812 C.3       1 <0>        -0.1049
     21 C18         2.0960  -10.2298   -0.2619 C.3       1 <0>        -0.0871
     22 C19         1.4455  -11.2248    0.7014 C.3       1 <0>        -0.1078
     23 C20         0.7961  -10.4638    1.8590 C.3       1 <0>        -0.0886
     24 C21         1.8635   -9.6580    2.6021 C.3       1 <0>        -0.1067
     25 C22        -0.2702   -9.5137    1.3103 C.3       1 <0>        -0.1049
     26 C23         0.3802   -8.5188    0.3470 C.3       1 <0>        -0.0930
     27 C24         1.0296   -9.2798   -0.8106 C.3       1 <0>        -0.1078
     28 H1         -0.9661    1.9013    0.0281 H         1 <0>         0.1230
     29 H2          1.1503    3.1617    0.0104 H         1 <0>         0.1232
     30 H3          3.2964    1.9601   -0.0218 H         1 <0>         0.1196
     31 H4         -0.9317   -0.5585    0.0094 H         1 <0>         0.1179
     32 H5          1.3586   -2.5905    0.9767 H         1 <0>         0.0812
     33 H6          0.8451   -2.6795   -0.7353 H         1 <0>         0.0756
     34 H7          4.3076   -0.6150   -0.7620 H         1 <0>         0.0796
     35 H8          4.0052   -1.0131    0.9563 H         1 <0>         0.0848
     36 H9          2.5560   -1.6595   -2.4663 H         1 <0>         0.0694
     37 H10         4.1155   -2.4893   -2.2560 H         1 <0>         0.0687
     38 H11         1.3645   -3.8002   -2.0686 H         1 <0>         0.0705
     39 H12         2.4884   -3.9377   -3.4426 H         1 <0>         0.0777
     40 H13         2.6213   -5.8975   -1.8713 H         1 <0>         0.0741
     41 H14         4.1648   -5.0173   -2.0106 H         1 <0>         0.0713
     42 H15         4.7249   -3.3861    0.1130 H         1 <0>         0.0681
     43 H16         3.4486   -3.3448    1.3559 H         1 <0>         0.0964
     44 H17         2.0714   -6.9382   -0.7858 H         1 <0>         0.3930
     45 H18         0.9849   -7.1707    1.9148 H         1 <0>         0.0858
     46 H19         3.2743   -8.0889    2.1682 H         1 <0>         0.0763
     47 H20         3.6267   -8.7151   -0.2050 H         1 <0>         0.0585
     48 H21         3.9230  -10.1008    0.8721 H         1 <0>         0.0617
     49 H22         2.5586  -10.7720   -1.0866 H         1 <0>         0.0696
     50 H23         0.6851  -11.7989    0.1720 H         1 <0>         0.0620
     51 H24         2.2052  -11.9017    1.0923 H         1 <0>         0.0625
     52 H25         0.3327  -11.1727    2.5452 H         1 <0>         0.0721
     53 H26         2.6232  -10.3348    2.9930 H         1 <0>         0.0651
     54 H27         1.4008   -9.1158    3.4268 H         1 <0>         0.0644
     55 H28        -1.0307  -10.0879    0.7809 H         1 <0>         0.0680
     56 H29        -0.7329   -8.9716    2.1350 H         1 <0>         0.0657
     57 H30        -0.3795   -7.8419   -0.0439 H         1 <0>         0.0750
     58 H31         1.4930   -8.5709   -1.4968 H         1 <0>         0.0561
     59 H32         0.2692   -9.8539   -1.3400 H         1 <0>         0.0673
@<TRIPOS>BOND
     1    1    6 ar
     2    1    2 ar
     3    1   28 1
     4    2    3 ar
     5    2   29 1
     6    3    4 ar
     7    3   30 1
     8    4    9 1
     9    4    5 ar
    10    5    6 ar
    11    5    7 1
    12    6   31 1
    13    7    8 1
    14    7   32 1
    15    7   33 1
    16    8   14 1
    17    8    9 1
    18    8   10 1
    19    9   34 1
    20    9   35 1
    21   10   11 1
    22   10   36 1
    23   10   37 1
    24   11   12 1
    25   11   38 1
    26   11   39 1
    27   12   13 1
    28   12   40 1
    29   12   41 1
    30   13   14 1
    31   13   15 am
    32   14   42 1
    33   14   43 1
    34   15   16 2
    35   15   17 am
    36   17   18 1
    37   17   44 1
    38   18   26 1
    39   18   19 1
    40   18   45 1
    41   19   24 1
    42   19   20 1
    43   19   46 1
    44   20   21 1
    45   20   47 1
    46   20   48 1
    47   21   27 1
    48   21   22 1
    49   21   49 1
    50   22   23 1
    51   22   50 1
    52   22   51 1
    53   23   24 1
    54   23   25 1
    55   23   52 1
    56   24   53 1
    57   24   54 1
    58   25   26 1
    59   25   55 1
    60   25   56 1
    61   26   27 1
    62   26   57 1
    63   27   58 1
    64   27   59 1
@<TRIPOS>MOLECULE
CHEMBL601211
   66    71     0     0     0
SMALL
USER_CHARGES

@<TRIPOS>ATOM
      1 C1          0.0309    1.1326    0.2853 C.ar      1 <0>        -0.1114
      2 C2          1.1731    1.9036    0.1881 C.ar      1 <0>        -0.0917
      3 C3          2.4152    1.3009    0.0863 C.ar      1 <0>        -0.0846
      4 C4          2.5129   -0.0791    0.0817 C.ar      1 <0>        -0.0538
      5 C5          1.3662   -0.8502    0.1803 C.ar      1 <0>        -0.0728
      6 C6          0.1273   -0.2460    0.2821 C.ar      1 <0>        -0.0913
      7 Br1         1.4966   -2.7367    0.1757 Br        1 <0>        -0.0441
      8 C7          3.9628   -0.4840   -0.0398 C.3       1 <0>        -0.0137
      9 C8          4.2818   -1.6131    0.9358 C.3       1 <0>        -0.1424
     10 C9          5.7703   -1.9645    0.8385 C.3       1 <0>         0.1336
     11 N1          6.0974   -2.2515   -0.5648 N.am      1 <0>        -0.6253
     12 C10         5.7641   -1.2510   -1.5879 C.3       1 <0>         0.1128
     13 C11         4.2754   -0.9060   -1.4728 C.3       1 <0>        -0.1185
     14 C12         6.6927   -3.4111   -0.9073 C.2       1 <0>         0.7090
     15 O1          7.0465   -4.1910   -0.0442 O.2       1 <0>        -0.5882
     16 N2          6.8957   -3.7064   -2.2066 N.am      1 <0>        -0.7404
     17 C13         7.4418   -5.0123   -2.5844 C.3       1 <0>         0.1776
     18 C14         8.9692   -4.9680   -2.5073 C.3       1 <0>        -0.0958
     19 C15         9.4974   -3.8980   -3.4649 C.3       1 <0>        -0.1050
     20 C16         9.0684   -4.2361   -4.8941 C.3       1 <0>        -0.0869
     21 C17         9.6387   -5.5999   -5.2886 C.3       1 <0>        -0.1076
     22 C18         9.1105   -6.6699   -4.3310 C.3       1 <0>        -0.0883
     23 C19         9.5394   -6.3319   -2.9018 C.3       1 <0>        -0.1065
     24 C20         7.5831   -6.7141   -4.4081 C.3       1 <0>        -0.1046
     25 C21         7.0128   -5.3503   -4.0136 C.3       1 <0>        -0.0932
     26 C22         7.5410   -4.2803   -4.9712 C.3       1 <0>        -0.1079
     27 C23         4.7742    0.7723    0.3267 C.3       1 <0>        -0.1033
     28 C24         3.7954    1.9121   -0.0304 C.3       1 <0>        -0.0304
     29 C25         3.9478    3.0714    0.9564 C.3       1 <0>        -0.1365
     30 C26         5.2705    3.7560    0.7267 C.2       1 <0>         0.5164
     31 O2          6.0554    3.3039   -0.0798 O.2       1 <0>        -0.5378
     32 N3          5.5813    4.8708    1.4176 N.am      1 <0>        -0.8583
     33 H1         -0.9359    1.6067    0.3683 H         1 <0>         0.1343
     34 H2          1.0966    2.9808    0.1911 H         1 <0>         0.1266
     35 H3         -0.7643   -0.8505    0.3594 H         1 <0>         0.1344
     36 H4          4.0495   -1.2925    1.9513 H         1 <0>         0.0759
     37 H5          3.6842   -2.4896    0.6853 H         1 <0>         0.0902
     38 H6          6.3681   -1.1229    1.1884 H         1 <0>         0.0648
     39 H7          5.9791   -2.8428    1.4494 H         1 <0>         0.0945
     40 H8          6.3609   -0.3528   -1.4289 H         1 <0>         0.0774
     41 H9          5.9694   -1.6583   -2.5779 H         1 <0>         0.0757
     42 H10         3.6784   -1.7801   -1.7329 H         1 <0>         0.0740
     43 H11         4.0381   -0.0878   -2.1527 H         1 <0>         0.0777
     44 H12         6.6803   -3.0542   -2.8915 H         1 <0>         0.3928
     45 H13         7.0655   -5.7746   -1.9022 H         1 <0>         0.0854
     46 H14         9.2748   -4.7272   -1.4891 H         1 <0>         0.0764
     47 H15         9.0911   -2.9264   -3.1838 H         1 <0>         0.0591
     48 H16        10.5855   -3.8665   -3.4100 H         1 <0>         0.0614
     49 H17         9.4447   -3.4738   -5.5763 H         1 <0>         0.0695
     50 H18         9.3331   -5.8407   -6.3068 H         1 <0>         0.0617
     51 H19        10.7268   -5.5684   -5.2337 H         1 <0>         0.0622
     52 H20         9.5167   -7.6415   -4.6121 H         1 <0>         0.0717
     53 H21        10.6276   -6.3004   -2.8469 H         1 <0>         0.0647
     54 H22         9.1631   -7.0942   -2.2196 H         1 <0>         0.0641
     55 H23         7.2775   -6.9550   -5.4263 H         1 <0>         0.0676
     56 H24         7.2068   -7.4764   -3.7259 H         1 <0>         0.0654
     57 H25         5.9246   -5.3818   -4.0685 H         1 <0>         0.0750
     58 H26         7.1347   -3.3087   -4.6901 H         1 <0>         0.0565
     59 H27         7.2354   -4.5211   -5.9893 H         1 <0>         0.0670
     60 H28         5.0113    0.7840    1.3905 H         1 <0>         0.0738
     61 H29         5.6810    0.8372   -0.2746 H         1 <0>         0.0938
     62 H30         3.9716    2.2564   -1.0495 H         1 <0>         0.0982
     63 H31         3.1381    3.7854    0.8060 H         1 <0>         0.0956
     64 H32         3.9094    2.6879    1.9760 H         1 <0>         0.0995
     65 H33         4.9536    5.2323    2.0627 H         1 <0>         0.4018
     66 H34         6.4326    5.3114    1.2697 H         1 <0>         0.4024
@<TRIPOS>BOND
     1    1    6 ar
     2    1    2 ar
     3    1   33 1
     4    2    3 ar
     5    2   34 1
     6    3   28 1
     7    3    4 ar
     8    4    5 ar
     9    4    8 1
    10    5    6 ar
    11    5    7 1
    12    6   35 1
    13    8   13 1
    14    8    9 1
    15    8   27 1
    16    9   10 1
    17    9   36 1
    18    9   37 1
    19   10   11 1
    20   10   38 1
    21   10   39 1
    22   11   12 1
    23   11   14 am
    24   12   13 1
    25   12   40 1
    26   12   41 1
    27   13   42 1
    28   13   43 1
    29   14   15 2
    30   14   16 am
    31   16   17 1
    32   16   44 1
    33   17   25 1
    34   17   18 1
    35   17   45 1
    36   18   23 1
    37   18   19 1
    38   18   46 1
    39   19   20 1
    40   19   47 1
    41   19   48 1
    42   20   26 1
    43   20   21 1
    44   20   49 1
    45   21   22 1
    46   21   50 1
    47   21   51 1
    48   22   23 1
    49   22   24 1
    50   22   52 1
    51   23   53 1
    52   23   54 1
    53   24   25 1
    54   24   55 1
    55   24   56 1
    56   25   26 1
    57   25   57 1
    58   26   58 1
    59   26   59 1
    60   27   28 1
    61   27   60 1
    62   27   61 1
    63   28   29 1
    64   28   62 1
    65   29   30 1
    66   29   63 1
    67   29   64 1
    68   30   31 2
    69   30   32 am
    70   32   65 1
    71   32   66 1
@<TRIPOS>MOLECULE
CHEMBL601211__1
   66    71     0     0     0
SMALL
USER_CHARGES

@<TRIPOS>ATOM
      1 C1         -0.0037    1.5444    0.2274 C.ar      1 <0>        -0.1112
      2 C2          1.2275    2.1708    0.2114 C.ar      1 <0>        -0.0913
      3 C3          2.3893    1.4239    0.1173 C.ar      1 <0>        -0.0835
      4 C4          2.3166    0.0446    0.0392 C.ar      1 <0>        -0.0542
      5 C5          1.0808   -0.5817    0.0554 C.ar      1 <0>        -0.0725
      6 C6         -0.0774    0.1666    0.1499 C.ar      1 <0>        -0.0913
      7 Br1         0.9784   -2.4669   -0.0521 Br        1 <0>        -0.0458
      8 C7          3.7095   -0.5316   -0.0554 C.3       1 <0>        -0.0123
      9 C8          4.1462   -1.0845    1.2983 C.3       1 <0>        -0.1192
     10 C9          5.5832   -1.6072    1.1957 C.3       1 <0>         0.1308
     11 N1          5.6579   -2.5666    0.0854 N.am      1 <0>        -0.6256
     12 C10         5.1951   -2.1476   -1.2446 C.3       1 <0>         0.1160
     13 C11         3.7611   -1.6207   -1.1230 C.3       1 <0>        -0.1425
     14 C12         6.1425   -3.8085    0.2834 C.2       1 <0>         0.7088
     15 O1          6.6076   -4.1145    1.3644 O.2       1 <0>        -0.5875
     16 N2          6.1117   -4.7113   -0.7168 N.am      1 <0>        -0.7403
     17 C13         6.5356   -6.0919   -0.4708 C.3       1 <0>         0.1775
     18 C14         8.0546   -6.1938   -0.6225 C.3       1 <0>        -0.0959
     19 C15         8.4542   -5.7828   -2.0410 C.3       1 <0>        -0.1048
     20 C16         7.7774   -6.7117   -3.0509 C.3       1 <0>        -0.0868
     21 C17         8.2200   -8.1535   -2.7940 C.3       1 <0>        -0.1076
     22 C18         7.8204   -8.5646   -1.3754 C.3       1 <0>        -0.0883
     23 C19         8.4972   -7.6357   -0.3655 C.3       1 <0>        -0.1066
     24 C20         6.3013   -8.4627   -1.2238 C.3       1 <0>        -0.1047
     25 C21         5.8587   -7.0208   -1.4807 C.3       1 <0>        -0.0931
     26 C22         6.2583   -6.6098   -2.8992 C.3       1 <0>        -0.1077
     27 C23         4.6169    0.6447   -0.4600 C.3       1 <0>        -0.1062
     28 C24         3.8378    1.8631    0.0814 C.3       1 <0>        -0.0318
     29 C25         4.0063    3.0602   -0.8564 C.3       1 <0>        -0.1359
     30 C26         5.4222    3.5691   -0.7719 C.2       1 <0>         0.5159
     31 O2          6.1907    3.0924    0.0362 O.2       1 <0>        -0.5369
     32 N3          5.8345    4.5540   -1.5944 N.am      1 <0>        -0.8585
     33 H1         -0.9075    2.1306    0.3050 H         1 <0>         0.1344
     34 H2          1.2839    3.2477    0.2721 H         1 <0>         0.1269
     35 H3         -1.0390   -0.3249    0.1635 H         1 <0>         0.1344
     36 H4          4.0998   -0.2931    2.0463 H         1 <0>         0.0783
     37 H5          3.4831   -1.8992    1.5892 H         1 <0>         0.0733
     38 H6          6.2620   -0.7756    1.0065 H         1 <0>         0.0710
     39 H7          5.8592   -2.1028    2.1264 H         1 <0>         0.0964
     40 H8          5.8435   -1.3585   -1.6255 H         1 <0>         0.0704
     41 H9          5.2151   -2.9998   -1.9239 H         1 <0>         0.0744
     42 H10         3.0964   -2.4374   -0.8416 H         1 <0>         0.0912
     43 H11         3.4436   -1.2068   -2.0801 H         1 <0>         0.0757
     44 H12         5.8090   -4.4469   -1.5996 H         1 <0>         0.3926
     45 H13         6.2509   -6.3847    0.5398 H         1 <0>         0.0856
     46 H14         8.5368   -5.5320    0.0970 H         1 <0>         0.0766
     47 H15         8.1389   -4.7556   -2.2241 H         1 <0>         0.0587
     48 H16         9.5364   -5.8554   -2.1491 H         1 <0>         0.0614
     49 H17         8.0621   -6.4188   -4.0615 H         1 <0>         0.0693
     50 H18         7.7378   -8.8153   -3.5134 H         1 <0>         0.0617
     51 H19         9.3022   -8.2261   -2.9020 H         1 <0>         0.0623
     52 H20         8.1357   -9.5918   -1.1924 H         1 <0>         0.0718
     53 H21         9.5794   -7.7083   -0.4736 H         1 <0>         0.0648
     54 H22         8.2125   -7.9285    0.6451 H         1 <0>         0.0643
     55 H23         5.8191   -9.1245   -1.9432 H         1 <0>         0.0676
     56 H24         6.0166   -8.7555   -0.2132 H         1 <0>         0.0655
     57 H25         4.7765   -6.9482   -1.3726 H         1 <0>         0.0746
     58 H26         5.9430   -5.5826   -3.0823 H         1 <0>         0.0562
     59 H27         5.7761   -7.2716   -3.6187 H         1 <0>         0.0669
     60 H28         5.5926    0.5643    0.0192 H         1 <0>         0.0933
     61 H29         4.7194    0.7003   -1.5437 H         1 <0>         0.0729
     62 H30         4.1812    2.1163    1.0844 H         1 <0>         0.1018
     63 H31         3.7910    2.7531   -1.8799 H         1 <0>         0.0965
     64 H32         3.3174    3.8520   -0.5622 H         1 <0>         0.0981
     65 H33         5.2199    4.9353   -2.2407 H         1 <0>         0.4016
     66 H34         6.7459    4.8816   -1.5400 H         1 <0>         0.4025
@<TRIPOS>BOND
     1    1    6 ar
     2    1    2 ar
     3    1   33 1
     4    2    3 ar
     5    2   34 1
     6    3   28 1
     7    3    4 ar
     8    4    5 ar
     9    4    8 1
    10    5    6 ar
    11    5    7 1
    12    6   35 1
    13    8   13 1
    14    8    9 1
    15    8   27 1
    16    9   10 1
    17    9   36 1
    18    9   37 1
    19   10   11 1
    20   10   38 1
    21   10   39 1
    22   11   12 1
    23   11   14 am
    24   12   13 1
    25   12   40 1
    26   12   41 1
    27   13   42 1
    28   13   43 1
    29   14   15 2
    30   14   16 am
    31   16   17 1
    32   16   44 1
    33   17   25 1
    34   17   18 1
    35   17   45 1
    36   18   23 1
    37   18   19 1
    38   18   46 1
    39   19   20 1
    40   19   47 1
    41   19   48 1
    42   20   26 1
    43   20   21 1
    44   20   49 1
    45   21   22 1
    46   21   50 1
    47   21   51 1
    48   22   23 1
    49   22   24 1
    50   22   52 1
    51   23   53 1
    52   23   54 1
    53   24   25 1
    54   24   55 1
    55   24   56 1
    56   25   26 1
    57   25   57 1
    58   26   58 1
    59   26   59 1
    60   27   28 1
    61   27   60 1
    62   27   61 1
    63   28   29 1
    64   28   62 1
    65   29   30 1
    66   29   63 1
    67   29   64 1
    68   30   31 2
    69   30   32 am
    70   32   65 1
    71   32   66 1
@<TRIPOS>MOLECULE
CHEMBL200513
   59    62     0     0     0
SMALL
USER_CHARGES

@<TRIPOS>ATOM
      1 C1          0.0201    1.5262    0.0319 C.3       1 <0>        -0.1546
      2 C2          0.0409   -0.0037    0.0235 C.3       1 <0>        -0.1251
      3 C3          0.7376   -0.4973   -1.2460 C.3       1 <0>        -0.1215
      4 C4          0.7584   -2.0271   -1.2544 C.3       1 <0>        -0.1233
      5 C5          1.4551   -2.5207   -2.5240 C.3       1 <0>        -0.1089
      6 C6          1.4758   -4.0506   -2.5324 C.3       1 <0>        -0.0553
      7 C7          2.2348   -4.5571   -1.3043 C.3       1 <0>        -0.1052
      8 C8          2.2556   -6.0869   -1.3127 C.3       1 <0>        -0.1137
      9 C9          1.5104   -6.6003   -2.5464 C.3       1 <0>         0.0385
     10 C10         2.1933   -6.0740   -3.8104 C.3       1 <0>        -0.0943
     11 C11         2.1726   -4.5442   -3.8020 C.3       1 <0>        -0.1082
     12 C12         0.0616   -6.1101   -2.5078 C.3       1 <0>        -0.1143
     13 C13         0.0408   -4.5803   -2.4994 C.3       1 <0>        -0.1053
     14 C14         1.5309   -8.1071   -2.5547 C.2       1 <0>         0.1708
     15 N1          1.9814   -8.8663   -3.5131 N.2       1 <0>        -0.2842
     16 N2          1.8874  -10.0998   -3.1650 N.2       1 <0>        -0.2989
     17 C15         1.3904  -10.1725   -1.9599 C.2       1 <0>         0.1906
     18 N3          1.0861   -8.9259   -1.5570 N.pl3     1 <0>        -0.4610
     19 C16         0.3606   -8.4214   -0.3874 C.3       1 <0>         0.0979
     20 C17        -0.1345   -9.5552    0.5110 C.3       1 <0>        -0.1428
     21 C18         0.9889  -10.0909    1.3844 C.3       1 <0>        -0.1248
     22 C19         2.3241  -10.1454    0.6687 C.3       1 <0>        -0.1374
     23 C20         2.3661  -11.4653   -0.1087 C.3       1 <0>        -0.1166
     24 C21         1.2291  -11.4411   -1.1561 C.3       1 <0>        -0.0470
     25 H1          1.0424    1.9035    0.0084 H         1 <0>         0.0533
     26 H2         -0.5206    1.8870   -0.8430 H         1 <0>         0.0533
     27 H3         -0.4763    1.8778    0.9364 H         1 <0>         0.0530
     28 H4          0.5816   -0.3645    0.8985 H         1 <0>         0.0595
     29 H5         -0.9815   -0.3810    0.0471 H         1 <0>         0.0596
     30 H6          0.1969   -0.1364   -2.1210 H         1 <0>         0.0603
     31 H7          1.7599   -0.1199   -1.2696 H         1 <0>         0.0602
     32 H8          1.2991   -2.3880   -0.3795 H         1 <0>         0.0636
     33 H9         -0.2640   -2.4045   -1.2309 H         1 <0>         0.0637
     34 H10         0.9144   -2.1599   -3.3989 H         1 <0>         0.0636
     35 H11         2.4774   -2.1434   -2.5475 H         1 <0>         0.0634
     36 H12         3.2572   -4.1797   -1.3278 H         1 <0>         0.0667
     37 H13         1.7385   -4.2054   -0.3998 H         1 <0>         0.0690
     38 H14         3.2878   -6.4362   -1.3402 H         1 <0>         0.0668
     39 H15         1.7691   -6.4619   -0.4123 H         1 <0>         0.0634
     40 H16         3.2255   -6.4233   -3.8379 H         1 <0>         0.0701
     41 H17         1.6625   -6.4398   -4.6893 H         1 <0>         0.0727
     42 H18         1.6319   -4.1833   -4.6769 H         1 <0>         0.0661
     43 H19         3.1949   -4.1668   -3.8255 H         1 <0>         0.0657
     44 H20        -0.4693   -6.4758   -3.3867 H         1 <0>         0.0681
     45 H21        -0.4249   -6.4850   -1.6073 H         1 <0>         0.0632
     46 H22        -0.4555   -4.2286   -1.5949 H         1 <0>         0.0689
     47 H23        -0.4999   -4.2194   -3.3743 H         1 <0>         0.0670
     48 H24         1.0227   -7.7755    0.1891 H         1 <0>         0.0955
     49 H25        -0.4955   -7.8377   -0.7259 H         1 <0>         0.0947
     50 H26        -0.9363   -9.1824    1.1483 H         1 <0>         0.0906
     51 H27        -0.5197  -10.3628   -0.1115 H         1 <0>         0.0836
     52 H28         1.0871   -9.4506    2.2611 H         1 <0>         0.0641
     53 H29         0.7271  -11.0960    1.7150 H         1 <0>         0.0727
     54 H30         2.4106   -9.3055   -0.0207 H         1 <0>         0.0690
     55 H31         3.1364  -10.1162    1.3950 H         1 <0>         0.0706
     56 H32         3.3289  -11.5671   -0.6093 H         1 <0>         0.0699
     57 H33         2.2162  -12.3003    0.5756 H         1 <0>         0.0790
     58 H34         0.2580  -11.4451   -0.6610 H         1 <0>         0.0950
     59 H35         1.3156  -12.3082   -1.8109 H         1 <0>         0.0988
@<TRIPOS>BOND
     1    1    2 1
     2    1   25 1
     3    1   26 1
     4    1   27 1
     5    2    3 1
     6    2   28 1
     7    2   29 1
     8    3    4 1
     9    3   30 1
    10    3   31 1
    11    4    5 1
    12    4   32 1
    13    4   33 1
    14    5    6 1
    15    5   34 1
    16    5   35 1
    17    6   11 1
    18    6   13 1
    19    6    7 1
    20    7    8 1
    21    7   36 1
    22    7   37 1
    23    8    9 1
    24    8   38 1
    25    8   39 1
    26    9   10 1
    27    9   12 1
    28    9   14 1
    29   10   11 1
    30   10   40 1
    31   10   41 1
    32   11   42 1
    33   11   43 1
    34   12   13 1
    35   12   44 1
    36   12   45 1
    37   13   46 1
    38   13   47 1
    39   14   18 1
    40   14   15 2
    41   15   16 1
    42   16   17 2
    43   17   24 1
    44   17   18 1
    45   18   19 1
    46   19   20 1
    47   19   48 1
    48   19   49 1
    49   20   21 1
    50   20   50 1
    51   20   51 1
    52   21   22 1
    53   21   52 1
    54   21   53 1
    55   22   23 1
    56   22   54 1
    57   22   55 1
    58   23   24 1
    59   23   56 1
    60   23   57 1
    61   24   58 1
    62   24   59 1
@<TRIPOS>MOLECULE
CHEMBL426835
   62    67     0     0     0
SMALL
USER_CHARGES

@<TRIPOS>ATOM
      1 C1         -1.6490    0.8550   -0.1445 C.3       1 <0>         0.0610
      2 N1         -0.7141   -0.2702   -0.0659 N.pl3     1 <0>        -0.4626
      3 C2         -0.0558   -0.8707   -1.1047 C.2       1 <0>         0.1882
      4 N2          0.6780   -1.8320   -0.5898 N.2       1 <0>        -0.2500
      5 N3          0.5178   -1.8643    0.6852 N.2       1 <0>        -0.2779
      6 C3         -0.3164   -0.9302    1.0557 C.2       1 <0>         0.2005
      7 C4         -0.7597   -0.6387    2.4663 C.3       1 <0>         0.0305
      8 C5         -0.5519    0.8465    2.7695 C.3       1 <0>        -0.1116
      9 C6         -1.0019    1.1424    4.2016 C.3       1 <0>        -0.1113
     10 C7         -1.5097   -0.1455    4.8531 C.3       1 <0>         0.0298
     11 C8         -0.3854   -1.1830    4.8759 C.3       1 <0>        -0.1043
     12 C9          0.0646   -1.4789    3.4438 C.3       1 <0>        -0.0929
     13 C10        -2.6916   -0.6918    4.0497 C.3       1 <0>        -0.1008
     14 C11        -2.2416   -0.9877    2.6176 C.3       1 <0>        -0.1069
     15 C12        -1.9529    0.1460    6.2636 C.2       1 <0>         0.3089
     16 N4         -2.4340   -0.7238    7.1052 N.2       1 <0>        -0.5331
     17 C13        -2.7261   -0.1225    8.2726 C.2       1 <0>         0.3098
     18 N5         -2.4270    1.1497    8.1745 N.2       1 <0>        -0.3381
     19 O1         -1.9131    1.3420    6.8650 O.3       1 <0>        -0.0977
     20 C14        -3.2931   -0.7882    9.4710 C.ar      1 <0>        -0.1344
     21 C15        -3.5611   -0.0530   10.6312 C.ar      1 <0>         0.0020
     22 C16        -4.0892   -0.7164   11.7214 C.ar      1 <0>        -0.1924
     23 C17        -4.3354   -2.0819   11.6316 C.ar      1 <0>         0.3462
     24 N6         -4.0703   -2.7483   10.5196 N.ar      1 <0>        -0.5400
     25 C18        -3.5715   -2.1520    9.4555 C.ar      1 <0>         0.2043
     26 O2         -4.8539   -2.7397   12.6981 O.3       1 <0>        -0.3012
     27 C19        -5.0851   -4.1417   12.5460 C.3       1 <0>         0.0363
     28 C20        -0.1518   -0.5069   -2.5355 C.ar      1 <0>         0.0333
     29 C21        -0.0249    0.8257   -2.9296 C.ar      1 <0>        -0.1018
     30 C22        -0.1155    1.1584   -4.2653 C.ar      1 <0>        -0.0846
     31 C23        -0.3317    0.1741   -5.2134 C.ar      1 <0>        -0.1043
     32 C24        -0.4583   -1.1487   -4.8292 C.ar      1 <0>        -0.0703
     33 C25        -0.3639   -1.4952   -3.4968 C.ar      1 <0>        -0.1466
     34 C26        -0.4958   -2.9376   -3.0805 C.3       1 <0>         0.5042
     35 F1         -0.7015   -3.7329   -4.2129 F         1 <0>        -0.1793
     36 F2          0.6747   -3.3445   -2.4312 F         1 <0>        -0.1483
     37 F3         -1.5832   -3.0744   -2.2109 F         1 <0>        -0.1789
     38 H1         -1.1096    1.7878    0.0200 H         1 <0>         0.0885
     39 H2         -2.1138    0.8730   -1.1303 H         1 <0>         0.0944
     40 H3         -2.4193    0.7413    0.6183 H         1 <0>         0.0984
     41 H4          0.5038    1.0952    2.6617 H         1 <0>         0.0786
     42 H5         -1.1391    1.4451    2.0731 H         1 <0>         0.0725
     43 H6         -0.1599    1.5316    4.7739 H         1 <0>         0.0821
     44 H7         -1.8029    1.8816    4.1853 H         1 <0>         0.0803
     45 H8          0.4566   -0.7938    5.4482 H         1 <0>         0.0750
     46 H9         -0.7471   -2.1005    5.3400 H         1 <0>         0.0876
     47 H10        -0.0834   -2.5370    3.2278 H         1 <0>         0.0861
     48 H11         1.1203   -1.2303    3.3360 H         1 <0>         0.0805
     49 H12        -3.0533   -1.6093    4.5138 H         1 <0>         0.0889
     50 H13        -3.4925    0.0474    4.0334 H         1 <0>         0.0746
     51 H14        -2.8288   -0.3891    1.9212 H         1 <0>         0.0698
     52 H15        -2.3896   -2.0458    2.4016 H         1 <0>         0.0819
     53 H16        -3.3596    1.0072   10.6731 H         1 <0>         0.1515
     54 H17        -4.3081   -0.1807   12.6333 H         1 <0>         0.1534
     55 H18        -3.3727   -2.7280    8.5638 H         1 <0>         0.1765
     56 H19        -5.7880   -4.3075   11.7296 H         1 <0>         0.0632
     57 H20        -4.1434   -4.6430   12.3221 H         1 <0>         0.0633
     58 H21        -5.5001   -4.5439   13.4702 H         1 <0>         0.1009
     59 H22         0.1435    1.5949   -2.1905 H         1 <0>         0.1351
     60 H23        -0.0178    2.1895   -4.5716 H         1 <0>         0.1412
     61 H24        -0.4022    0.4397   -6.2579 H         1 <0>         0.1423
     62 H25        -0.6269   -1.9124   -5.5740 H         1 <0>         0.1474
@<TRIPOS>BOND
     1    1    2 1
     2    1   38 1
     3    1   39 1
     4    1   40 1
     5    2    6 1
     6    2    3 1
     7    3    4 2
     8    3   28 1
     9    4    5 1
    10    5    6 2
    11    6    7 1
    12    7   12 1
    13    7   14 1
    14    7    8 1
    15    8    9 1
    16    8   41 1
    17    8   42 1
    18    9   10 1
    19    9   43 1
    20    9   44 1
    21   10   11 1
    22   10   13 1
    23   10   15 1
    24   11   12 1
    25   11   45 1
    26   11   46 1
    27   12   47 1
    28   12   48 1
    29   13   14 1
    30   13   49 1
    31   13   50 1
    32   14   51 1
    33   14   52 1
    34   15   19 1
    35   15   16 2
    36   16   17 1
    37   17   18 2
    38   17   20 1
    39   18   19 1
    40   20   25 ar
    41   20   21 ar
    42   21   22 ar
    43   21   53 1
    44   22   23 ar
    45   22   54 1
    46   23   24 ar
    47   23   26 1
    48   24   25 ar
    49   25   55 1
    50   26   27 1
    51   27   56 1
    52   27   57 1
    53   27   58 1
    54   28   33 ar
    55   28   29 ar
    56   29   30 ar
    57   29   59 1
    58   30   31 ar
    59   30   60 1
    60   31   32 ar
    61   31   61 1
    62   32   33 ar
    63   32   62 1
    64   33   34 1
    65   34   35 1
    66   34   36 1
    67   34   37 1
@<TRIPOS>MOLECULE
CHEMBL216783
   63    66     0     0     0
SMALL
USER_CHARGES

@<TRIPOS>ATOM
      1 C1         -0.3156    2.0721   -0.3001 C.3       1 <0>        -0.1362
      2 C2         -0.1604    0.5504   -0.2661 C.3       1 <0>         0.0907
      3 C3          0.6688    0.1495    0.9557 C.3       1 <0>        -0.1644
      4 C4         -1.5212   -0.0916   -0.1823 C.2       1 <0>         0.5216
      5 O1         -1.9788   -0.4043    0.8965 O.2       1 <0>        -0.5489
      6 N1         -2.2296   -0.3184   -1.3062 N.am      1 <0>        -0.6954
      7 C5         -3.5525   -0.9426   -1.2247 C.3       1 <0>         0.1334
      8 C6         -3.4520   -2.4825   -1.3856 C.3       1 <0>        -0.0866
      9 C7         -3.2445   -2.6776   -2.9053 C.3       1 <0>        -0.2536
     10 C8         -3.8677   -1.4457   -3.5863 C.3       1 <0>        -0.2588
     11 C9         -4.4250   -0.5589   -2.4490 C.3       1 <0>        -0.0884
     12 C10        -5.8528   -1.0448   -2.1436 C.3       1 <0>        -0.0853
     13 C11        -5.8539   -2.5728   -2.0677 C.3       1 <0>        -0.1598
     14 C12        -4.8359   -3.0549   -1.0324 C.3       1 <0>        -0.0876
     15 C13        -5.4982   -3.1394   -3.4181 C.2       1 <0>         0.5385
     16 O2         -4.9269   -4.2136   -3.4972 O.co2     1 <0>        -0.6495
     17 O3         -5.7817   -2.5236   -4.4315 O.co2     1 <0>        -0.6501
     18 N2          0.5191    0.1001   -1.4882 N.3       1 <0>        -0.5231
     19 C14         0.5952   -1.3660   -1.5385 C.3       1 <0>         0.0298
     20 C15         1.1433   -1.7993   -2.9024 C.3       1 <0>         0.1260
     21 N3          2.4169   -1.1021   -3.1369 N.pl3     1 <0>        -0.5961
     22 C16         2.4514    0.3589   -2.9702 C.3       1 <0>         0.1260
     23 C17         1.8518    0.7071   -1.6036 C.3       1 <0>         0.0361
     24 C18         3.5575   -1.8051   -3.5069 C.ar      1 <0>         0.4351
     25 C19         3.4543   -3.1439   -3.8713 C.ar      1 <0>        -0.2402
     26 C20         4.5972   -3.8313   -4.2372 C.ar      1 <0>         0.0177
     27 C21         5.8099   -3.1544   -4.2264 C.ar      1 <0>        -0.3122
     28 C22         5.8392   -1.8257   -3.8538 C.ar      1 <0>         0.2092
     29 N4          4.7316   -1.1933   -3.5145 N.ar      1 <0>        -0.5424
     30 C23         7.0809   -3.8635   -4.6170 C.3       1 <0>         0.5221
     31 F1          7.2868   -3.7270   -5.9941 F         1 <0>        -0.1792
     32 F2          8.1598   -3.3013   -3.9263 F         1 <0>        -0.1798
     33 F3          6.9762   -5.2206   -4.2934 F         1 <0>        -0.1795
     34 H1          0.6686    2.5365   -0.3607 H         1 <0>         0.0680
     35 H2         -0.9063    2.3577   -1.1705 H         1 <0>         0.0698
     36 H3         -0.8198    2.4062    0.6067 H         1 <0>         0.0677
     37 H4          0.1646    0.4836    1.8625 H         1 <0>         0.0745
     38 H5          0.7794   -0.9346    0.9799 H         1 <0>         0.0585
     39 H6          1.6531    0.6139    0.8951 H         1 <0>         0.0621
     40 H7         -1.8636   -0.0684   -2.1690 H         1 <0>         0.4055
     41 H8         -4.0503   -0.6782   -0.2918 H         1 <0>         0.0784
     42 H9         -2.6541   -2.9168   -0.7832 H         1 <0>         0.0566
     43 H10        -2.1803   -2.7338   -3.1340 H         1 <0>         0.0085
     44 H11        -3.7483   -3.5849   -3.2388 H         1 <0>         0.2160
     45 H12        -3.1067   -0.9023   -4.1464 H         1 <0>         0.0106
     46 H13        -4.6747   -1.7534   -4.2512 H         1 <0>         0.2179
     47 H14        -4.3758    0.5044   -2.6834 H         1 <0>         0.0630
     48 H15        -6.1823   -0.6321   -1.1901 H         1 <0>         0.0407
     49 H16        -6.5264   -0.7185   -2.9360 H         1 <0>         0.0699
     50 H17        -6.8479   -2.9192   -1.7847 H         1 <0>         0.0650
     51 H18        -4.7935   -4.1440   -1.0423 H         1 <0>         0.0674
     52 H19        -5.1316   -2.7091   -0.0418 H         1 <0>         0.0404
     53 H20         1.2577   -1.7231   -0.7501 H         1 <0>         0.0440
     54 H21        -0.4001   -1.7870   -1.3961 H         1 <0>         0.1000
     55 H22         1.3097   -2.8765   -2.9047 H         1 <0>         0.0913
     56 H23         0.4313   -1.5342   -3.6840 H         1 <0>         0.0859
     57 H24         3.4828    0.7085   -3.0174 H         1 <0>         0.1014
     58 H25         1.8653    0.8313   -3.7584 H         1 <0>         0.0745
     59 H26         1.7679    1.7897   -1.5085 H         1 <0>         0.0936
     60 H27         2.4969    0.3211   -0.8144 H         1 <0>         0.0448
     61 H28         2.4948   -3.6397   -3.8682 H         1 <0>         0.1458
     62 H29         4.5479   -4.8712   -4.5245 H         1 <0>         0.1447
     63 H30         6.7801   -1.2956   -3.8437 H         1 <0>         0.1646
@<TRIPOS>BOND
     1    1    2 1
     2    1   34 1
     3    1   35 1
     4    1   36 1
     5    2    3 1
     6    2    4 1
     7    2   18 1
     8    3   37 1
     9    3   38 1
    10    3   39 1
    11    4    5 2
    12    4    6 am
    13    6    7 1
    14    6   40 1
    15    7   11 1
    16    7    8 1
    17    7   41 1
    18    8   14 1
    19    8    9 1
    20    8   42 1
    21    9   10 1
    22    9   43 1
    23    9   44 1
    24   10   11 1
    25   10   45 1
    26   10   46 1
    27   11   12 1
    28   11   47 1
    29   12   13 1
    30   12   48 1
    31   12   49 1
    32   13   14 1
    33   13   15 1
    34   13   50 1
    35   14   51 1
    36   14   52 1
    37   15   16 2
    38   15   17 1
    39   18   23 1
    40   18   19 1
    41   19   20 1
    42   19   53 1
    43   19   54 1
    44   20   21 1
    45   20   55 1
    46   20   56 1
    47   21   22 1
    48   21   24 1
    49   22   23 1
    50   22   57 1
    51   22   58 1
    52   23   59 1
    53   23   60 1
    54   24   29 ar
    55   24   25 ar
    56   25   26 ar
    57   25   61 1
    58   26   27 ar
    59   26   62 1
    60   27   28 ar
    61   27   30 1
    62   28   29 ar
    63   28   63 1
    64   30   31 1
    65   30   32 1
    66   30   33 1
@<TRIPOS>MOLECULE
CHEMBL384692
   68    71     0     0     0
SMALL
USER_CHARGES

@<TRIPOS>ATOM
      1 C1          0.1056    1.8017   -0.2273 C.3       1 <0>        -0.1390
      2 C2          0.2067    0.2889   -0.0225 C.3       1 <0>         0.0909
      3 C3          1.0934   -0.0036    1.1896 C.3       1 <0>        -0.1677
      4 C4         -1.1691   -0.2793    0.2128 C.2       1 <0>         0.5303
      5 O1         -1.5714   -0.4446    1.3450 O.2       1 <0>        -0.5376
      6 N1         -1.9525   -0.6036   -0.8348 N.am      1 <0>        -0.7238
      7 C5         -3.3020   -1.1608   -0.6040 C.3       1 <0>         0.1487
      8 C6         -3.1595   -2.6519   -0.3392 C.3       1 <0>        -0.1196
      9 C7         -4.4808   -3.4016   -0.4149 C.3       1 <0>        -0.0758
     10 C8         -5.1572   -3.1441   -1.7610 C.3       1 <0>        -0.1122
     11 C9         -5.4526   -1.6480   -1.8628 C.3       1 <0>        -0.0763
     12 C10        -4.1561   -0.8535   -1.8245 C.3       1 <0>        -0.1183
     13 C11        -6.4137   -1.2265   -0.7618 C.3       1 <0>        -0.0983
     14 C12        -5.9239   -1.5936    0.6309 C.3       1 <0>        -0.0991
     15 C13        -5.4173   -3.0251    0.7231 C.3       1 <0>        -0.1036
     16 C14        -7.0836   -1.4363    1.5998 C.2       1 <0>         0.5134
     17 O2         -8.1668   -1.0708    1.1948 O.2       1 <0>        -0.5428
     18 N2         -6.9086   -1.7029    2.9093 N.am      1 <0>        -0.8562
     19 N3          0.7936   -0.3291   -1.2191 N.3       1 <0>        -0.5242
     20 C15         0.8125   -1.7931   -1.1000 C.3       1 <0>         0.0276
     21 C16         1.2604   -2.4048   -2.4317 C.3       1 <0>         0.1278
     22 N4          2.5421   -1.7956   -2.8181 N.pl3     1 <0>        -0.6008
     23 C17         2.6403   -0.3282   -2.8274 C.3       1 <0>         0.1268
     24 C18         2.1382    0.2018   -1.4801 C.3       1 <0>         0.0346
     25 C19         3.6315   -2.5858   -3.1659 C.ar      1 <0>         0.4325
     26 C20         3.4573   -3.9521   -3.3632 C.ar      1 <0>        -0.2416
     27 C21         4.5498   -4.7264   -3.7088 C.ar      1 <0>         0.0179
     28 C22         5.7849   -4.1062   -3.8462 C.ar      1 <0>        -0.3051
     29 C23         5.8855   -2.7459   -3.6354 C.ar      1 <0>         0.2110
     30 N5          4.8246   -2.0308   -3.3117 N.ar      1 <0>        -0.5397
     31 C24         7.0029   -4.9105   -4.2211 C.3       1 <0>         0.5209
     32 F1          7.1294   -4.9435   -5.6139 F         1 <0>        -0.1776
     33 F2          8.1417   -4.3196   -3.6632 F         1 <0>        -0.1776
     34 F3          6.8683   -6.2151   -3.7340 F         1 <0>        -0.1788
     35 H1          1.1007    2.2126   -0.3975 H         1 <0>         0.0719
     36 H2         -0.5261    2.0101   -1.0908 H         1 <0>         0.0703
     37 H3         -0.3298    2.2602    0.6606 H         1 <0>         0.0696
     38 H4          0.6580    0.4549    2.0774 H         1 <0>         0.0763
     39 H5          1.1654   -1.0814    1.3354 H         1 <0>         0.0591
     40 H6          2.0885    0.4073    1.0193 H         1 <0>         0.0661
     41 H7         -1.6308   -0.4713   -1.7403 H         1 <0>         0.4065
     42 H8         -3.7003   -0.6554    0.2755 H         1 <0>         0.0889
     43 H9         -2.4620   -3.0802   -1.0705 H         1 <0>         0.0638
     44 H10        -2.7208   -2.7988    0.6561 H         1 <0>         0.0673
     45 H11        -4.2694   -4.4817   -0.3452 H         1 <0>         0.0743
     46 H12        -4.4923   -3.4431   -2.5696 H         1 <0>         0.0676
     47 H13        -6.0869   -3.7081   -1.8198 H         1 <0>         0.0688
     48 H14        -5.9404   -1.4663   -2.8351 H         1 <0>         0.0772
     49 H15        -4.3922    0.2183   -1.8363 H         1 <0>         0.0688
     50 H16        -3.5762   -1.0707   -2.7310 H         1 <0>         0.0681
     51 H17        -6.5638   -0.1405   -0.8136 H         1 <0>         0.0672
     52 H18        -7.3883   -1.6997   -0.9356 H         1 <0>         0.0767
     53 H19        -5.1494   -0.8977    0.9540 H         1 <0>         0.0988
     54 H20        -6.2750   -3.7098    0.7228 H         1 <0>         0.0670
     55 H21        -4.8929   -3.1586    1.6779 H         1 <0>         0.0668
     56 H22        -6.0423   -1.9953    3.2332 H         1 <0>         0.4018
     57 H23        -7.6490   -1.6025    3.5279 H         1 <0>         0.4011
     58 H24         1.5083   -2.0851   -0.3134 H         1 <0>         0.0472
     59 H25        -0.1870   -2.1510   -0.8532 H         1 <0>         0.0933
     60 H26         1.3867   -3.4813   -2.3161 H         1 <0>         0.0900
     61 H27         0.5124   -2.2013   -3.1980 H         1 <0>         0.0806
     62 H28         3.6790   -0.0316   -2.9733 H         1 <0>         0.1035
     63 H29         2.0250    0.0750   -3.6317 H         1 <0>         0.0744
     64 H30         2.1000    1.2908   -1.5089 H         1 <0>         0.0961
     65 H31         2.8155   -0.1179   -0.6882 H         1 <0>         0.0479
     66 H32         2.4822   -4.4018   -3.2476 H         1 <0>         0.1431
     67 H33         4.4450   -5.7894   -3.8680 H         1 <0>         0.1457
     68 H34         6.8441   -2.2597   -3.7408 H         1 <0>         0.1675
@<TRIPOS>BOND
     1    1    2 1
     2    1   35 1
     3    1   36 1
     4    1   37 1
     5    2    3 1
     6    2    4 1
     7    2   19 1
     8    3   38 1
     9    3   39 1
    10    3   40 1
    11    4    5 2
    12    4    6 am
    13    6    7 1
    14    6   41 1
    15    7   12 1
    16    7    8 1
    17    7   42 1
    18    8    9 1
    19    8   43 1
    20    8   44 1
    21    9   15 1
    22    9   10 1
    23    9   45 1
    24   10   11 1
    25   10   46 1
    26   10   47 1
    27   11   12 1
    28   11   13 1
    29   11   48 1
    30   12   49 1
    31   12   50 1
    32   13   14 1
    33   13   51 1
    34   13   52 1
    35   14   15 1
    36   14   16 1
    37   14   53 1
    38   15   54 1
    39   15   55 1
    40   16   17 2
    41   16   18 am
    42   18   56 1
    43   18   57 1
    44   19   24 1
    45   19   20 1
    46   20   21 1
    47   20   58 1
    48   20   59 1
    49   21   22 1
    50   21   60 1
    51   21   61 1
    52   22   23 1
    53   22   25 1
    54   23   24 1
    55   23   62 1
    56   23   63 1
    57   24   64 1
    58   24   65 1
    59   25   30 ar
    60   25   26 ar
    61   26   27 ar
    62   26   66 1
    63   27   28 ar
    64   27   67 1
    65   28   29 ar
    66   28   31 1
    67   29   30 ar
    68   29   68 1
    69   31   32 1
    70   31   33 1
    71   31   34 1
@<TRIPOS>MOLECULE
CHEMBL452587
   58    61     0     0     0
SMALL
USER_CHARGES

@<TRIPOS>ATOM
      1 C1         -0.4725    1.7607    8.5792 C.3       1 <0>        -0.1505
      2 C2          1.0241    1.4469    8.6308 C.3       1 <0>         0.1434
      3 C3          1.3515    0.3907    7.6069 C.ar      1 <0>        -0.1063
      4 C4          0.6100    0.3078    6.4417 C.ar      1 <0>        -0.1030
      5 C5          0.9045   -0.6568    5.5003 C.ar      1 <0>        -0.0575
      6 C6          1.9530   -1.5501    5.7254 C.ar      1 <0>        -0.1323
      7 C7          2.6970   -1.4609    6.9030 C.ar      1 <0>        -0.1540
      8 C8          2.3957   -0.4881    7.8336 C.ar      1 <0>        -0.1143
      9 C9          2.2739   -2.5866    4.7211 C.2       1 <0>         0.5832
     10 O1          1.3943   -3.0450    4.0185 O.2       1 <0>        -0.4937
     11 N1          3.5416   -3.0231    4.5847 N.am      1 <0>        -0.6163
     12 C10         4.3421   -3.3311    5.7724 C.3       1 <0>         0.1534
     13 C11         3.4262   -3.8417    6.8864 C.3       1 <0>        -0.2025
     14 C12         4.2622   -4.1633    8.1268 C.3       1 <0>        -0.1079
     15 C13         4.9825   -2.8985    8.5983 C.3       1 <0>        -0.0555
     16 C14         5.8985   -2.3879    7.4843 C.3       1 <0>        -0.1122
     17 C15         5.0624   -2.0663    6.2439 C.3       1 <0>        -0.1892
     18 C16         5.8059   -3.2152    9.8201 C.ar      1 <0>        -0.1283
     19 C17         5.5615   -2.5639   11.0197 C.ar      1 <0>        -0.0730
     20 C18         6.3440   -2.8874   12.1174 C.ar      1 <0>        -0.1684
     21 C19         7.3347   -3.8416   11.9806 C.ar      1 <0>         0.0945
     22 N2          7.5392   -4.4405   10.8239 N.ar      1 <0>        -0.4816
     23 C20         6.8103   -4.1624    9.7605 C.ar      1 <0>         0.1042
     24 C21         4.1192   -3.1898    3.2487 C.3       1 <0>         0.0828
     25 C22         3.3595   -2.5790    2.0694 C.3       1 <0>        -0.1873
     26 C23         3.3757   -4.0962    2.2656 C.3       1 <0>        -0.1875
     27 C24         1.8221    2.7164    8.3270 C.3       1 <0>         0.4260
     28 F1          1.5182    3.6969    9.2775 F         1 <0>        -0.1711
     29 F2          3.1906    2.4295    8.3741 F         1 <0>        -0.1805
     30 F3          1.4873    3.1837    7.0515 F         1 <0>        -0.1730
     31 O2          1.3661    0.9696    9.9336 O.3       1 <0>        -0.5182
     32 H1         -1.0410    0.8562    8.7956 H         1 <0>         0.0931
     33 H2         -0.7093    2.5246    9.3198 H         1 <0>         0.0848
     34 H3         -0.7334    2.1247    7.5855 H         1 <0>         0.0899
     35 H4         -0.2013    0.9994    6.2689 H         1 <0>         0.1395
     36 H5          0.3247   -0.7207    4.5913 H         1 <0>         0.1392
     37 H6          3.5096   -2.1492    7.0832 H         1 <0>         0.2241
     38 H7          2.9735   -0.4153    8.7432 H         1 <0>         0.1289
     39 H8          5.0772   -4.0975    5.5264 H         1 <0>         0.0991
     40 H9          2.6912   -3.0753    7.1324 H         1 <0>         0.1219
     41 H10         2.9130   -4.7428    6.5505 H         1 <0>         0.0805
     42 H11         3.6096   -4.5271    8.9205 H         1 <0>         0.0766
     43 H12         4.9972   -4.9297    7.8809 H         1 <0>         0.0749
     44 H13         4.2475   -2.1321    8.8443 H         1 <0>         0.0834
     45 H14         6.4116   -1.4868    7.8202 H         1 <0>         0.0751
     46 H15         6.6335   -3.1543    7.2383 H         1 <0>         0.0738
     47 H16         5.7150   -1.7025    5.4502 H         1 <0>         0.0793
     48 H17         4.3274   -1.2999    6.4898 H         1 <0>         0.1103
     49 H18         4.7805   -1.8221   11.0969 H         1 <0>         0.1335
     50 H19         6.1818   -2.3998   13.0673 H         1 <0>         0.1362
     51 H20         7.9486   -4.0992   12.8310 H         1 <0>         0.1558
     52 H21         7.0037   -4.6776    8.8312 H         1 <0>         0.1530
     53 H22         5.2082   -3.1844    3.2033 H         1 <0>         0.1331
     54 H23         2.4300   -2.0531    2.2876 H         1 <0>         0.0991
     55 H24         3.9487   -2.1714    1.2479 H         1 <0>         0.1025
     56 H25         3.9755   -4.6869    1.5732 H         1 <0>         0.0972
     57 H26         2.4568   -4.5686    2.6129 H         1 <0>         0.1069
     58 H27         2.3020    0.7504   10.0390 H         1 <0>         0.3849
@<TRIPOS>BOND
     1    1    2 1
     2    1   32 1
     3    1   33 1
     4    1   34 1
     5    2    3 1
     6    2   27 1
     7    2   31 1
     8    3    8 ar
     9    3    4 ar
    10    4    5 ar
    11    4   35 1
    12    5    6 ar
    13    5   36 1
    14    6    7 ar
    15    6    9 1
    16    7    8 ar
    17    7   37 1
    18    8   38 1
    19    9   10 2
    20    9   11 am
    21   11   12 1
    22   11   24 1
    23   12   17 1
    24   12   13 1
    25   12   39 1
    26   13   14 1
    27   13   40 1
    28   13   41 1
    29   14   15 1
    30   14   42 1
    31   14   43 1
    32   15   16 1
    33   15   18 1
    34   15   44 1
    35   16   17 1
    36   16   45 1
    37   16   46 1
    38   17   47 1
    39   17   48 1
    40   18   23 ar
    41   18   19 ar
    42   19   20 ar
    43   19   49 1
    44   20   21 ar
    45   20   50 1
    46   21   22 ar
    47   21   51 1
    48   22   23 ar
    49   23   52 1
    50   24   26 1
    51   24   25 1
    52   24   53 1
    53   25   26 1
    54   25   54 1
    55   25   55 1
    56   26   56 1
    57   26   57 1
    58   27   28 1
    59   27   29 1
    60   27   30 1
    61   31   58 1
@<TRIPOS>MOLECULE
CHEMBL218093
   57    61     0     0     0
SMALL
USER_CHARGES

@<TRIPOS>ATOM
      1 C1         -0.0169    1.3848   -0.0049 C.ar      1 <0>        -0.1917
      2 C2          1.1704    2.0902   -0.0124 C.ar      1 <0>        -0.0583
      3 C3          2.3781    1.4147   -0.0135 C.ar      1 <0>        -0.0961
      4 C4          2.4000    0.0311   -0.0071 C.ar      1 <0>        -0.0578
      5 C5          1.2158   -0.6795    0.0009 C.ar      1 <0>        -0.1902
      6 C6          0.0021   -0.0041    0.0020 C.ar      1 <0>         0.2276
      7 N1         -1.1977   -0.7205    0.0101 N.pl3     1 <0>        -0.6276
      8 C7         -2.4897   -0.0279    0.1306 C.3       1 <0>         0.1253
      9 C8         -3.4089   -0.5132   -0.9954 C.3       1 <0>         0.0399
     10 N2         -3.4850   -1.9799   -0.9632 N.3       1 <0>        -0.5182
     11 C9         -2.1720   -2.5873   -1.2184 C.3       1 <0>         0.0369
     12 C10        -1.2024   -2.1865   -0.1078 C.3       1 <0>         0.1278
     13 C11        -4.4884   -2.4760   -1.9146 C.3       1 <0>         0.0352
     14 C12        -4.7150   -3.9478   -1.6837 C.2       1 <0>         0.5144
     15 O1         -4.1012   -4.5266   -0.8124 O.2       1 <0>        -0.5188
     16 N3         -5.5999   -4.6210   -2.4455 N.am      1 <0>        -0.7264
     17 C13        -5.8203   -6.0518   -2.2210 C.3       1 <0>         0.1600
     18 C14        -4.7696   -6.8563   -2.9891 C.3       1 <0>        -0.0941
     19 C15        -4.8856   -6.5507   -4.4838 C.3       1 <0>        -0.1060
     20 C16        -6.2824   -6.9350   -4.9760 C.3       1 <0>        -0.0873
     21 C17        -6.5125   -8.4293   -4.7416 C.3       1 <0>        -0.1084
     22 C18        -6.3965   -8.7349   -3.2469 C.3       1 <0>        -0.0886
     23 C19        -4.9998   -8.3506   -2.7547 C.3       1 <0>        -0.1069
     24 C20        -7.4472   -7.9304   -2.4789 C.3       1 <0>        -0.1057
     25 C21        -7.2170   -6.4361   -2.7133 C.3       1 <0>        -0.0929
     26 C22        -7.3330   -6.1305   -4.2080 C.3       1 <0>        -0.1090
     27 Cl1         3.8686    2.3047   -0.0235 Cl        1 <0>        -0.0808
     28 H1         -0.9591    1.9125    0.0000 H         1 <0>         0.1307
     29 H2          1.1563    3.1701   -0.0179 H         1 <0>         0.1312
     30 H3          3.3440   -0.4936   -0.0086 H         1 <0>         0.1314
     31 H4          1.2334   -1.7593    0.0056 H         1 <0>         0.1310
     32 H5         -2.9401   -0.2585    1.0960 H         1 <0>         0.0740
     33 H6         -2.3382    1.0478    0.0416 H         1 <0>         0.0888
     34 H7         -4.4056   -0.0942   -0.8572 H         1 <0>         0.0882
     35 H8         -3.0084   -0.1907   -1.9564 H         1 <0>         0.0407
     36 H9         -2.2717   -3.6725   -1.2420 H         1 <0>         0.1048
     37 H10        -1.7887   -2.2359   -2.1763 H         1 <0>         0.0327
     38 H11        -0.2002   -2.5372   -0.3542 H         1 <0>         0.0860
     39 H12        -1.5267   -2.6286    0.8343 H         1 <0>         0.0746
     40 H13        -5.4246   -1.9370   -1.7693 H         1 <0>         0.1054
     41 H14        -4.1327   -2.3185   -2.9329 H         1 <0>         0.0633
     42 H15        -6.0909   -4.1581   -3.1424 H         1 <0>         0.3977
     43 H16        -5.7377   -6.2695   -1.1562 H         1 <0>         0.0881
     44 H17        -3.7746   -6.5825   -2.6384 H         1 <0>         0.0731
     45 H18        -4.7217   -5.4862   -4.6508 H         1 <0>         0.0589
     46 H19        -4.1371   -7.1239   -5.0309 H         1 <0>         0.0623
     47 H20        -6.3650   -6.7173   -6.0408 H         1 <0>         0.0702
     48 H21        -7.5076   -8.7031   -5.0922 H         1 <0>         0.0626
     49 H22        -5.7640   -9.0025   -5.2887 H         1 <0>         0.0626
     50 H23        -6.5605   -9.7995   -3.0799 H         1 <0>         0.0726
     51 H24        -4.2513   -8.9237   -3.3018 H         1 <0>         0.0655
     52 H25        -4.9172   -8.5683   -1.6898 H         1 <0>         0.0647
     53 H26        -8.4423   -8.2042   -2.8295 H         1 <0>         0.0684
     54 H27        -7.3646   -8.1481   -1.4140 H         1 <0>         0.0657
     55 H28        -7.9655   -5.8630   -2.1661 H         1 <0>         0.0760
     56 H29        -7.1691   -5.0660   -4.3750 H         1 <0>         0.0584
     57 H30        -8.3281   -6.4043   -4.5586 H         1 <0>         0.0677
@<TRIPOS>BOND
     1    1    6 ar
     2    1    2 ar
     3    1   28 1
     4    2    3 ar
     5    2   29 1
     6    3    4 ar
     7    3   27 1
     8    4    5 ar
     9    4   30 1
    10    5    6 ar
    11    5   31 1
    12    6    7 1
    13    7   12 1
    14    7    8 1
    15    8    9 1
    16    8   32 1
    17    8   33 1
    18    9   10 1
    19    9   34 1
    20    9   35 1
    21   10   11 1
    22   10   13 1
    23   11   12 1
    24   11   36 1
    25   11   37 1
    26   12   38 1
    27   12   39 1
    28   13   14 1
    29   13   40 1
    30   13   41 1
    31   14   15 2
    32   14   16 am
    33   16   17 1
    34   16   42 1
    35   17   25 1
    36   17   18 1
    37   17   43 1
    38   18   23 1
    39   18   19 1
    40   18   44 1
    41   19   20 1
    42   19   45 1
    43   19   46 1
    44   20   26 1
    45   20   21 1
    46   20   47 1
    47   21   22 1
    48   21   48 1
    49   21   49 1
    50   22   23 1
    51   22   24 1
    52   22   50 1
    53   23   51 1
    54   23   52 1
    55   24   25 1
    56   24   53 1
    57   24   54 1
    58   25   26 1
    59   25   55 1
    60   26   56 1
    61   26   57 1
@<TRIPOS>MOLECULE
CHEMBL240619
   75    79     0     0     0
SMALL
USER_CHARGES

@<TRIPOS>ATOM
      1 C1          0.4307    1.4909    0.0459 C.3       1 <0>        -0.1374
      2 C2          0.2376   -0.0269    0.0552 C.3       1 <0>         0.0962
      3 C3          1.2756   -0.6673    0.9790 C.3       1 <0>        -0.1971
      4 C4         -1.1470   -0.3541    0.5521 C.2       1 <0>         0.4896
      5 O1         -1.9181   -0.9633   -0.1587 O.2       1 <0>        -0.5091
      6 N1         -1.5284    0.0302    1.7863 N.am      1 <0>        -0.7171
      7 C5         -2.8744   -0.2879    2.2693 C.3       1 <0>         0.1540
      8 C6         -3.8545    0.7855    1.7917 C.3       1 <0>        -0.0861
      9 C7         -3.4250    2.1481    2.3392 C.3       1 <0>        -0.1097
     10 C8         -3.4212    2.1051    3.8685 C.3       1 <0>        -0.0773
     11 C9         -2.4410    1.0317    4.3461 C.3       1 <0>        -0.1132
     12 C10        -2.8705   -0.3309    3.7987 C.3       1 <0>        -0.0829
     13 C11        -4.2762   -0.6632    4.3031 C.3       1 <0>        -0.0924
     14 C12        -5.2564    0.4102    3.8256 C.3       1 <0>        -0.5277
     15 C13        -4.8269    1.7729    4.3730 C.3       1 <0>        -0.0995
     16 C14        -5.2602    0.4532    2.2962 C.3       1 <0>        -0.0977
     17 S1         -6.9230    0.0163    4.4236 S.o2      1 <0>         2.4131
     18 O2         -7.3489   -1.1902    3.8054 O.2       1 <0>        -0.9316
     19 O3         -6.9240    0.1039    5.8419 O.2       1 <0>        -0.9308
     20 C15        -7.9186    1.3816    3.7638 C.3       1 <0>        -0.6137
     21 C16        -9.3781    1.1984    4.1848 C.3       1 <0>        -0.1087
     22 C17       -10.2179    2.3500    3.6283 C.3       1 <0>         0.0638
     23 N2        -11.6192    2.1740    4.0324 N.3       1 <0>        -0.5391
     24 C18       -12.2051    0.9842    3.3981 C.3       1 <0>         0.0096
     25 C19       -13.6432    0.8053    3.8917 C.3       1 <0>         0.0622
     26 O4        -14.3897    1.9921    3.6101 O.3       1 <0>        -0.3848
     27 C20       -13.8474    3.1701    4.2130 C.3       1 <0>         0.0625
     28 C21       -12.4114    3.3731    3.7226 C.3       1 <0>         0.0173
     29 O5          0.4008   -0.5360   -1.2700 O.3       1 <0>        -0.2701
     30 C22         0.2786   -1.8802   -1.4343 C.ar      1 <0>         0.1416
     31 C23        -0.1155   -2.6766   -0.3696 C.ar      1 <0>        -0.1458
     32 C24        -0.2399   -4.0422   -0.5379 C.ar      1 <0>        -0.1137
     33 C25         0.0286   -4.6165   -1.7689 C.ar      1 <0>         0.0783
     34 C26         0.4221   -3.8235   -2.8332 C.ar      1 <0>        -0.1127
     35 C27         0.5424   -2.4559   -2.6693 C.ar      1 <0>        -0.0414
     36 Cl1         1.0296   -1.4604   -4.0055 Cl        1 <0>        -0.0425
     37 F1         -0.0932   -5.9521   -1.9314 F         1 <0>        -0.1329
     38 H1          1.4580    1.7247   -0.2333 H         1 <0>         0.0848
     39 H2         -0.2529    1.9396   -0.6748 H         1 <0>         0.0771
     40 H3          0.2244    1.8895    1.0392 H         1 <0>         0.0829
     41 H4          1.0261   -0.4435    2.0162 H         1 <0>         0.0798
     42 H5          1.2770   -1.7472    0.8306 H         1 <0>         0.0843
     43 H6          2.2631   -0.2676    0.7484 H         1 <0>         0.0871
     44 H7         -0.9117    0.5174    2.3548 H         1 <0>         0.4007
     45 H8         -3.1803   -1.2587    1.8793 H         1 <0>         0.0949
     46 H9         -3.8573    0.8161    0.7022 H         1 <0>         0.0853
     47 H10        -2.4236    2.3848    1.9798 H         1 <0>         0.0670
     48 H11        -4.1233    2.9128    1.9989 H         1 <0>         0.0679
     49 H12        -3.1152    3.0759    4.2585 H         1 <0>         0.0824
     50 H13        -1.4396    1.2684    3.9867 H         1 <0>         0.0649
     51 H14        -2.4383    1.0011    5.4357 H         1 <0>         0.0753
     52 H15        -2.1722   -1.0956    4.1389 H         1 <0>         0.0882
     53 H16        -4.5822   -1.6339    3.9131 H         1 <0>         0.0848
     54 H17        -4.2735   -0.6938    5.3927 H         1 <0>         0.0889
     55 H18        -4.8241    1.7423    5.4625 H         1 <0>         0.0878
     56 H19        -5.5252    2.5376    4.0328 H         1 <0>         0.0772
     57 H20        -5.9585    1.2179    1.9560 H         1 <0>         0.0801
     58 H21        -5.5662   -0.5175    1.9062 H         1 <0>         0.0885
     59 H22        -7.5435    2.3272    4.1554 H         1 <0>         0.1365
     60 H23        -7.8522    1.3870    2.6758 H         1 <0>         0.1342
     61 H24        -9.7533    0.2529    3.7932 H         1 <0>         0.0803
     62 H25        -9.4445    1.1930    5.2727 H         1 <0>         0.0907
     63 H26        -9.8427    3.2955    4.0199 H         1 <0>         0.0821
     64 H27       -10.1514    2.3553    2.5403 H         1 <0>         0.0413
     65 H28       -12.2051    1.1117    2.3155 H         1 <0>         0.0462
     66 H29       -11.6176    0.1047    3.6616 H         1 <0>         0.0904
     67 H30       -14.1005   -0.0422    3.3811 H         1 <0>         0.1005
     68 H31       -13.6391    0.6243    4.9666 H         1 <0>         0.0619
     69 H32       -14.4524    4.0330    3.9347 H         1 <0>         0.0997
     70 H33       -13.8493    3.0579    5.2972 H         1 <0>         0.0615
     71 H34       -11.9745    4.2373    4.2230 H         1 <0>         0.0880
     72 H35       -12.4147    3.5387    2.6452 H         1 <0>         0.0446
     73 H36        -0.3248   -2.2295    0.5910 H         1 <0>         0.1436
     74 H37        -0.5465   -4.6624    0.2915 H         1 <0>         0.1428
     75 H38         0.6313   -4.2727   -3.7928 H         1 <0>         0.1527
@<TRIPOS>BOND
     1    1    2 1
     2    1   38 1
     3    1   39 1
     4    1   40 1
     5    2    3 1
     6    2    4 1
     7    2   29 1
     8    3   41 1
     9    3   42 1
    10    3   43 1
    11    4    5 2
    12    4    6 am
    13    6    7 1
    14    6   44 1
    15    7   12 1
    16    7    8 1
    17    7   45 1
    18    8   16 1
    19    8    9 1
    20    8   46 1
    21    9   10 1
    22    9   47 1
    23    9   48 1
    24   10   15 1
    25   10   11 1
    26   10   49 1
    27   11   12 1
    28   11   50 1
    29   11   51 1
    30   12   13 1
    31   12   52 1
    32   13   14 1
    33   13   53 1
    34   13   54 1
    35   14   15 1
    36   14   16 1
    37   14   17 1
    38   15   55 1
    39   15   56 1
    40   16   57 1
    41   16   58 1
    42   17   18 2
    43   17   19 2
    44   17   20 1
    45   20   21 1
    46   20   59 1
    47   20   60 1
    48   21   22 1
    49   21   61 1
    50   21   62 1
    51   22   23 1
    52   22   63 1
    53   22   64 1
    54   23   28 1
    55   23   24 1
    56   24   25 1
    57   24   65 1
    58   24   66 1
    59   25   26 1
    60   25   67 1
    61   25   68 1
    62   26   27 1
    63   27   28 1
    64   27   69 1
    65   27   70 1
    66   28   71 1
    67   28   72 1
    68   29   30 1
    69   30   35 ar
    70   30   31 ar
    71   31   32 ar
    72   31   73 1
    73   32   33 ar
    74   32   74 1
    75   33   34 ar
    76   33   37 1
    77   34   35 ar
    78   34   75 1
    79   35   36 1
@<TRIPOS>MOLECULE
CHEMBL240619__1
   76    80     0     0     0
SMALL
USER_CHARGES

@<TRIPOS>ATOM
      1 C1          0.4307    1.4909    0.0459 C.3       1 <0>        -0.1376
      2 C2          0.2376   -0.0269    0.0552 C.3       1 <0>         0.0966
      3 C3          1.2756   -0.6673    0.9790 C.3       1 <0>        -0.1979
      4 C4         -1.1470   -0.3541    0.5521 C.2       1 <0>         0.4916
      5 O1         -1.9181   -0.9633   -0.1587 O.2       1 <0>        -0.5086
      6 N1         -1.5284    0.0302    1.7863 N.am      1 <0>        -0.7191
      7 C5         -2.8744   -0.2879    2.2693 C.3       1 <0>         0.1538
      8 C6         -3.8545    0.7855    1.7917 C.3       1 <0>        -0.0871
      9 C7         -3.4251    2.1481    2.3392 C.3       1 <0>        -0.1105
     10 C8         -3.4212    2.1051    3.8685 C.3       1 <0>        -0.0776
     11 C9         -2.4410    1.0317    4.3461 C.3       1 <0>        -0.1155
     12 C10        -2.8705   -0.3309    3.7987 C.3       1 <0>        -0.0838
     13 C11        -4.2762   -0.6632    4.3031 C.3       1 <0>        -0.0936
     14 C12        -5.2564    0.4102    3.8256 C.3       1 <0>        -0.5184
     15 C13        -4.8269    1.7729    4.3730 C.3       1 <0>        -0.0990
     16 C14        -5.2602    0.4532    2.2962 C.3       1 <0>        -0.0971
     17 S1         -6.9230    0.0163    4.4236 S.o2      1 <0>         2.4132
     18 O2         -7.3489   -1.1902    3.8054 O.2       1 <0>        -0.9232
     19 O3         -6.9240    0.1039    5.8419 O.2       1 <0>        -0.9240
     20 C15        -7.9186    1.3816    3.7638 C.3       1 <0>        -0.6305
     21 C16        -9.3781    1.1984    4.1848 C.3       1 <0>        -0.1411
     22 C17       -10.2179    2.3500    3.6283 C.3       1 <0>        -0.0012
     23 N2        -11.6192    2.1740    4.0324 N.4       1 <0>        -0.3879
     24 C18       -12.1613    0.9606    3.4056 C.3       1 <0>        -0.0534
     25 C19       -13.6212    0.7794    3.8284 C.3       1 <0>         0.0361
     26 O4        -14.3676    1.9414    3.4562 O.3       1 <0>        -0.3556
     27 C20       -13.8630    3.1536    4.0234 C.3       1 <0>         0.0353
     28 C21       -12.4035    3.3392    3.6010 C.3       1 <0>        -0.0438
     29 O5          0.4008   -0.5360   -1.2700 O.3       1 <0>        -0.2697
     30 C22         0.2786   -1.8802   -1.4343 C.ar      1 <0>         0.1397
     31 C23        -0.1155   -2.6766   -0.3696 C.ar      1 <0>        -0.1470
     32 C24        -0.2399   -4.0422   -0.5379 C.ar      1 <0>        -0.1146
     33 C25         0.0286   -4.6165   -1.7689 C.ar      1 <0>         0.0799
     34 C26         0.4221   -3.8235   -2.8332 C.ar      1 <0>        -0.1119
     35 C27         0.5424   -2.4559   -2.6693 C.ar      1 <0>        -0.0405
     36 Cl1         1.0296   -1.4604   -4.0055 Cl        1 <0>        -0.0402
     37 F1         -0.0932   -5.9521   -1.9314 F         1 <0>        -0.1319
     38 H1          1.4580    1.7247   -0.2333 H         1 <0>         0.0865
     39 H2         -0.2529    1.9396   -0.6748 H         1 <0>         0.0766
     40 H3          0.2244    1.8895    1.0392 H         1 <0>         0.0820
     41 H4          1.0261   -0.4435    2.0162 H         1 <0>         0.0791
     42 H5          1.2770   -1.7472    0.8306 H         1 <0>         0.0850
     43 H6          2.2631   -0.2676    0.7484 H         1 <0>         0.0886
     44 H7         -0.9117    0.5174    2.3548 H         1 <0>         0.4017
     45 H8         -3.1803   -1.2587    1.8793 H         1 <0>         0.0955
     46 H9         -3.8573    0.8161    0.7022 H         1 <0>         0.0880
     47 H10        -2.4236    2.3848    1.9798 H         1 <0>         0.0709
     48 H11        -4.1233    2.9128    1.9989 H         1 <0>         0.0668
     49 H12        -3.1152    3.0759    4.2585 H         1 <0>         0.0849
     50 H13        -1.4396    1.2684    3.9867 H         1 <0>         0.0688
     51 H14        -2.4383    1.0011    5.4357 H         1 <0>         0.0767
     52 H15        -2.1722   -1.0956    4.1389 H         1 <0>         0.0922
     53 H16        -4.5822   -1.6339    3.9131 H         1 <0>         0.0869
     54 H17        -4.2735   -0.6938    5.3927 H         1 <0>         0.0906
     55 H18        -4.8242    1.7423    5.4625 H         1 <0>         0.0889
     56 H19        -5.5252    2.5376    4.0328 H         1 <0>         0.0739
     57 H20        -5.9585    1.2179    1.9559 H         1 <0>         0.0770
     58 H21        -5.5662   -0.5175    1.9062 H         1 <0>         0.0901
     59 H22        -7.5435    2.3272    4.1554 H         1 <0>         0.1472
     60 H23        -7.8522    1.3870    2.6758 H         1 <0>         0.1469
     61 H24        -9.7533    0.2529    3.7932 H         1 <0>         0.1035
     62 H25        -9.4445    1.1930    5.2727 H         1 <0>         0.1049
     63 H26        -9.8427    3.2955    4.0199 H         1 <0>         0.1390
     64 H27       -10.1514    2.3553    2.5403 H         1 <0>         0.1370
     65 H28       -12.1059    1.0558    2.3212 H         1 <0>         0.1424
     66 H29       -11.5801    0.0956    3.7251 H         1 <0>         0.1445
     67 H30       -14.0383   -0.0960    3.3308 H         1 <0>         0.1440
     68 H31       -13.6732    0.6441    4.9087 H         1 <0>         0.0829
     69 H32       -14.4552    3.9964    3.6669 H         1 <0>         0.1432
     70 H33       -13.9233    3.0995    5.1104 H         1 <0>         0.0823
     71 H34       -12.0023    4.2399    4.0655 H         1 <0>         0.1439
     72 H35       -12.3481    3.4335    2.5165 H         1 <0>         0.1402
     73 H36        -0.3248   -2.2295    0.5910 H         1 <0>         0.1423
     74 H37        -0.5465   -4.6624    0.2915 H         1 <0>         0.1425
     75 H38         0.6313   -4.2727   -3.7928 H         1 <0>         0.1539
     76 H39       -11.6713    2.0863    5.0363 H         1 <0>         0.4249
@<TRIPOS>BOND
     1    1    2 1
     2    1   38 1
     3    1   39 1
     4    1   40 1
     5    2    3 1
     6    2    4 1
     7    2   29 1
     8    3   41 1
     9    3   42 1
    10    3   43 1
    11    4    5 2
    12    4    6 am
    13    6    7 1
    14    6   44 1
    15    7   12 1
    16    7    8 1
    17    7   45 1
    18    8   16 1
    19    8    9 1
    20    8   46 1
    21    9   10 1
    22    9   47 1
    23    9   48 1
    24   10   15 1
    25   10   11 1
    26   10   49 1
    27   11   12 1
    28   11   50 1
    29   11   51 1
    30   12   13 1
    31   12   52 1
    32   13   14 1
    33   13   53 1
    34   13   54 1
    35   14   15 1
    36   14   16 1
    37   14   17 1
    38   15   55 1
    39   15   56 1
    40   16   57 1
    41   16   58 1
    42   17   18 2
    43   17   19 2
    44   17   20 1
    45   20   21 1
    46   20   59 1
    47   20   60 1
    48   21   22 1
    49   21   61 1
    50   21   62 1
    51   22   23 1
    52   22   63 1
    53   22   64 1
    54   23   28 1
    55   23   24 1
    56   23   76 1
    57   24   25 1
    58   24   65 1
    59   24   66 1
    60   25   26 1
    61   25   67 1
    62   25   68 1
    63   26   27 1
    64   27   28 1
    65   27   69 1
    66   27   70 1
    67   28   71 1
    68   28   72 1
    69   29   30 1
    70   30   35 ar
    71   30   31 ar
    72   31   32 ar
    73   31   73 1
    74   32   33 ar
    75   32   74 1
    76   33   34 ar
    77   33   37 1
    78   34   35 ar
    79   34   75 1
    80   35   36 1
@<TRIPOS>MOLECULE
CHEMBL218246
   64    66     0     0     0
SMALL
USER_CHARGES

@<TRIPOS>ATOM
      1 C1          0.1056    1.8017   -0.2273 C.3       1 <0>        -0.1391
      2 C2          0.2067    0.2889   -0.0225 C.3       1 <0>         0.0910
      3 C3          1.0934   -0.0036    1.1896 C.3       1 <0>        -0.1682
      4 C4         -1.1691   -0.2793    0.2128 C.2       1 <0>         0.5294
      5 O1         -1.5714   -0.4446    1.3450 O.2       1 <0>        -0.5347
      6 N1         -1.9525   -0.6036   -0.8348 N.am      1 <0>        -0.7174
      7 C5         -3.2900   -1.1559   -0.6061 C.3       1 <0>         0.1173
      8 C6         -3.1889   -2.6689   -0.4014 C.3       1 <0>        -0.1283
      9 C7         -4.4870   -3.1869    0.2208 C.3       1 <0>        -0.1214
     10 C8         -4.9247   -2.2472    1.3458 C.3       1 <0>        -0.1276
     11 C9         -6.2227   -1.5425    0.9461 C.3       1 <0>         0.0087
     12 C10        -5.9122   -0.4420   -0.0705 C.3       1 <0>        -0.1251
     13 C11        -5.6441   -1.0722   -1.4385 C.3       1 <0>        -0.1220
     14 C12        -4.1768   -0.8634   -1.8182 C.3       1 <0>        -0.1271
     15 C13        -6.8454   -0.9469    2.1395 C.1       1 <0>         0.2049
     16 N2         -7.3259   -0.4871    3.0605 N.1       1 <0>        -0.4319
     17 N3          0.7936   -0.3291   -1.2191 N.3       1 <0>        -0.5238
     18 C14         0.8125   -1.7931   -1.1000 C.3       1 <0>         0.0273
     19 C15         1.2604   -2.4048   -2.4317 C.3       1 <0>         0.1280
     20 N4          2.5421   -1.7956   -2.8181 N.pl3     1 <0>        -0.6009
     21 C16         2.6403   -0.3282   -2.8274 C.3       1 <0>         0.1269
     22 C17         2.1382    0.2018   -1.4801 C.3       1 <0>         0.0344
     23 C18         3.6315   -2.5858   -3.1659 C.ar      1 <0>         0.4324
     24 C19         3.4573   -3.9521   -3.3632 C.ar      1 <0>        -0.2415
     25 C20         4.5498   -4.7264   -3.7088 C.ar      1 <0>         0.0178
     26 C21         5.7849   -4.1062   -3.8462 C.ar      1 <0>        -0.3051
     27 C22         5.8855   -2.7459   -3.6354 C.ar      1 <0>         0.2110
     28 N5          4.8246   -2.0308   -3.3117 N.ar      1 <0>        -0.5397
     29 C23         7.0029   -4.9105   -4.2211 C.3       1 <0>         0.5209
     30 F1          7.1294   -4.9435   -5.6139 F         1 <0>        -0.1776
     31 F2          8.1417   -4.3196   -3.6632 F         1 <0>        -0.1776
     32 F3          6.8683   -6.2151   -3.7340 F         1 <0>        -0.1788
     33 H1          1.1007    2.2126   -0.3975 H         1 <0>         0.0719
     34 H2         -0.5261    2.0101   -1.0908 H         1 <0>         0.0703
     35 H3         -0.3298    2.2602    0.6606 H         1 <0>         0.0696
     36 H4          0.6580    0.4549    2.0774 H         1 <0>         0.0765
     37 H5          1.1654   -1.0814    1.3354 H         1 <0>         0.0593
     38 H6          2.0885    0.4073    1.0193 H         1 <0>         0.0661
     39 H7         -1.6308   -0.4713   -1.7403 H         1 <0>         0.4076
     40 H8         -3.7255   -0.6974    0.2818 H         1 <0>         0.1112
     41 H9         -3.0274   -3.1556   -1.3633 H         1 <0>         0.0678
     42 H10        -2.3537   -2.8907    0.2629 H         1 <0>         0.0653
     43 H11        -5.2646   -3.2273   -0.5420 H         1 <0>         0.0796
     44 H12        -4.3227   -4.1858    0.6250 H         1 <0>         0.0696
     45 H13        -5.0895   -2.8229    2.2566 H         1 <0>         0.0712
     46 H14        -4.1470   -1.5039    1.5215 H         1 <0>         0.0907
     47 H15        -6.9067   -2.2655    0.5016 H         1 <0>         0.1168
     48 H16        -6.7627    0.2359   -0.1432 H         1 <0>         0.0731
     49 H17        -5.0316    0.1132    0.2526 H         1 <0>         0.0824
     50 H18        -5.8597   -2.1398   -1.3952 H         1 <0>         0.0820
     51 H19        -6.2832   -0.6027   -2.1863 H         1 <0>         0.0734
     52 H20        -4.0273    0.1681   -2.1374 H         1 <0>         0.0708
     53 H21        -3.9128   -1.5378   -2.6328 H         1 <0>         0.0729
     54 H22         1.5083   -2.0851   -0.3134 H         1 <0>         0.0472
     55 H23        -0.1870   -2.1510   -0.8532 H         1 <0>         0.0938
     56 H24         1.3867   -3.4813   -2.3161 H         1 <0>         0.0900
     57 H25         0.5124   -2.2013   -3.1980 H         1 <0>         0.0807
     58 H26         3.6790   -0.0316   -2.9733 H         1 <0>         0.1033
     59 H27         2.0250    0.0750   -3.6317 H         1 <0>         0.0744
     60 H28         2.1000    1.2908   -1.5089 H         1 <0>         0.0960
     61 H29         2.8155   -0.1179   -0.6882 H         1 <0>         0.0479
     62 H30         2.4822   -4.4018   -3.2476 H         1 <0>         0.1433
     63 H31         4.4450   -5.7894   -3.8680 H         1 <0>         0.1457
     64 H32         6.8441   -2.2597   -3.7408 H         1 <0>         0.1674
@<TRIPOS>BOND
     1    1    2 1
     2    1   33 1
     3    1   34 1
     4    1   35 1
     5    2    3 1
     6    2    4 1
     7    2   17 1
     8    3   36 1
     9    3   37 1
    10    3   38 1
    11    4    5 2
    12    4    6 am
    13    6    7 1
    14    6   39 1
    15    7   14 1
    16    7    8 1
    17    7   40 1
    18    8    9 1
    19    8   41 1
    20    8   42 1
    21    9   10 1
    22    9   43 1
    23    9   44 1
    24   10   11 1
    25   10   45 1
    26   10   46 1
    27   11   12 1
    28   11   15 1
    29   11   47 1
    30   12   13 1
    31   12   48 1
    32   12   49 1
    33   13   14 1
    34   13   50 1
    35   13   51 1
    36   14   52 1
    37   14   53 1
    38   15   16 3
    39   17   22 1
    40   17   18 1
    41   18   19 1
    42   18   54 1
    43   18   55 1
    44   19   20 1
    45   19   56 1
    46   19   57 1
    47   20   21 1
    48   20   23 1
    49   21   22 1
    50   21   58 1
    51   21   59 1
    52   22   60 1
    53   22   61 1
    54   23   28 ar
    55   23   24 ar
    56   24   25 ar
    57   24   62 1
    58   25   26 ar
    59   25   63 1
    60   26   27 ar
    61   26   29 1
    62   27   28 ar
    63   27   64 1
    64   29   30 1
    65   29   31 1
    66   29   32 1
@<TRIPOS>MOLECULE
CHEMBL239189
   34    36     0     0     0
SMALL
USER_CHARGES

@<TRIPOS>ATOM
      1 C1          0.3798    1.3507    0.0706 C.3       1 <0>        -0.0612
      2 C2          0.2504   -0.1319    0.3080 C.2       1 <0>         0.0828
      3 N1         -0.7266   -0.9142   -0.0476 N.2       1 <0>        -0.5096
      4 C3         -0.7250   -2.2355    0.2252 C.ar      1 <0>         0.0880
      5 C4         -1.6861   -3.2216   -0.0800 C.ar      1 <0>        -0.0900
      6 C5         -1.4847   -4.5310    0.2966 C.ar      1 <0>         0.1754
      7 C6         -0.3356   -4.9177    0.9845 C.ar      1 <0>        -0.1136
      8 C7          0.6212   -3.9715    1.2952 C.ar      1 <0>        -0.0615
      9 C8          0.4271   -2.6633    0.9226 C.ar      1 <0>        -0.1871
     10 S1          1.3403   -1.1510    1.0863 S.3       1 <0>         0.0350
     11 N2         -2.4535   -5.4925   -0.0172 N.2       1 <0>        -0.5769
     12 C9         -2.1001   -6.8062   -0.1289 C.2       1 <0>         0.4777
     13 N3         -0.8806   -7.3281   -0.1482 N.2       1 <0>        -0.7299
     14 C10        -0.6244   -8.6029   -0.2582 C.2       1 <0>         0.5227
     15 O1          0.5101   -9.0394   -0.2712 O.2       1 <0>        -0.5387
     16 C11        -1.8467   -9.5064   -0.3686 C.3       1 <0>        -0.1093
     17 S2         -3.1718   -8.2297   -0.2759 S.3       1 <0>        -0.2523
     18 C12        -1.9311  -10.4789    0.8095 C.3       1 <0>        -0.0601
     19 C13        -3.0984  -11.4438    0.5917 C.3       1 <0>        -0.1439
     20 C14        -0.6264  -11.2716    0.9110 C.3       1 <0>        -0.1471
     21 H1          1.3216    1.7049    0.4898 H         1 <0>         0.0820
     22 H2          0.3611    1.5501   -1.0008 H         1 <0>         0.0874
     23 H3         -0.4497    1.8693    0.5513 H         1 <0>         0.0874
     24 H4         -2.5854   -2.9483   -0.6119 H         1 <0>         0.1268
     25 H5         -0.1949   -5.9490    1.2726 H         1 <0>         0.1531
     26 H6          1.5162   -4.2581    1.8275 H         1 <0>         0.1228
     27 H7         -1.8654  -10.0363   -1.3210 H         1 <0>         0.1182
     28 H8         -2.0892   -9.9197    1.7316 H         1 <0>         0.0752
     29 H9         -4.0279  -10.8791    0.5194 H         1 <0>         0.0583
     30 H10        -2.9403  -12.0030   -0.3305 H         1 <0>         0.0529
     31 H11        -3.1585  -12.1366    1.4310 H         1 <0>         0.0554
     32 H12         0.2052  -10.5842    1.0662 H         1 <0>         0.0788
     33 H13        -0.6865  -11.9644    1.7503 H         1 <0>         0.0491
     34 H14        -0.4683  -11.8308   -0.0112 H         1 <0>         0.0521
@<TRIPOS>BOND
     1    1    2 1
     2    1   21 1
     3    1   22 1
     4    1   23 1
     5    2   10 1
     6    2    3 2
     7    3    4 1
     8    4    9 ar
     9    4    5 ar
    10    5    6 ar
    11    5   24 1
    12    6    7 ar
    13    6   11 1
    14    7    8 ar
    15    7   25 1
    16    8    9 ar
    17    8   26 1
    18    9   10 1
    19   11   12 1
    20   12   17 1
    21   12   13 2
    22   13   14 1
    23   14   15 2
    24   14   16 1
    25   16   17 1
    26   16   18 1
    27   16   27 1
    28   18   19 1
    29   18   20 1
    30   18   28 1
    31   19   29 1
    32   19   30 1
    33   19   31 1
    34   20   32 1
    35   20   33 1
    36   20   34 1
@<TRIPOS>MOLECULE
CHEMBL239189__1
   34    36     0     0     0
SMALL
USER_CHARGES

@<TRIPOS>ATOM
      1 C1          0.3798    1.3507    0.0706 C.3       1 <0>        -0.0612
      2 C2          0.2504   -0.1319    0.3080 C.2       1 <0>         0.0828
      3 N1         -0.7266   -0.9142   -0.0476 N.2       1 <0>        -0.5096
      4 C3         -0.7250   -2.2355    0.2252 C.ar      1 <0>         0.0881
      5 C4         -1.6861   -3.2216   -0.0800 C.ar      1 <0>        -0.0902
      6 C5         -1.4847   -4.5310    0.2966 C.ar      1 <0>         0.1758
      7 C6         -0.3356   -4.9177    0.9845 C.ar      1 <0>        -0.1138
      8 C7          0.6212   -3.9715    1.2952 C.ar      1 <0>        -0.0615
      9 C8          0.4271   -2.6633    0.9226 C.ar      1 <0>        -0.1872
     10 S1          1.3403   -1.1510    1.0863 S.3       1 <0>         0.0348
     11 N2         -2.4535   -5.4925   -0.0172 N.2       1 <0>        -0.5772
     12 C9         -2.1001   -6.8062   -0.1289 C.2       1 <0>         0.4774
     13 N3         -0.8806   -7.3281   -0.1482 N.2       1 <0>        -0.7290
     14 C10        -0.6244   -8.6029   -0.2582 C.2       1 <0>         0.5248
     15 O1          0.5101   -9.0394   -0.2712 O.2       1 <0>        -0.5454
     16 C11        -1.8467   -9.5064   -0.3686 C.3       1 <0>        -0.1126
     17 S2         -3.1718   -8.2297   -0.2759 S.3       1 <0>        -0.2437
     18 C12        -1.8729  -10.2502   -1.7054 C.3       1 <0>        -0.0606
     19 C13        -3.1148  -11.1416   -1.7688 C.3       1 <0>        -0.1446
     20 C14        -1.9129   -9.2376   -2.8517 C.3       1 <0>        -0.1536
     21 H1          1.3216    1.7049    0.4898 H         1 <0>         0.0819
     22 H2          0.3611    1.5501   -1.0008 H         1 <0>         0.0874
     23 H3         -0.4497    1.8693    0.5513 H         1 <0>         0.0874
     24 H4         -2.5854   -2.9483   -0.6119 H         1 <0>         0.1267
     25 H5         -0.1949   -5.9490    1.2726 H         1 <0>         0.1530
     26 H6          1.5162   -4.2581    1.8275 H         1 <0>         0.1226
     27 H7         -1.9068  -10.1993    0.4707 H         1 <0>         0.1189
     28 H8         -0.9784  -10.8664   -1.7960 H         1 <0>         0.0831
     29 H9         -3.0863  -11.8630   -0.9522 H         1 <0>         0.0521
     30 H10        -4.0093  -10.5254   -1.6783 H         1 <0>         0.0614
     31 H11        -3.1335  -11.6715   -2.7212 H         1 <0>         0.0552
     32 H12        -1.0282   -8.6026   -2.8066 H         1 <0>         0.0529
     33 H13        -1.9316   -9.7675   -3.8041 H         1 <0>         0.0523
     34 H14        -2.8074   -8.6214   -2.7612 H         1 <0>         0.0719
@<TRIPOS>BOND
     1    1    2 1
     2    1   21 1
     3    1   22 1
     4    1   23 1
     5    2   10 1
     6    2    3 2
     7    3    4 1
     8    4    9 ar
     9    4    5 ar
    10    5    6 ar
    11    5   24 1
    12    6    7 ar
    13    6   11 1
    14    7    8 ar
    15    7   25 1
    16    8    9 ar
    17    8   26 1
    18    9   10 1
    19   11   12 1
    20   12   17 1
    21   12   13 2
    22   13   14 1
    23   14   15 2
    24   14   16 1
    25   16   17 1
    26   16   18 1
    27   16   27 1
    28   18   19 1
    29   18   20 1
    30   18   28 1
    31   19   29 1
    32   19   30 1
    33   19   31 1
    34   20   32 1
    35   20   33 1
    36   20   34 1
@<TRIPOS>MOLECULE
CHEMBL481957
   60    63     0     0     0
SMALL
USER_CHARGES

@<TRIPOS>ATOM
      1 C1         -0.0388    1.2783   -0.8924 C.3       1 <0>        -0.1598
      2 C2          0.0250   -0.2370   -0.6907 C.3       1 <0>         0.1286
      3 H1          0.5128   -0.7000   -1.5485 H         1 <0>         0.1089
      4 C3         -1.3952   -0.7967   -0.5421 C.3       1 <0>         0.1377
      5 N1         -1.9389   -0.3605    0.7517 N.pl3     1 <0>        -0.6785
      6 C4         -1.1842   -0.6638    1.9757 C.3       1 <0>         0.1338
      7 C5          0.2360   -0.1041    1.8271 C.3       1 <0>         0.1030
      8 N2          0.7833   -0.5405    0.5311 N.pl3     1 <0>        -0.9889
      9 S1          2.2198   -1.3603    0.4496 S.o2      1 <0>         2.6868
     10 O1          2.4100   -1.9733    1.7174 O.2       1 <0>        -0.9541
     11 O2          2.1945   -2.1048   -0.7604 O.2       1 <0>        -0.9517
     12 C6          3.4963   -0.1584    0.2748 C.ar      1 <0>        -0.6240
     13 C7          3.8892    0.2537   -0.9856 C.ar      1 <0>        -0.0822
     14 C8          4.8908    1.1962   -1.1273 C.ar      1 <0>        -0.0873
     15 C9          5.5022    1.7299   -0.0096 C.ar      1 <0>        -0.1477
     16 C10         5.1098    1.3187    1.2576 C.ar      1 <0>         0.2056
     17 C11         4.0995    0.3752    1.3965 C.ar      1 <0>        -0.1038
     18 N3          5.7260    1.8563    2.3900 N.pl3     1 <0>        -0.6274
     19 C12         6.6995    2.9495    2.2646 C.3       1 <0>         0.1189
     20 C13         6.2667    4.1021    3.1761 C.3       1 <0>        -0.1366
     21 C14         6.0890    3.5794    4.6035 C.3       1 <0>        -0.1201
     22 C15         4.9945    2.5099    4.6243 C.3       1 <0>        -0.1370
     23 C16         5.4084    1.3434    3.7297 C.3       1 <0>         0.1153
     24 C17        -3.1523    0.3312    0.8168 C.ar      1 <0>         0.2168
     25 C18        -3.1608    1.7199    0.8421 C.ar      1 <0>        -0.0990
     26 C19        -4.3604    2.4010    0.9060 C.ar      1 <0>        -0.1133
     27 C20        -5.5544    1.7005    0.9449 C.ar      1 <0>         0.0966
     28 C21        -5.5483    0.3163    0.9199 C.ar      1 <0>        -0.1022
     29 C22        -4.3509   -0.3691    0.8506 C.ar      1 <0>        -0.1665
     30 C23        -4.3452   -1.8757    0.8170 C.3       1 <0>         0.5173
     31 F1         -5.6501   -2.3508    0.9860 F         1 <0>        -0.1788
     32 F2         -3.8455   -2.3128   -0.4144 F         1 <0>        -0.1721
     33 F3         -3.5346   -2.3621    1.8483 F         1 <0>        -0.1692
     34 F4         -6.7268    2.3688    1.0079 F         1 <0>        -0.1300
     35 H2          0.9686    1.6681   -1.0383 H         1 <0>         0.0593
     36 H3         -0.6458    1.5029   -1.7695 H         1 <0>         0.0676
     37 H4         -0.4846    1.7434   -0.0132 H         1 <0>         0.0640
     38 H5         -2.0234   -0.4193   -1.3490 H         1 <0>         0.0864
     39 H6         -1.3648   -1.8857   -0.5777 H         1 <0>         0.0672
     40 H7         -1.6730   -0.1986    2.8316 H         1 <0>         0.0854
     41 H8         -1.1387   -1.7433    2.1194 H         1 <0>         0.0688
     42 H9          0.2056    0.9849    1.8626 H         1 <0>         0.0742
     43 H10         0.8642   -0.4815    2.6339 H         1 <0>         0.0994
     44 H11         3.4128   -0.1620   -1.8612 H         1 <0>         0.1348
     45 H12         5.1957    1.5153   -2.1130 H         1 <0>         0.1316
     46 H13         6.2848    2.4659   -0.1210 H         1 <0>         0.1302
     47 H14         3.7892    0.0562    2.3806 H         1 <0>         0.1375
     48 H15         7.6860    2.5966    2.5652 H         1 <0>         0.0646
     49 H16         6.7315    3.2935    1.2308 H         1 <0>         0.0821
     50 H17         7.0299    4.8802    3.1661 H         1 <0>         0.0747
     51 H18         5.3225    4.5134    2.8192 H         1 <0>         0.0662
     52 H19         7.0269    3.1459    4.9508 H         1 <0>         0.0645
     53 H20         5.8049    4.4026    5.2590 H         1 <0>         0.0660
     54 H21         4.8523    2.1547    5.6450 H         1 <0>         0.0763
     55 H22         4.0623    2.9362    4.2537 H         1 <0>         0.0663
     56 H23         4.5888    0.6279    3.6622 H         1 <0>         0.0842
     57 H24         6.2872    0.8565    4.1524 H         1 <0>         0.0659
     58 H25        -2.2299    2.2667    0.8121 H         1 <0>         0.1456
     59 H26        -4.3675    3.4808    0.9260 H         1 <0>         0.1464
     60 H27        -6.4806   -0.2280    0.9503 H         1 <0>         0.1516
@<TRIPOS>BOND
     1    1    2 1
     2    1   35 1
     3    1   36 1
     4    1   37 1
     5    2    3 1
     6    2    8 1
     7    2    4 1
     8    4    5 1
     9    4   38 1
    10    4   39 1
    11    5    6 1
    12    5   24 1
    13    6    7 1
    14    6   40 1
    15    6   41 1
    16    7    8 1
    17    7   42 1
    18    7   43 1
    19    8    9 1
    20    9   10 2
    21    9   11 2
    22    9   12 1
    23   12   17 ar
    24   12   13 ar
    25   13   14 ar
    26   13   44 1
    27   14   15 ar
    28   14   45 1
    29   15   16 ar
    30   15   46 1
    31   16   17 ar
    32   16   18 1
    33   17   47 1
    34   18   23 1
    35   18   19 1
    36   19   20 1
    37   19   48 1
    38   19   49 1
    39   20   21 1
    40   20   50 1
    41   20   51 1
    42   21   22 1
    43   21   52 1
    44   21   53 1
    45   22   23 1
    46   22   54 1
    47   22   55 1
    48   23   56 1
    49   23   57 1
    50   24   29 ar
    51   24   25 ar
    52   25   26 ar
    53   25   58 1
    54   26   27 ar
    55   26   59 1
    56   27   28 ar
    57   27   34 1
    58   28   29 ar
    59   28   60 1
    60   29   30 1
    61   30   31 1
    62   30   32 1
    63   30   33 1
@<TRIPOS>MOLECULE
CHEMBL525924
   51    55     0     0     0
SMALL
USER_CHARGES

@<TRIPOS>ATOM
      1 C1          0.3792    1.5740    0.1875 C.3       1 <0>         0.0617
      2 N1          0.2545    0.1181    0.0824 N.pl3     1 <0>        -0.4660
      3 C2          0.1205   -0.6184   -1.0634 C.2       1 <0>         0.2162
      4 N2          0.0426   -1.8798   -0.7020 N.2       1 <0>        -0.2744
      5 N3          0.1190   -1.9698    0.5780 N.2       1 <0>        -0.2802
      6 C3          0.2541   -0.7816    1.1033 C.2       1 <0>         0.2028
      7 C4          0.3828   -0.4649    2.5710 C.3       1 <0>         0.0351
      8 C5         -0.0766   -1.6086    3.4906 C.3       1 <0>        -0.1061
      9 C6         -0.7062   -0.5295    4.3873 C.3       1 <0>        -0.1378
     10 C7         -0.7938    0.3522    3.1304 C.3       1 <0>        -0.1323
     11 C8          1.7337    0.0970    2.9322 C.ar      1 <0>        -0.0608
     12 C9          2.8627   -0.6930    2.8215 C.ar      1 <0>        -0.0883
     13 C10         4.1019   -0.1783    3.1525 C.ar      1 <0>        -0.1052
     14 C11         4.2123    1.1280    3.5948 C.ar      1 <0>        -0.0313
     15 C12         3.0821    1.9182    3.7054 C.ar      1 <0>        -0.1068
     16 C13         1.8441    1.4041    3.3686 C.ar      1 <0>        -0.1055
     17 Cl1         5.7684    1.7751    4.0114 Cl        1 <0>        -0.0649
     18 C14         0.0718   -0.0943   -2.4461 C.ar      1 <0>        -0.0116
     19 C15        -0.1475    1.2659   -2.6715 C.ar      1 <0>        -0.1213
     20 C16        -0.1925    1.7555   -3.9613 C.ar      1 <0>        -0.1100
     21 C17        -0.0215    0.9041   -5.0357 C.ar      1 <0>        -0.0979
     22 C18         0.1982   -0.4561   -4.8234 C.ar      1 <0>        -0.0381
     23 C19         0.2505   -0.9558   -3.5261 C.ar      1 <0>        -0.0674
     24 C20         0.3815   -1.3686   -5.9793 C.ar      1 <0>        -0.0507
     25 C21         0.5955   -2.7292   -5.7689 C.ar      1 <0>        -0.1071
     26 C22         0.7655   -3.5734   -6.8475 C.ar      1 <0>        -0.1164
     27 C23         0.7241   -3.0708   -8.1355 C.ar      1 <0>        -0.1155
     28 C24         0.5120   -1.7210   -8.3502 C.ar      1 <0>        -0.1185
     29 C25         0.3346   -0.8688   -7.2790 C.ar      1 <0>        -0.1088
     30 H1          1.3505    1.8842   -0.1976 H         1 <0>         0.0883
     31 H2         -0.4109    2.0492   -0.3940 H         1 <0>         0.0961
     32 H3          0.2906    1.8717    1.2323 H         1 <0>         0.0960
     33 H4         -0.8068   -2.2734    3.0291 H         1 <0>         0.0998
     34 H5          0.7455   -2.1449    3.9645 H         1 <0>         0.0798
     35 H6         -1.6784   -0.8108    4.7920 H         1 <0>         0.0788
     36 H7         -0.0268   -0.1416    5.1463 H         1 <0>         0.0871
     37 H8         -0.5507    1.3988    3.3134 H         1 <0>         0.0804
     38 H9         -1.7201    0.2234    2.5705 H         1 <0>         0.0902
     39 H10         2.7763   -1.7128    2.4766 H         1 <0>         0.1343
     40 H11         4.9838   -0.7957    3.0664 H         1 <0>         0.1367
     41 H12         3.1676    2.9379    4.0508 H         1 <0>         0.1372
     42 H13         0.9623    2.0223    3.4503 H         1 <0>         0.1371
     43 H14        -0.2825    1.9360   -1.8354 H         1 <0>         0.1318
     44 H15        -0.3624    2.8084   -4.1312 H         1 <0>         0.1328
     45 H16        -0.0585    1.2931   -6.0425 H         1 <0>         0.1315
     46 H17         0.4249   -2.0081   -3.3571 H         1 <0>         0.1400
     47 H18         0.6287   -3.1226   -4.7636 H         1 <0>         0.1280
     48 H19         0.9314   -4.6282   -6.6856 H         1 <0>         0.1262
     49 H20         0.8583   -3.7348   -8.9767 H         1 <0>         0.1240
     50 H21         0.4810   -1.3337   -9.3579 H         1 <0>         0.1253
     51 H22         0.1642    0.1842   -7.4478 H         1 <0>         0.1256
@<TRIPOS>BOND
     1    1    2 1
     2    1   30 1
     3    1   31 1
     4    1   32 1
     5    2    6 1
     6    2    3 1
     7    3    4 2
     8    3   18 1
     9    4    5 1
    10    5    6 2
    11    6    7 1
    12    7   10 1
    13    7    8 1
    14    7   11 1
    15    8    9 1
    16    8   33 1
    17    8   34 1
    18    9   10 1
    19    9   35 1
    20    9   36 1
    21   10   37 1
    22   10   38 1
    23   11   16 ar
    24   11   12 ar
    25   12   13 ar
    26   12   39 1
    27   13   14 ar
    28   13   40 1
    29   14   15 ar
    30   14   17 1
    31   15   16 ar
    32   15   41 1
    33   16   42 1
    34   18   23 ar
    35   18   19 ar
    36   19   20 ar
    37   19   43 1
    38   20   21 ar
    39   20   44 1
    40   21   22 ar
    41   21   45 1
    42   22   23 ar
    43   22   24 1
    44   23   46 1
    45   24   29 ar
    46   24   25 ar
    47   25   26 ar
    48   25   47 1
    49   26   27 ar
    50   26   48 1
    51   27   28 ar
    52   27   49 1
    53   28   29 ar
    54   28   50 1
    55   29   51 1
@<TRIPOS>MOLECULE
CHEMBL408311
   48    50     0     0     0
SMALL
USER_CHARGES

@<TRIPOS>ATOM
      1 C1          0.0138   -5.1854   -3.1094 C.3       1 <0>        -0.1479
      2 C2          0.0119   -4.1883   -1.9489 C.3       1 <0>        -0.0938
      3 C3          0.7703   -4.7864   -0.7617 C.3       1 <0>        -0.1309
      4 C4          0.7961   -3.7720    0.3859 C.3       1 <0>         0.0943
      5 N1         -0.5832   -3.3690    0.6921 N.am      1 <0>        -0.6055
      6 C5         -1.4301   -2.8644   -0.3973 C.3       1 <0>         0.1102
      7 C6         -1.4311   -3.8890   -1.5361 C.3       1 <0>        -0.1302
      8 C7         -1.0626   -3.4610    1.9484 C.2       1 <0>         0.5605
      9 O1         -2.1817   -3.0603    2.2027 O.2       1 <0>        -0.5245
     10 C8         -0.2274   -4.0492    3.0171 C.ar      1 <0>        -0.1224
     11 C9          1.0782   -3.5967    3.2156 C.ar      1 <0>        -0.0799
     12 C10         1.8520   -4.1494    4.2148 C.ar      1 <0>        -0.1178
     13 C11         1.3368   -5.1505    5.0193 C.ar      1 <0>        -0.0797
     14 C12         0.0438   -5.6035    4.8279 C.ar      1 <0>        -0.0963
     15 C13        -0.7428   -5.0551    3.8357 C.ar      1 <0>        -0.0520
     16 C14        -0.5087   -6.6945    5.7085 C.3       1 <0>        -0.5601
     17 S1         -1.3056   -5.9544    7.1603 S.o2      1 <0>         2.4774
     18 O2         -0.3316   -5.3418    7.9942 O.2       1 <0>        -0.9060
     19 O3         -2.4736   -5.2456    6.7695 O.2       1 <0>        -0.9020
     20 C15        -1.9022   -7.3229    8.0963 C.ar      1 <0>        -0.6626
     21 C16        -3.1735   -7.8172    7.8658 C.ar      1 <0>         0.0558
     22 C17        -3.6415   -8.8918    8.6010 C.ar      1 <0>        -0.1268
     23 C18        -2.8392   -9.4710    9.5660 C.ar      1 <0>        -0.0388
     24 C19        -1.5688   -8.9776    9.7968 C.ar      1 <0>        -0.1272
     25 C20        -1.0975   -7.9069    9.0579 C.ar      1 <0>         0.0565
     26 Cl1         0.5009   -7.2922    9.3425 Cl        1 <0>        -0.0115
     27 Cl2        -4.1817   -7.0890    6.6546 Cl        1 <0>        -0.0089
     28 H1         -0.5253   -4.7591   -3.9555 H         1 <0>         0.0565
     29 H2          1.0414   -5.3987   -3.4035 H         1 <0>         0.0562
     30 H3         -0.4735   -6.1086   -2.7960 H         1 <0>         0.0544
     31 H4          0.4988   -3.2650   -2.2626 H         1 <0>         0.0732
     32 H5          0.2697   -5.6966   -0.4315 H         1 <0>         0.0680
     33 H6          1.7912   -5.0210   -1.0630 H         1 <0>         0.0776
     34 H7          1.2476   -4.2283    1.2668 H         1 <0>         0.0952
     35 H8          1.3746   -2.8976    0.0877 H         1 <0>         0.0734
     36 H9         -2.4476   -2.7220   -0.0331 H         1 <0>         0.0948
     37 H10        -1.0332   -1.9160   -0.7594 H         1 <0>         0.0704
     38 H11        -1.9769   -3.4849   -2.3887 H         1 <0>         0.0779
     39 H12        -1.9109   -4.8077   -1.1986 H         1 <0>         0.0674
     40 H13         1.4816   -2.8159    2.5879 H         1 <0>         0.1363
     41 H14         2.8622   -3.8002    4.3694 H         1 <0>         0.1399
     42 H15         1.9471   -5.5804    5.7998 H         1 <0>         0.1384
     43 H16        -1.7535   -5.4067    3.6900 H         1 <0>         0.1390
     44 H17        -1.2411   -7.2768    5.1494 H         1 <0>         0.1466
     45 H18         0.3029   -7.3461    6.0322 H         1 <0>         0.1479
     46 H19        -4.6339   -9.2778    8.4212 H         1 <0>         0.1519
     47 H20        -3.2051  -10.3093   10.1402 H         1 <0>         0.1531
     48 H21        -0.9425   -9.4304   10.5512 H         1 <0>         0.1519
@<TRIPOS>BOND
     1    1    2 1
     2    1   28 1
     3    1   29 1
     4    1   30 1
     5    2    7 1
     6    2    3 1
     7    2   31 1
     8    3    4 1
     9    3   32 1
    10    3   33 1
    11    4    5 1
    12    4   34 1
    13    4   35 1
    14    5    6 1
    15    5    8 am
    16    6    7 1
    17    6   36 1
    18    6   37 1
    19    7   38 1
    20    7   39 1
    21    8    9 2
    22    8   10 1
    23   10   15 ar
    24   10   11 ar
    25   11   12 ar
    26   11   40 1
    27   12   13 ar
    28   12   41 1
    29   13   14 ar
    30   13   42 1
    31   14   15 ar
    32   14   16 1
    33   15   43 1
    34   16   17 1
    35   16   44 1
    36   16   45 1
    37   17   18 2
    38   17   19 2
    39   17   20 1
    40   20   25 ar
    41   20   21 ar
    42   21   22 ar
    43   21   27 1
    44   22   23 ar
    45   22   46 1
    46   23   24 ar
    47   23   47 1
    48   24   25 ar
    49   24   48 1
    50   25   26 1
@<TRIPOS>MOLECULE
CHEMBL404436
   47    50     0     0     0
SMALL
USER_CHARGES

@<TRIPOS>ATOM
      1 C1         -2.1404   -1.7725    1.9003 C.3       1 <0>        -0.1236
      2 C2         -1.0196   -1.5794    0.9115 C.ar      1 <0>        -0.0664
      3 C3         -0.9749   -2.3427   -0.2404 C.ar      1 <0>        -0.1196
      4 C4          0.0530   -2.1656   -1.1472 C.ar      1 <0>        -0.1127
      5 C5          1.0362   -1.2249   -0.9027 C.ar      1 <0>        -0.1251
      6 C6          0.9910   -0.4613    0.2484 C.ar      1 <0>        -0.1123
      7 C7         -0.0395   -0.6354    1.1535 C.ar      1 <0>        -0.0790
      8 C8         -0.0917    0.2009    2.4061 C.3       1 <0>         0.0403
      9 C9          1.2403    0.8928    2.7407 C.3       1 <0>        -0.1284
     10 C10         0.9556    0.5545    4.2136 C.3       1 <0>        -0.1368
     11 C11         0.0965   -0.6120    3.6978 C.3       1 <0>        -0.1138
     12 C12        -1.2806    1.1262    2.4429 C.2       1 <0>         0.1921
     13 N1         -2.1767    1.1921    3.3866 N.2       1 <0>        -0.2795
     14 N2         -3.0196    2.1233    3.1150 N.2       1 <0>        -0.2966
     15 C13        -2.6801    2.7009    1.9944 C.2       1 <0>         0.1912
     16 N3         -1.6123    2.0523    1.4964 N.pl3     1 <0>        -0.4558
     17 C14        -0.9185    2.1469    0.2085 C.3       1 <0>         0.1078
     18 C15        -1.5663    3.1787   -0.7154 C.3       1 <0>        -0.1420
     19 C16        -1.1480    4.5906   -0.3367 C.3       1 <0>        -0.1245
     20 C17        -1.0383    4.7967    1.1612 C.3       1 <0>        -0.1369
     21 C18        -2.4432    5.1283    1.6753 C.3       1 <0>        -0.1164
     22 C19        -3.3557    3.9118    1.3955 C.3       1 <0>        -0.0474
     23 H1         -2.9295   -1.0475    1.7011 H         1 <0>         0.0642
     24 H2         -2.5409   -2.7815    1.8030 H         1 <0>         0.0651
     25 H3         -1.7612   -1.6281    2.9120 H         1 <0>         0.0821
     26 H4         -1.7430   -3.0775   -0.4314 H         1 <0>         0.1229
     27 H5          0.0883   -2.7623   -2.0467 H         1 <0>         0.1230
     28 H6          1.8398   -1.0870   -1.6110 H         1 <0>         0.1239
     29 H7          1.7593    0.2733    0.4396 H         1 <0>         0.1250
     30 H8          2.1126    0.3799    2.3357 H         1 <0>         0.0978
     31 H9          1.2415    1.9624    2.5307 H         1 <0>         0.0671
     32 H10         1.8387    0.2351    4.7668 H         1 <0>         0.0749
     33 H11         0.3828    1.3215    4.7349 H         1 <0>         0.0842
     34 H12        -0.8257   -0.7573    4.2605 H         1 <0>         0.0901
     35 H13         0.6561   -1.5363    3.5544 H         1 <0>         0.0919
     36 H14         0.1190    2.4307    0.3847 H         1 <0>         0.0886
     37 H15        -0.9401    1.1720   -0.2784 H         1 <0>         0.0930
     38 H16        -1.2627    2.9792   -1.7431 H         1 <0>         0.0899
     39 H17        -2.6505    3.0948   -0.6410 H         1 <0>         0.0829
     40 H18        -0.1806    4.8034   -0.7915 H         1 <0>         0.0639
     41 H19        -1.8815    5.2920   -0.7343 H         1 <0>         0.0725
     42 H20        -0.6746    3.8853    1.6358 H         1 <0>         0.0685
     43 H21        -0.3604    5.6233    1.3737 H         1 <0>         0.0707
     44 H22        -2.4061    5.3250    2.7467 H         1 <0>         0.0701
     45 H23        -2.8292    6.0036    1.1529 H         1 <0>         0.0790
     46 H24        -3.4823    3.7724    0.3219 H         1 <0>         0.0949
     47 H25        -4.3263    4.0657    1.8671 H         1 <0>         0.0992
@<TRIPOS>BOND
     1    1    2 1
     2    1   23 1
     3    1   24 1
     4    1   25 1
     5    2    7 ar
     6    2    3 ar
     7    3    4 ar
     8    3   26 1
     9    4    5 ar
    10    4   27 1
    11    5    6 ar
    12    5   28 1
    13    6    7 ar
    14    6   29 1
    15    7    8 1
    16    8   11 1
    17    8    9 1
    18    8   12 1
    19    9   10 1
    20    9   30 1
    21    9   31 1
    22   10   11 1
    23   10   32 1
    24   10   33 1
    25   11   34 1
    26   11   35 1
    27   12   16 1
    28   12   13 2
    29   13   14 1
    30   14   15 2
    31   15   22 1
    32   15   16 1
    33   16   17 1
    34   17   18 1
    35   17   36 1
    36   17   37 1
    37   18   19 1
    38   18   38 1
    39   18   39 1
    40   19   20 1
    41   19   40 1
    42   19   41 1
    43   20   21 1
    44   20   42 1
    45   20   43 1
    46   21   22 1
    47   21   44 1
    48   21   45 1
    49   22   46 1
    50   22   47 1
@<TRIPOS>MOLECULE
CHEMBL473954
   62    64     0     0     0
SMALL
USER_CHARGES

@<TRIPOS>ATOM
      1 C1         -0.4392    1.4380    0.2866 C.3       1 <0>        -0.1875
      2 C2         -0.2028   -0.0679    0.1553 C.3       1 <0>         0.1579
      3 H1         -1.1327   -0.6027    0.3486 H         1 <0>         0.0848
      4 C3          0.2918   -0.3899   -1.2589 C.3       1 <0>         0.0489
      5 N1          0.6636   -1.8092   -1.3328 N.3       1 <0>        -0.5371
      6 C4          1.7816   -2.1148   -0.4302 C.3       1 <0>         0.0403
      7 C5          1.3480   -1.8635    1.0179 C.3       1 <0>         0.1203
      8 N2          0.8217   -0.4932    1.1210 N.pl3     1 <0>        -0.9956
      9 S1          1.3720    0.5442    2.2886 S.o2      1 <0>         2.6883
     10 O1          2.5889   -0.0031    2.7774 O.2       1 <0>        -0.9591
     11 O2          1.2911    1.8526    1.7402 O.2       1 <0>        -0.9515
     12 C6          0.2218    0.4851    3.6221 C.ar      1 <0>        -0.6809
     13 C7         -0.8563    1.3500    3.6439 C.ar      1 <0>        -0.0228
     14 C8         -1.7587    1.3036    4.6900 C.ar      1 <0>        -0.1360
     15 C9         -1.5832    0.3920    5.7143 C.ar      1 <0>        -0.0120
     16 C10        -0.5056   -0.4736    5.6921 C.ar      1 <0>        -0.1416
     17 C11         0.3944   -0.4301    4.6437 C.ar      1 <0>        -0.0165
     18 C12        -2.5664    0.3421    6.8553 C.3       1 <0>        -0.0388
     19 C13        -3.9614    0.0247    6.3130 C.3       1 <0>        -0.1400
     20 C14        -2.1443   -0.7457    7.8450 C.3       1 <0>        -0.1479
     21 C15        -2.5916    1.6966    7.5663 C.3       1 <0>        -0.1410
     22 C16         0.9797   -2.1994   -2.7133 C.3       1 <0>         0.0553
     23 C17         1.1172   -3.7210   -2.7944 C.3       1 <0>        -0.1100
     24 C18         1.4465   -4.1274   -4.2322 C.3       1 <0>        -0.0828
     25 C19         1.5819   -5.6262   -4.3121 C.ar      1 <0>        -0.0362
     26 C20         2.8075   -6.2402   -4.1039 C.ar      1 <0>        -0.1725
     27 C21         2.8934   -7.6171   -4.1852 C.ar      1 <0>         0.1006
     28 N3          1.8277   -8.3445   -4.4575 N.ar      1 <0>        -0.4899
     29 C22         0.6465   -7.7948   -4.6612 C.ar      1 <0>         0.1006
     30 C23         0.4828   -6.4244   -4.5899 C.ar      1 <0>        -0.1711
     31 H2          0.4567    1.9750   -0.0249 H         1 <0>         0.0961
     32 H3         -1.2769    1.7309   -0.3464 H         1 <0>         0.0730
     33 H4         -0.6660    1.6811    1.3247 H         1 <0>         0.0686
     34 H5         -0.5015   -0.1839   -1.9774 H         1 <0>         0.0892
     35 H6          1.1609    0.2262   -1.4893 H         1 <0>         0.0435
     36 H7          2.0687   -3.1598   -0.5477 H         1 <0>         0.0925
     37 H8          2.6299   -1.4747   -0.6722 H         1 <0>         0.0418
     38 H9          0.5690   -2.5736    1.2954 H         1 <0>         0.0786
     39 H10         2.2049   -1.9778    1.6818 H         1 <0>         0.1000
     40 H11        -0.9934    2.0622    2.8437 H         1 <0>         0.1427
     41 H12        -2.6006    1.9798    4.7074 H         1 <0>         0.1321
     42 H13        -0.3683   -1.1856    6.4925 H         1 <0>         0.1376
     43 H14         1.2343   -1.1088    4.6245 H         1 <0>         0.1382
     44 H15        -3.9434   -0.9403    5.8064 H         1 <0>         0.0582
     45 H16        -4.6725   -0.0114    7.1382 H         1 <0>         0.0638
     46 H17        -4.2621    0.7996    5.6079 H         1 <0>         0.0592
     47 H18        -1.1504   -0.5196    8.2314 H         1 <0>         0.0610
     48 H19        -2.8554   -0.7818    8.6703 H         1 <0>         0.0632
     49 H20        -2.1263   -1.7107    7.3384 H         1 <0>         0.0608
     50 H21        -2.8923    2.4715    6.8613 H         1 <0>         0.0594
     51 H22        -3.3027    1.6605    8.3916 H         1 <0>         0.0640
     52 H23        -1.5978    1.9227    7.9527 H         1 <0>         0.0585
     53 H24         0.1791   -1.8711   -3.3760 H         1 <0>         0.0786
     54 H25         1.9170   -1.7331   -3.0171 H         1 <0>         0.0370
     55 H26         1.9179   -4.0493   -2.1316 H         1 <0>         0.0662
     56 H27         0.1800   -4.1872   -2.4906 H         1 <0>         0.0753
     57 H28         0.6458   -3.7991   -4.8950 H         1 <0>         0.0790
     58 H29         2.3837   -3.6612   -4.5360 H         1 <0>         0.0768
     59 H30         3.6841   -5.6498   -3.8812 H         1 <0>         0.1334
     60 H31         3.8444   -8.1030   -4.0244 H         1 <0>         0.1553
     61 H32        -0.2037   -8.4232   -4.8823 H         1 <0>         0.1555
     62 H33        -0.4882   -5.9804   -4.7528 H         1 <0>         0.1344
@<TRIPOS>BOND
     1    1    2 1
     2    1   31 1
     3    1   32 1
     4    1   33 1
     5    2    3 1
     6    2    8 1
     7    2    4 1
     8    4    5 1
     9    4   34 1
    10    4   35 1
    11    5    6 1
    12    5   22 1
    13    6    7 1
    14    6   36 1
    15    6   37 1
    16    7    8 1
    17    7   38 1
    18    7   39 1
    19    8    9 1
    20    9   10 2
    21    9   11 2
    22    9   12 1
    23   12   17 ar
    24   12   13 ar
    25   13   14 ar
    26   13   40 1
    27   14   15 ar
    28   14   41 1
    29   15   16 ar
    30   15   18 1
    31   16   17 ar
    32   16   42 1
    33   17   43 1
    34   18   19 1
    35   18   20 1
    36   18   21 1
    37   19   44 1
    38   19   45 1
    39   19   46 1
    40   20   47 1
    41   20   48 1
    42   20   49 1
    43   21   50 1
    44   21   51 1
    45   21   52 1
    46   22   23 1
    47   22   53 1
    48   22   54 1
    49   23   24 1
    50   23   55 1
    51   23   56 1
    52   24   25 1
    53   24   57 1
    54   24   58 1
    55   25   30 ar
    56   25   26 ar
    57   26   27 ar
    58   26   59 1
    59   27   28 ar
    60   27   60 1
    61   28   29 ar
    62   29   30 ar
    63   29   61 1
    64   30   62 1
@<TRIPOS>MOLECULE
CHEMBL473954__1
   63    65     0     0     0
SMALL
USER_CHARGES

@<TRIPOS>ATOM
      1 C1         -0.4486    1.4323    0.2878 C.3       1 <0>        -0.1922
      2 C2         -0.2061   -0.0727    0.1568 C.3       1 <0>         0.1349
      3 H1         -1.1335   -0.6113    0.3518 H         1 <0>         0.1038
      4 C3          0.2879   -0.3934   -1.2577 C.3       1 <0>        -0.0173
      5 N1          0.6489   -1.8144   -1.3386 N.4       1 <0>        -0.3830
      6 C4          1.7847   -2.0931   -0.4507 C.3       1 <0>        -0.0241
      7 C5          1.3648   -1.8566    1.0038 C.3       1 <0>         0.0914
      8 N2          0.8221   -0.4935    1.1210 N.pl3     1 <0>        -1.0112
      9 S1          1.3579    0.5392    2.2994 S.o2      1 <0>         2.6897
     10 O1          2.5781   -0.0006    2.7884 O.2       1 <0>        -0.9435
     11 O2          1.2667    1.8514    1.7617 O.2       1 <0>        -0.9380
     12 C6          0.2031    0.4580    3.6278 C.ar      1 <0>        -0.6885
     13 C7         -0.8832    1.3124    3.6524 C.ar      1 <0>        -0.0242
     14 C8         -1.7892    1.2487    4.6946 C.ar      1 <0>        -0.1327
     15 C9         -1.6091    0.3302    5.7118 C.ar      1 <0>         0.0002
     16 C10        -0.5232   -0.5249    5.6867 C.ar      1 <0>        -0.1385
     17 C11         0.3805   -0.4641    4.6423 C.ar      1 <0>        -0.0169
     18 C12        -2.5962    0.2613    6.8484 C.3       1 <0>        -0.0417
     19 C13        -3.9860   -0.0647    6.2979 C.3       1 <0>        -0.1404
     20 C14        -2.1677   -0.8307    7.8306 C.3       1 <0>        -0.1499
     21 C15        -2.6371    1.6095    7.5707 C.3       1 <0>        -0.1433
     22 C16         1.0177   -2.1462   -2.7213 C.3       1 <0>        -0.0111
     23 C17         1.2735   -3.6504   -2.8339 C.3       1 <0>        -0.1449
     24 C18         1.6575   -3.9960   -4.2741 C.3       1 <0>        -0.0752
     25 C19         1.9095   -5.4776   -4.3850 C.ar      1 <0>        -0.0541
     26 C20         3.1751   -6.0006   -4.1676 C.ar      1 <0>        -0.1709
     27 C21         3.3682   -7.3646   -4.2783 C.ar      1 <0>         0.1072
     28 N3          2.3666   -8.1649   -4.5868 N.ar      1 <0>        -0.4798
     29 C22         1.1501   -7.7027   -4.8003 C.ar      1 <0>         0.1070
     30 C23         0.8800   -6.3509   -4.7014 C.ar      1 <0>        -0.1707
     31 H2          0.4468    1.9727   -0.0195 H         1 <0>         0.1077
     32 H3         -1.2845    1.7225   -0.3488 H         1 <0>         0.0876
     33 H4         -0.6808    1.6740    1.3250 H         1 <0>         0.0872
     34 H5         -0.5026   -0.1778   -1.9764 H         1 <0>         0.1462
     35 H6          1.1620    0.2171   -1.4845 H         1 <0>         0.1382
     36 H7          2.0971   -3.1300   -0.5748 H         1 <0>         0.1471
     37 H8          2.6135   -1.4312   -0.7019 H         1 <0>         0.1376
     38 H9          0.5981   -2.5782    1.2856 H         1 <0>         0.0993
     39 H10         2.2307   -1.9639    1.6571 H         1 <0>         0.1418
     40 H11        -1.0240    2.0300    2.8577 H         1 <0>         0.1422
     41 H12        -2.6376    1.9167    4.7142 H         1 <0>         0.1364
     42 H13        -0.3823   -1.2423    6.4816 H         1 <0>         0.1419
     43 H14         1.2268   -1.1346    4.6208 H         1 <0>         0.1393
     44 H15        -3.9568   -1.0251    5.7833 H         1 <0>         0.0571
     45 H16        -4.7000   -0.1145    7.1200 H         1 <0>         0.0679
     46 H17        -4.2913    0.7133    5.5981 H         1 <0>         0.0593
     47 H18        -1.1776   -0.5984    8.2229 H         1 <0>         0.0622
     48 H19        -2.8816   -0.8805    8.6527 H         1 <0>         0.0672
     49 H20        -2.1385   -1.7911    7.3161 H         1 <0>         0.0604
     50 H21        -2.9424    2.3875    6.8709 H         1 <0>         0.0601
     51 H22        -3.3511    1.5597    8.3928 H         1 <0>         0.0682
     52 H23        -1.6470    1.8418    7.9629 H         1 <0>         0.0600
     53 H24         0.2055   -1.8646   -3.3915 H         1 <0>         0.1357
     54 H25         1.9212   -1.6023   -2.9968 H         1 <0>         0.1335
     55 H26         2.0857   -3.9321   -2.1638 H         1 <0>         0.0908
     56 H27         0.3699   -4.1943   -2.5584 H         1 <0>         0.0907
     57 H28         0.8453   -3.7144   -4.9442 H         1 <0>         0.0890
     58 H29         2.5611   -3.4522   -4.5496 H         1 <0>         0.0890
     59 H30         3.9995   -5.3502   -3.9153 H         1 <0>         0.1356
     60 H31         4.3510   -7.7798   -4.1105 H         1 <0>         0.1600
     61 H32         0.3549   -8.3889   -5.0514 H         1 <0>         0.1598
     62 H33        -0.1193   -5.9790   -4.8725 H         1 <0>         0.1353
     63 H34        -0.1406   -2.3771   -1.0594 H         1 <0>         0.4236
@<TRIPOS>BOND
     1    1    2 1
     2    1   31 1
     3    1   32 1
     4    1   33 1
     5    2    3 1
     6    2    8 1
     7    2    4 1
     8    4    5 1
     9    4   34 1
    10    4   35 1
    11    5    6 1
    12    5   22 1
    13    5   63 1
    14    6    7 1
    15    6   36 1
    16    6   37 1
    17    7    8 1
    18    7   38 1
    19    7   39 1
    20    8    9 1
    21    9   10 2
    22    9   11 2
    23    9   12 1
    24   12   17 ar
    25   12   13 ar
    26   13   14 ar
    27   13   40 1
    28   14   15 ar
    29   14   41 1
    30   15   16 ar
    31   15   18 1
    32   16   17 ar
    33   16   42 1
    34   17   43 1
    35   18   19 1
    36   18   20 1
    37   18   21 1
    38   19   44 1
    39   19   45 1
    40   19   46 1
    41   20   47 1
    42   20   48 1
    43   20   49 1
    44   21   50 1
    45   21   51 1
    46   21   52 1
    47   22   23 1
    48   22   53 1
    49   22   54 1
    50   23   24 1
    51   23   55 1
    52   23   56 1
    53   24   25 1
    54   24   57 1
    55   24   58 1
    56   25   30 ar
    57   25   26 ar
    58   26   27 ar
    59   26   59 1
    60   27   28 ar
    61   27   60 1
    62   28   29 ar
    63   29   30 ar
    64   29   61 1
    65   30   62 1
@<TRIPOS>MOLECULE
CHEMBL255846
   51    56     0     0     0
SMALL
USER_CHARGES

@<TRIPOS>ATOM
      1 C1         -0.1301    1.5038    0.0221 C.3       1 <0>        -0.1149
      2 C2         -0.0934   -0.0027    0.0114 C.ar      1 <0>        -0.0978
      3 C3         -0.1013   -0.6845   -1.1974 C.ar      1 <0>        -0.0755
      4 C4         -0.0683   -2.0618   -1.2290 C.ar      1 <0>        -0.1063
      5 C5         -0.0265   -2.7816   -0.0395 C.ar      1 <0>         0.0677
      6 C6         -0.0187   -2.0844    1.1808 C.ar      1 <0>        -0.1265
      7 C7         -0.0469   -0.6897    1.1922 C.ar      1 <0>        -0.0593
      8 C8          0.0271   -3.1133    2.2301 C.2       1 <0>        -0.0377
      9 C9          0.0427   -4.3269    1.5615 C.2       1 <0>        -0.0343
     10 O1          0.0106   -4.1014    0.2314 O.3       1 <0>        -0.1689
     11 C10         0.0878   -5.6433    2.1966 C.2       1 <0>         0.4743
     12 O2          0.2071   -5.7325    3.4051 O.2       1 <0>        -0.4200
     13 C11        -0.0116   -6.8663    1.3712 C.ar      1 <0>        -0.1689
     14 C12        -0.0145   -6.7736   -0.0220 C.ar      1 <0>        -0.0688
     15 C13        -0.1075   -7.9183   -0.7860 C.ar      1 <0>        -0.1326
     16 C14        -0.1982   -9.1564   -0.1747 C.ar      1 <0>        -0.0815
     17 C15        -0.1963   -9.2553    1.2056 C.ar      1 <0>        -0.1337
     18 C16        -0.0971   -8.1191    1.9814 C.ar      1 <0>        -0.0554
     19 C17         0.0517   -2.8983    3.6917 C.ar      1 <0>        -0.0819
     20 C18         1.1759   -3.2695    4.4457 C.ar      1 <0>        -0.0143
     21 C19         1.1500   -3.0461    5.8028 C.ar      1 <0>        -0.1770
     22 C20         0.0176   -2.4591    6.3813 C.ar      1 <0>         0.1960
     23 N1         -1.0285   -2.1242    5.6419 N.ar      1 <0>        -0.4676
     24 C21        -1.0411   -2.3178    4.3395 C.ar      1 <0>         0.1330
     25 C22         0.0427   -2.2213    7.8433 C.ar      1 <0>        -0.1227
     26 C23        -1.1175   -1.9485    8.5566 C.ar      1 <0>        -0.0444
     27 C24        -1.0464   -1.7371    9.9198 C.ar      1 <0>        -0.1516
     28 C25         0.1736   -1.7966   10.5714 C.ar      1 <0>        -0.0722
     29 C26         1.3333   -2.0657    9.8690 C.ar      1 <0>        -0.1468
     30 C27         1.2793   -2.2791    8.5020 C.ar      1 <0>         0.1420
     31 O3          2.4053   -2.5350    7.7913 O.3       1 <0>        -0.3098
     32 C28         2.3140   -3.4245    6.6782 C.3       1 <0>         0.1174
     33 H1          0.8881    1.8922   -0.0011 H         1 <0>         0.0739
     34 H2         -0.6749    1.8602   -0.8521 H         1 <0>         0.0712
     35 H3         -0.6299    1.8487    0.9273 H         1 <0>         0.0693
     36 H4         -0.1341   -0.1297   -2.1234 H         1 <0>         0.1409
     37 H5         -0.0752   -2.5815   -2.1758 H         1 <0>         0.1394
     38 H6         -0.0364   -0.1550    2.1305 H         1 <0>         0.1299
     39 H7          0.0555   -5.8078   -0.5004 H         1 <0>         0.1446
     40 H8         -0.1099   -7.8481   -1.8637 H         1 <0>         0.1317
     41 H9         -0.2712  -10.0495   -0.7775 H         1 <0>         0.1303
     42 H10        -0.2677  -10.2247    1.6764 H         1 <0>         0.1324
     43 H11        -0.0908   -8.1981    3.0585 H         1 <0>         0.1355
     44 H12         2.0372   -3.7185    3.9735 H         1 <0>         0.1386
     45 H13        -1.9089   -2.0277    3.7657 H         1 <0>         0.1617
     46 H14        -2.0693   -1.9017    8.0485 H         1 <0>         0.1372
     47 H15        -1.9455   -1.5243   10.4791 H         1 <0>         0.1310
     48 H16         0.2198   -1.6309   11.6376 H         1 <0>         0.1338
     49 H17         2.2805   -2.1096   10.3859 H         1 <0>         0.1372
     50 H18         2.1768   -4.4433    7.0406 H         1 <0>         0.0803
     51 H19         3.2348   -3.3716    6.0973 H         1 <0>         0.1213
@<TRIPOS>BOND
     1    1    2 1
     2    1   33 1
     3    1   34 1
     4    1   35 1
     5    2    7 ar
     6    2    3 ar
     7    3    4 ar
     8    3   36 1
     9    4    5 ar
    10    4   37 1
    11    5   10 1
    12    5    6 ar
    13    6    7 ar
    14    6    8 1
    15    7   38 1
    16    8    9 2
    17    8   19 1
    18    9   10 1
    19    9   11 1
    20   11   12 2
    21   11   13 1
    22   13   18 ar
    23   13   14 ar
    24   14   15 ar
    25   14   39 1
    26   15   16 ar
    27   15   40 1
    28   16   17 ar
    29   16   41 1
    30   17   18 ar
    31   17   42 1
    32   18   43 1
    33   19   24 ar
    34   19   20 ar
    35   20   21 ar
    36   20   44 1
    37   21   32 1
    38   21   22 ar
    39   22   23 ar
    40   22   25 1
    41   23   24 ar
    42   24   45 1
    43   25   30 ar
    44   25   26 ar
    45   26   27 ar
    46   26   46 1
    47   27   28 ar
    48   27   47 1
    49   28   29 ar
    50   28   48 1
    51   29   30 ar
    52   29   49 1
    53   30   31 1
    54   31   32 1
    55   32   50 1
    56   32   51 1
@<TRIPOS>MOLECULE
CHEMBL260370
   46    48     0     0     0
SMALL
USER_CHARGES

@<TRIPOS>ATOM
      1 C1          0.0137   -5.1854   -3.1094 C.3       1 <0>        -0.1481
      2 C2          0.0119   -4.1884   -1.9489 C.3       1 <0>        -0.0938
      3 C3          0.7702   -4.7865   -0.7617 C.3       1 <0>        -0.1308
      4 C4          0.7961   -3.7720    0.3859 C.3       1 <0>         0.0949
      5 N1         -0.5832   -3.3691    0.6921 N.am      1 <0>        -0.6050
      6 C5         -1.4301   -2.8645   -0.3973 C.3       1 <0>         0.1100
      7 C6         -1.4311   -3.8891   -1.5361 C.3       1 <0>        -0.1301
      8 C7         -1.0626   -3.4610    1.9484 C.2       1 <0>         0.5604
      9 O1         -2.1817   -3.0603    2.2027 O.2       1 <0>        -0.5301
     10 C8         -0.2274   -4.0492    3.0171 C.ar      1 <0>        -0.1154
     11 C9          1.0780   -3.5968    3.2156 C.ar      1 <0>        -0.0909
     12 C10         1.8519   -4.1495    4.2149 C.ar      1 <0>        -0.1020
     13 C11         1.3368   -5.1505    5.0193 C.ar      1 <0>        -0.0596
     14 C12         0.0438   -5.6039    4.8276 C.ar      1 <0>        -0.0998
     15 C13        -0.7428   -5.0553    3.8358 C.ar      1 <0>        -0.0683
     16 C14         2.1882   -5.7500    6.1087 C.3       1 <0>        -0.0738
     17 S1          1.9545   -4.8123    7.6439 S.3       1 <0>        -0.0890
     18 C15         3.0019   -5.6258    8.8040 C.ar      1 <0>        -0.0844
     19 C16         3.7579   -6.7229    8.4094 C.ar      1 <0>        -0.1235
     20 C17         4.5778   -7.3584    9.3209 C.ar      1 <0>        -0.0889
     21 C18         4.6469   -6.9037   10.6262 C.ar      1 <0>        -0.0413
     22 C19         3.8952   -5.8112   11.0221 C.ar      1 <0>        -0.0892
     23 C20         3.0778   -5.1681   10.1138 C.ar      1 <0>        -0.0876
     24 Cl1         5.6784   -7.7056   11.7693 Cl        1 <0>        -0.0650
     25 H1         -0.5254   -4.7592   -3.9555 H         1 <0>         0.0566
     26 H2          1.0414   -5.3988   -3.4035 H         1 <0>         0.0563
     27 H3         -0.4736   -6.1087   -2.7960 H         1 <0>         0.0546
     28 H4          0.4988   -3.2651   -2.2626 H         1 <0>         0.0730
     29 H5          0.2696   -5.6967   -0.4315 H         1 <0>         0.0681
     30 H6          1.7911   -5.0210   -1.0631 H         1 <0>         0.0775
     31 H7          1.2476   -4.2283    1.2668 H         1 <0>         0.0955
     32 H8          1.3746   -2.8976    0.0877 H         1 <0>         0.0727
     33 H9         -2.4476   -2.7220   -0.0331 H         1 <0>         0.0943
     34 H10        -1.0332   -1.9161   -0.7594 H         1 <0>         0.0701
     35 H11        -1.9770   -3.4849   -2.3887 H         1 <0>         0.0779
     36 H12        -1.9110   -4.8077   -1.1986 H         1 <0>         0.0674
     37 H13         1.4815   -2.8159    2.5879 H         1 <0>         0.1334
     38 H14         2.8621   -3.8003    4.3695 H         1 <0>         0.1338
     39 H15        -0.3522   -6.3858    5.4587 H         1 <0>         0.1341
     40 H16        -1.7537   -5.4066    3.6904 H         1 <0>         0.1340
     41 H17         1.8957   -6.7878    6.2688 H         1 <0>         0.1017
     42 H18         3.2368   -5.7094    5.8142 H         1 <0>         0.1018
     43 H19         3.7041   -7.0784    7.3910 H         1 <0>         0.1321
     44 H20         5.1654   -8.2113    9.0149 H         1 <0>         0.1376
     45 H21         3.9509   -5.4589   12.0415 H         1 <0>         0.1403
     46 H22         2.4950   -4.3127   10.4221 H         1 <0>         0.1385
@<TRIPOS>BOND
     1    1    2 1
     2    1   25 1
     3    1   26 1
     4    1   27 1
     5    2    7 1
     6    2    3 1
     7    2   28 1
     8    3    4 1
     9    3   29 1
    10    3   30 1
    11    4    5 1
    12    4   31 1
    13    4   32 1
    14    5    6 1
    15    5    8 am
    16    6    7 1
    17    6   33 1
    18    6   34 1
    19    7   35 1
    20    7   36 1
    21    8    9 2
    22    8   10 1
    23   10   15 ar
    24   10   11 ar
    25   11   12 ar
    26   11   37 1
    27   12   13 ar
    28   12   38 1
    29   13   14 ar
    30   13   16 1
    31   14   15 ar
    32   14   39 1
    33   15   40 1
    34   16   17 1
    35   16   41 1
    36   16   42 1
    37   17   18 1
    38   18   23 ar
    39   18   19 ar
    40   19   20 ar
    41   19   43 1
    42   20   21 ar
    43   20   44 1
    44   21   22 ar
    45   21   24 1
    46   22   23 ar
    47   22   45 1
    48   23   46 1
@<TRIPOS>MOLECULE
CHEMBL558534
   51    53     0     0     0
SMALL
USER_CHARGES

@<TRIPOS>ATOM
      1 C1          0.1225    1.3378   -1.8129 C.3       1 <0>        -0.1445
      2 C2          0.0350   -0.1885   -1.7507 C.3       1 <0>         0.0757
      3 H1         -0.2396   -0.5776   -2.7312 H         1 <0>         0.0636
      4 C3         -1.0246   -0.5991   -0.7218 C.3       1 <0>         0.0822
      5 N1         -0.9585   -2.0584   -0.5446 N.am      1 <0>        -0.6111
      6 C4          0.3555   -2.6636   -0.2752 C.3       1 <0>         0.0670
      7 C5          1.3478   -2.1524   -1.3259 C.3       1 <0>         0.0744
      8 H2          1.0786   -2.5494   -2.3046 H         1 <0>         0.0637
      9 O1          1.3023   -0.7240   -1.3621 O.3       1 <0>        -0.3724
     10 C6          2.7610   -2.6105   -0.9597 C.3       1 <0>        -0.1450
     11 C7         -2.0685   -2.8183   -0.6271 C.2       1 <0>         0.5618
     12 O2         -3.1540   -2.2937   -0.7817 O.2       1 <0>        -0.5260
     13 C8         -1.9658   -4.2900   -0.5296 C.ar      1 <0>        -0.1183
     14 C9         -1.2297   -4.8744    0.5022 C.ar      1 <0>        -0.0945
     15 C10        -1.1382   -6.2483    0.5878 C.ar      1 <0>        -0.1042
     16 C11        -1.7739   -7.0465   -0.3466 C.ar      1 <0>        -0.0818
     17 C12        -2.5049   -6.4735   -1.3722 C.ar      1 <0>        -0.0993
     18 C13        -2.6094   -5.1011   -1.4656 C.ar      1 <0>        -0.0684
     19 C14        -1.6693   -8.5465   -0.2472 C.3       1 <0>         0.1539
     20 N2         -2.7666   -9.0590    0.5772 N.pl3     1 <0>        -1.1121
     21 S1         -3.1293  -10.6747    0.5614 S.o2      1 <0>         2.6955
     22 O3         -4.2063  -10.8581    1.4700 O.2       1 <0>        -0.9487
     23 O4         -3.2108  -11.0593   -0.8042 O.2       1 <0>        -0.9473
     24 C15        -1.7452  -11.5261    1.2426 C.ar      1 <0>        -0.6681
     25 C16        -0.7209  -11.9518    0.4171 C.ar      1 <0>        -0.0192
     26 C17         0.3652  -12.6197    0.9508 C.ar      1 <0>        -0.1244
     27 C18         0.4277  -12.8629    2.3101 C.ar      1 <0>        -0.0534
     28 C19        -0.5967  -12.4372    3.1365 C.ar      1 <0>        -0.0571
     29 C20        -1.6809  -11.7632    2.6025 C.ar      1 <0>        -0.0100
     30 Cl1        -0.5189  -12.7421    4.8437 Cl        1 <0>        -0.0535
     31 H3          0.8773    1.6290   -2.5433 H         1 <0>         0.0699
     32 H4         -0.8445    1.7455   -2.1074 H         1 <0>         0.0761
     33 H5          0.3970    1.7262   -0.8321 H         1 <0>         0.0675
     34 H6         -0.8244   -0.1045    0.2287 H         1 <0>         0.0795
     35 H7         -2.0142   -0.3174   -1.0815 H         1 <0>         0.1035
     36 H8          0.6946   -2.3768    0.7202 H         1 <0>         0.0818
     37 H9          0.2798   -3.7491   -0.3393 H         1 <0>         0.1049
     38 H10         2.7935   -3.6996   -0.9294 H         1 <0>         0.0751
     39 H11         3.4660   -2.2466   -1.7072 H         1 <0>         0.0702
     40 H12         3.0303   -2.2116    0.0183 H         1 <0>         0.0676
     41 H13        -0.7324   -4.2524    1.2318 H         1 <0>         0.1327
     42 H14        -0.5689   -6.7017    1.3857 H         1 <0>         0.1342
     43 H15        -2.9984   -7.1022   -2.0985 H         1 <0>         0.1369
     44 H16        -3.1843   -4.6552   -2.2638 H         1 <0>         0.1344
     45 H17        -1.7301   -8.9819   -1.2446 H         1 <0>         0.0948
     46 H18        -0.7163   -8.8148    0.2089 H         1 <0>         0.0791
     47 H19        -3.2806   -8.4520    1.1322 H         1 <0>         0.4236
     48 H20        -0.7697  -11.7627   -0.6451 H         1 <0>         0.1487
     49 H21         1.1649  -12.9521    0.3055 H         1 <0>         0.1456
     50 H22         1.2760  -13.3854    2.7269 H         1 <0>         0.1440
     51 H23        -2.4789  -11.4267    3.2477 H         1 <0>         0.1516
@<TRIPOS>BOND
     1    1    2 1
     2    1   31 1
     3    1   32 1
     4    1   33 1
     5    2    3 1
     6    2    9 1
     7    2    4 1
     8    4    5 1
     9    4   34 1
    10    4   35 1
    11    5    6 1
    12    5   11 am
    13    6    7 1
    14    6   36 1
    15    6   37 1
    16    7    8 1
    17    7    9 1
    18    7   10 1
    19   10   38 1
    20   10   39 1
    21   10   40 1
    22   11   12 2
    23   11   13 1
    24   13   18 ar
    25   13   14 ar
    26   14   15 ar
    27   14   41 1
    28   15   16 ar
    29   15   42 1
    30   16   17 ar
    31   16   19 1
    32   17   18 ar
    33   17   43 1
    34   18   44 1
    35   19   20 1
    36   19   45 1
    37   19   46 1
    38   20   21 1
    39   20   47 1
    40   21   22 2
    41   21   23 2
    42   21   24 1
    43   24   29 ar
    44   24   25 ar
    45   25   26 ar
    46   25   48 1
    47   26   27 ar
    48   26   49 1
    49   27   28 ar
    50   27   50 1
    51   28   29 ar
    52   28   30 1
    53   29   51 1
@<TRIPOS>MOLECULE
CHEMBL449149
   40    42     0     0     0
SMALL
USER_CHARGES

@<TRIPOS>ATOM
      1 C1          0.1021    1.5376   -0.1221 C.ar      1 <0>        -0.1723
      2 C2          0.5352    1.1643    1.1435 C.ar      1 <0>        -0.0202
      3 C3          1.6053    0.2940    1.2449 C.ar      1 <0>        -0.2343
      4 C4          2.2081   -0.1755    0.0821 C.ar      1 <0>         0.4272
      5 N1          1.7657    0.2041   -1.1067 N.ar      1 <0>        -0.4879
      6 C5          0.7468    1.0333   -1.2334 C.ar      1 <0>         0.1446
      7 N2          3.2847   -1.0503    0.1692 N.pl3     1 <0>        -0.6710
      8 C6          3.0865   -2.5094    0.1915 C.3       1 <0>         0.1381
      9 C7          3.7868   -3.1052   -1.0313 C.3       1 <0>         0.0707
     10 N3          5.1285   -2.5573   -1.1762 N.am      1 <0>        -0.9240
     11 C8          5.5346   -1.4002   -0.6516 C.2       1 <0>         0.5238
     12 O1          6.6539   -1.0100   -0.9080 O.2       1 <0>        -0.4763
     13 C9          4.6682   -0.5567    0.2368 C.3       1 <0>         0.1365
     14 S1          6.2270   -3.4326   -2.0534 S.o2      1 <0>         2.6660
     15 O2          7.5150   -3.0350   -1.6038 O.2       1 <0>        -0.9067
     16 O3          5.7911   -4.7846   -2.0167 O.2       1 <0>        -0.9332
     17 C10         6.0937   -2.9058   -3.7295 C.ar      1 <0>        -0.6662
     18 C11         5.2085   -3.5369   -4.5838 C.ar      1 <0>        -0.0033
     19 C12         5.1033   -3.1250   -5.8988 C.ar      1 <0>        -0.1190
     20 C13         5.8837   -2.0803   -6.3610 C.ar      1 <0>         0.0235
     21 C14         6.7698   -1.4481   -5.5054 C.ar      1 <0>        -0.0553
     22 C15         6.8700   -1.8584   -4.1880 C.ar      1 <0>         0.0112
     23 Cl1         7.7503   -0.1375   -6.0840 Cl        1 <0>        -0.0301
     24 Cl2         5.7525   -1.5629   -8.0128 Cl        1 <0>        -0.0275
     25 C16         2.1117   -0.1396    2.5964 C.3       1 <0>         0.5215
     26 F1          1.3114    0.4226    3.5967 F         1 <0>        -0.1763
     27 F2          2.0609   -1.5347    2.6878 F         1 <0>        -0.1709
     28 F3          3.4329    0.2906    2.7594 F         1 <0>        -0.1719
     29 H1         -0.7336    2.2122   -0.2357 H         1 <0>         0.1522
     30 H2          0.0477    1.5454    2.0287 H         1 <0>         0.1540
     31 H3          0.4130    1.3207   -2.2195 H         1 <0>         0.1694
     32 H4          3.5185   -2.9254    1.1017 H         1 <0>         0.0865
     33 H5          2.0212   -2.7365    0.1523 H         1 <0>         0.1028
     34 H6          3.8516   -4.1871   -0.9159 H         1 <0>         0.1177
     35 H7          3.2066   -2.8746   -1.9247 H         1 <0>         0.0915
     36 H8          4.7027    0.4800   -0.0982 H         1 <0>         0.1177
     37 H9          5.0297   -0.6228    1.2630 H         1 <0>         0.1106
     38 H10         4.5991   -4.3524   -4.2233 H         1 <0>         0.1581
     39 H11         4.4121   -3.6188   -6.5657 H         1 <0>         0.1569
     40 H12         7.5582   -1.3630   -3.5190 H         1 <0>         0.1656
@<TRIPOS>BOND
     1    1    6 ar
     2    1    2 ar
     3    1   29 1
     4    2    3 ar
     5    2   30 1
     6    3    4 ar
     7    3   25 1
     8    4    5 ar
     9    4    7 1
    10    5    6 ar
    11    6   31 1
    12    7   13 1
    13    7    8 1
    14    8    9 1
    15    8   32 1
    16    8   33 1
    17    9   10 1
    18    9   34 1
    19    9   35 1
    20   10   11 am
    21   10   14 1
    22   11   12 2
    23   11   13 1
    24   13   36 1
    25   13   37 1
    26   14   15 2
    27   14   16 2
    28   14   17 1
    29   17   22 ar
    30   17   18 ar
    31   18   19 ar
    32   18   38 1
    33   19   20 ar
    34   19   39 1
    35   20   21 ar
    36   20   24 1
    37   21   22 ar
    38   21   23 1
    39   22   40 1
    40   25   26 1
    41   25   27 1
    42   25   28 1
@<TRIPOS>MOLECULE
CHEMBL563106
   49    52     0     0     0
SMALL
USER_CHARGES

@<TRIPOS>ATOM
      1 C1         -0.4280    1.7828   -0.2458 C.3       1 <0>        -0.1894
      2 C2         -0.3008    0.2585   -0.2097 C.3       1 <0>         0.1391
      3 H1         -1.2869   -0.1879   -0.0813 H         1 <0>         0.0796
      4 C3          0.3219   -0.2373   -1.5207 C.3       1 <0>         0.1379
      5 N1          0.6741   -1.6557   -1.3664 N.pl3     1 <0>        -0.6829
      6 C4          1.5473   -2.0516   -0.2526 C.3       1 <0>         0.1335
      7 C5          0.9246   -1.5558    1.0584 C.3       1 <0>         0.1009
      8 N2          0.5691   -0.1376    0.9067 N.pl3     1 <0>        -0.9922
      9 S1          1.1430    0.9943    1.9705 S.o2      1 <0>         2.6921
     10 O1          2.2554    0.4049    2.6296 O.2       1 <0>        -0.9641
     11 O2          1.2435    2.2149    1.2499 O.2       1 <0>        -0.9563
     12 C6         -0.0996    1.2342    3.1965 C.ar      1 <0>        -0.6963
     13 C7         -1.0761    2.1959    3.0087 C.ar      1 <0>        -0.0272
     14 C8         -2.0521    2.3882    3.9649 C.ar      1 <0>        -0.1265
     15 C9         -2.0527    1.6106    5.1227 C.ar      1 <0>         0.1111
     16 C10        -1.0656    0.6426    5.3064 C.ar      1 <0>        -0.1268
     17 C11        -0.0980    0.4562    4.3404 C.ar      1 <0>        -0.0209
     18 C12        -3.0967    1.8122    6.1528 C.2       1 <0>         0.0588
     19 N3         -4.0999    2.6904    6.1112 N.2       1 <0>        -0.3576
     20 N4         -4.7829    2.5499    7.1956 N.2       1 <0>        -0.1846
     21 N5         -4.2527    1.6232    7.9143 N.2       1 <0>        -0.1845
     22 N6         -3.2226    1.1473    7.3024 N.2       1 <0>        -0.3577
     23 C13         0.1875   -2.6114   -2.2635 C.ar      1 <0>         0.2185
     24 C14        -1.0142   -3.2588   -2.0061 C.ar      1 <0>        -0.0962
     25 C15        -1.4931   -4.2020   -2.8938 C.ar      1 <0>        -0.1129
     26 C16        -0.7763   -4.5027   -4.0399 C.ar      1 <0>         0.0940
     27 C17         0.4216   -3.8587   -4.2985 C.ar      1 <0>        -0.1040
     28 C18         0.9019   -2.9107   -3.4160 C.ar      1 <0>        -0.1677
     29 C19         2.2028   -2.2055   -3.7011 C.3       1 <0>         0.5178
     30 F1          2.7408   -2.6861   -4.8998 F         1 <0>        -0.1806
     31 F2          1.9732   -0.8299   -3.8116 F         1 <0>        -0.1703
     32 F3          3.1022   -2.4457   -2.6568 F         1 <0>        -0.1701
     33 F4         -1.2465   -5.4261   -4.9067 F         1 <0>        -0.1319
     34 H2          0.5235    2.2197   -0.5492 H         1 <0>         0.0993
     35 H3         -1.2017    2.0660   -0.9594 H         1 <0>         0.0701
     36 H4         -0.6962    2.1486    0.7453 H         1 <0>         0.0736
     37 H5         -0.3968   -0.1250   -2.3325 H         1 <0>         0.0829
     38 H6          1.2195    0.3407   -1.7409 H         1 <0>         0.0678
     39 H7          1.6379   -3.1375   -0.2268 H         1 <0>         0.0842
     40 H8          2.5321   -1.6028   -0.3825 H         1 <0>         0.0664
     41 H9          0.0270   -2.1337    1.2786 H         1 <0>         0.0737
     42 H10         1.6433   -1.6681    1.8702 H         1 <0>         0.1037
     43 H11        -1.0743    2.7977    2.1118 H         1 <0>         0.1399
     44 H12        -2.8137    3.1395    3.8173 H         1 <0>         0.1384
     45 H13        -1.0607    0.0377    6.2010 H         1 <0>         0.1383
     46 H14         0.6644   -0.2961    4.4794 H         1 <0>         0.1346
     47 H15        -1.5733   -3.0249   -1.1122 H         1 <0>         0.1476
     48 H16        -2.4273   -4.7059   -2.6938 H         1 <0>         0.1466
     49 H17         0.9790   -4.0947   -5.1930 H         1 <0>         0.1503
@<TRIPOS>BOND
     1    1    2 1
     2    1   34 1
     3    1   35 1
     4    1   36 1
     5    2    3 1
     6    2    8 1
     7    2    4 1
     8    4    5 1
     9    4   37 1
    10    4   38 1
    11    5    6 1
    12    5   23 1
    13    6    7 1
    14    6   39 1
    15    6   40 1
    16    7    8 1
    17    7   41 1
    18    7   42 1
    19    8    9 1
    20    9   10 2
    21    9   11 2
    22    9   12 1
    23   12   17 ar
    24   12   13 ar
    25   13   14 ar
    26   13   43 1
    27   14   15 ar
    28   14   44 1
    29   15   16 ar
    30   15   18 1
    31   16   17 ar
    32   16   45 1
    33   17   46 1
    34   18   22 2
    35   18   19 1
    36   19   20 1
    37   20   21 2
    38   21   22 1
    39   23   28 ar
    40   23   24 ar
    41   24   25 ar
    42   24   47 1
    43   25   26 ar
    44   25   48 1
    45   26   27 ar
    46   26   33 1
    47   27   28 ar
    48   27   49 1
    49   28   29 1
    50   29   30 1
    51   29   31 1
    52   29   32 1
@<TRIPOS>MOLECULE
CHEMBL549961
   57    60     0     0     0
SMALL
USER_CHARGES

@<TRIPOS>ATOM
      1 C1         -0.6741    1.3307    0.4578 C.3       1 <0>        -0.2014
      2 C2         -0.2934   -0.1338    0.2310 C.3       1 <0>         0.1420
      3 H1         -1.1444   -0.7734    0.4651 H         1 <0>         0.0871
      4 C3          0.1169   -0.3382   -1.2326 C.3       1 <0>         0.1346
      5 N1          0.7217   -1.6707   -1.3689 N.pl3     1 <0>        -0.6795
      6 C4          1.8597   -2.0235   -0.5085 C.3       1 <0>         0.1233
      7 C5          1.4493   -1.8190    0.9551 C.3       1 <0>         0.1011
      8 N2          0.8419   -0.4877    1.0945 N.pl3     1 <0>        -0.9873
      9 S1          1.4298    0.5960    2.2001 S.o2      1 <0>         2.6947
     10 O1          0.3135    1.3329    2.6797 O.2       1 <0>        -0.9549
     11 O2          2.2902   -0.1327    3.0651 O.2       1 <0>        -0.9487
     12 C6          2.4465    1.7363    1.3222 C.ar      1 <0>        -0.7353
     13 C7          2.0533    3.0561    1.1964 C.ar      1 <0>         0.0377
     14 C8          2.8476    3.9525    0.5090 C.ar      1 <0>        -0.2111
     15 C9          4.0435    3.5278   -0.0565 C.ar      1 <0>         0.3002
     16 C10         4.4366    2.2020    0.0714 C.ar      1 <0>        -0.2067
     17 C11         3.6394    1.3105    0.7648 C.ar      1 <0>         0.1075
     18 Cl1         4.1324   -0.3457    0.9315 Cl        1 <0>        -0.0417
     19 N3          4.8485    4.4323   -0.7527 N.pl3     1 <0>        -0.6227
     20 C12         4.5559    5.8585   -0.9572 C.3       1 <0>         0.1063
     21 C13         5.7074    6.4462   -1.7999 C.3       1 <0>        -0.1326
     22 C14         6.2981    5.1949   -2.5018 C.3       1 <0>        -0.1337
     23 C15         6.1355    4.1164   -1.3987 C.3       1 <0>         0.1029
     24 C16         0.2235   -2.5863   -2.3010 C.ar      1 <0>         0.2153
     25 C17        -0.7998   -3.4550   -1.9441 C.ar      1 <0>        -0.0965
     26 C18        -1.2905   -4.3582   -2.8664 C.ar      1 <0>        -0.1128
     27 C19        -0.7632   -4.3980   -4.1463 C.ar      1 <0>         0.0969
     28 C20         0.2568   -3.5331   -4.5042 C.ar      1 <0>        -0.1035
     29 C21         0.7472   -2.6244   -3.5864 C.ar      1 <0>        -0.1671
     30 C22         1.8532   -1.6789   -3.9785 C.3       1 <0>         0.5174
     31 F1          2.1379   -1.8330   -5.3395 F         1 <0>        -0.1793
     32 F2          1.4499   -0.3620   -3.7327 F         1 <0>        -0.1705
     33 F3          2.9985   -1.9638   -3.2273 F         1 <0>        -0.1717
     34 F4         -1.2445   -5.2827   -5.0468 F         1 <0>        -0.1299
     35 H2          0.2249    1.9468    0.4397 H         1 <0>         0.0592
     36 H3         -1.3533    1.6558   -0.3303 H         1 <0>         0.0798
     37 H4         -1.1651    1.4328    1.4256 H         1 <0>         0.1100
     38 H5         -0.7629   -0.2686   -1.8723 H         1 <0>         0.0833
     39 H6          0.8419    0.4236   -1.5191 H         1 <0>         0.0649
     40 H7          2.1308   -3.0668   -0.6701 H         1 <0>         0.0834
     41 H8          2.7087   -1.3816   -0.7435 H         1 <0>         0.0689
     42 H9          0.7243   -2.5809    1.2416 H         1 <0>         0.0790
     43 H10         2.3291   -1.8887    1.5948 H         1 <0>         0.1027
     44 H11         1.1237    3.3861    1.6360 H         1 <0>         0.1521
     45 H12         2.5392    4.9829    0.4108 H         1 <0>         0.1352
     46 H13         5.3654    1.8687   -0.3674 H         1 <0>         0.1385
     47 H14         3.6118    5.9705   -1.4902 H         1 <0>         0.0689
     48 H15         4.5034    6.3678    0.0051 H         1 <0>         0.0690
     49 H16         5.3250    7.1556   -2.5339 H         1 <0>         0.0862
     50 H17         6.4529    6.9170   -1.1591 H         1 <0>         0.0794
     51 H18         5.7233    4.9382   -3.3917 H         1 <0>         0.0787
     52 H19         7.3495    5.3446   -2.7475 H         1 <0>         0.0880
     53 H20         6.9491    4.1835   -0.6764 H         1 <0>         0.0708
     54 H21         6.1028    3.1217   -1.8432 H         1 <0>         0.0766
     55 H22        -1.2111   -3.4245   -0.9459 H         1 <0>         0.1469
     56 H23        -2.0859   -5.0341   -2.5892 H         1 <0>         0.1473
     57 H24         0.6666   -3.5659   -5.5029 H         1 <0>         0.1511
@<TRIPOS>BOND
     1    1    2 1
     2    1   35 1
     3    1   36 1
     4    1   37 1
     5    2    3 1
     6    2    8 1
     7    2    4 1
     8    4    5 1
     9    4   38 1
    10    4   39 1
    11    5    6 1
    12    5   24 1
    13    6    7 1
    14    6   40 1
    15    6   41 1
    16    7    8 1
    17    7   42 1
    18    7   43 1
    19    8    9 1
    20    9   10 2
    21    9   11 2
    22    9   12 1
    23   12   17 ar
    24   12   13 ar
    25   13   14 ar
    26   13   44 1
    27   14   15 ar
    28   14   45 1
    29   15   16 ar
    30   15   19 1
    31   16   17 ar
    32   16   46 1
    33   17   18 1
    34   19   23 1
    35   19   20 1
    36   20   21 1
    37   20   47 1
    38   20   48 1
    39   21   22 1
    40   21   49 1
    41   21   50 1
    42   22   23 1
    43   22   51 1
    44   22   52 1
    45   23   53 1
    46   23   54 1
    47   24   29 ar
    48   24   25 ar
    49   25   26 ar
    50   25   55 1
    51   26   27 ar
    52   26   56 1
    53   27   28 ar
    54   27   34 1
    55   28   29 ar
    56   28   57 1
    57   29   30 1
    58   30   31 1
    59   30   32 1
    60   30   33 1
@<TRIPOS>MOLECULE
CHEMBL522066
   50    54     0     0     0
SMALL
USER_CHARGES

@<TRIPOS>ATOM
      1 C1         -1.0200    1.3525    0.2282 C.3       1 <0>         0.0657
      2 N1         -0.3626    0.0476    0.1211 N.pl3     1 <0>        -0.4630
      3 C2          0.1337   -0.5364   -1.0132 C.2       1 <0>         0.2017
      4 N2          0.6360   -1.6987   -0.6582 N.2       1 <0>        -0.2498
      5 N3          0.4839   -1.8686    0.6068 N.2       1 <0>        -0.2805
      6 C3         -0.1141   -0.8316    1.1297 C.2       1 <0>         0.2067
      7 C4         -0.4665   -0.6444    2.5828 C.3       1 <0>         0.0353
      8 C5         -0.4097   -1.9440    3.4029 C.3       1 <0>        -0.1062
      9 C6         -1.6816   -1.4567    4.1167 C.3       1 <0>        -0.1379
     10 C7         -1.9804   -0.6328    2.8530 C.3       1 <0>        -0.1318
     11 C8          0.2691    0.5063    3.2199 C.ar      1 <0>        -0.0608
     12 C9          1.6439    0.4567    3.3562 C.ar      1 <0>        -0.0889
     13 C10         2.3192    1.5117    3.9404 C.ar      1 <0>        -0.1056
     14 C11         1.6190    2.6175    4.3888 C.ar      1 <0>        -0.0314
     15 C12         0.2431    2.6665    4.2521 C.ar      1 <0>        -0.1073
     16 C13        -0.4305    1.6134    3.6626 C.ar      1 <0>        -0.1038
     17 Cl1         2.4664    3.9428    5.1232 Cl        1 <0>        -0.0649
     18 C14         0.1090    0.0312   -2.3778 C.ar      1 <0>        -0.0015
     19 C15         0.2723    1.4053   -2.5661 C.ar      1 <0>        -0.0910
     20 C16         0.2497    1.9333   -3.8373 C.ar      1 <0>        -0.0968
     21 C17         0.0632    1.0966   -4.9381 C.ar      1 <0>        -0.0253
     22 C18        -0.1005   -0.2757   -4.7523 C.ar      1 <0>        -0.0938
     23 C19        -0.0720   -0.8074   -3.4807 C.ar      1 <0>         0.0014
     24 Cl2        -0.2686   -2.5166   -3.2493 Cl        1 <0>        -0.0281
     25 C20         0.0386    1.6670   -6.3065 C.ar      1 <0>        -0.0059
     26 C21         0.2061    3.0393   -6.5157 C.ar      1 <0>        -0.1619
     27 C22         0.1763    3.5281   -7.8055 C.ar      1 <0>         0.1048
     28 N4         -0.0069    2.7199   -8.8320 N.ar      1 <0>        -0.4828
     29 C23        -0.1688    1.4196   -8.6782 C.ar      1 <0>         0.1059
     30 C24        -0.1469    0.8466   -7.4234 C.ar      1 <0>        -0.1618
     31 H1         -0.2900    2.1033    0.5305 H         1 <0>         0.0855
     32 H2         -1.4439    1.6261   -0.7379 H         1 <0>         0.0951
     33 H3         -1.8151    1.2988    0.9718 H         1 <0>         0.0934
     34 H4         -0.5612   -2.8437    2.8064 H         1 <0>         0.1005
     35 H5          0.4599   -2.0100    4.0568 H         1 <0>         0.0796
     36 H6         -2.4076   -2.2479    4.3038 H         1 <0>         0.0788
     37 H7         -1.4815   -0.8473    4.9980 H         1 <0>         0.0869
     38 H8         -2.3789    0.3597    3.0630 H         1 <0>         0.0805
     39 H9         -2.5613   -1.1740    2.1062 H         1 <0>         0.0901
     40 H10         2.1904   -0.4067    3.0065 H         1 <0>         0.1339
     41 H11         3.3932    1.4728    4.0472 H         1 <0>         0.1365
     42 H12        -0.3041    3.5293    4.6023 H         1 <0>         0.1370
     43 H13        -1.5040    1.6536    3.5516 H         1 <0>         0.1374
     44 H14         0.4160    2.0538   -1.7145 H         1 <0>         0.1366
     45 H15         0.3760    2.9960   -3.9825 H         1 <0>         0.1414
     46 H16        -0.2452   -0.9226   -5.6049 H         1 <0>         0.1463
     47 H17         0.3561    3.7068   -5.6800 H         1 <0>         0.1392
     48 H18         0.3044    4.5867   -7.9771 H         1 <0>         0.1603
     49 H19        -0.3163    0.7947   -9.5467 H         1 <0>         0.1608
     50 H20        -0.2756   -0.2191   -7.3052 H         1 <0>         0.1398
@<TRIPOS>BOND
     1    1    2 1
     2    1   31 1
     3    1   32 1
     4    1   33 1
     5    2    6 1
     6    2    3 1
     7    3    4 2
     8    3   18 1
     9    4    5 1
    10    5    6 2
    11    6    7 1
    12    7   10 1
    13    7    8 1
    14    7   11 1
    15    8    9 1
    16    8   34 1
    17    8   35 1
    18    9   10 1
    19    9   36 1
    20    9   37 1
    21   10   38 1
    22   10   39 1
    23   11   16 ar
    24   11   12 ar
    25   12   13 ar
    26   12   40 1
    27   13   14 ar
    28   13   41 1
    29   14   15 ar
    30   14   17 1
    31   15   16 ar
    32   15   42 1
    33   16   43 1
    34   18   23 ar
    35   18   19 ar
    36   19   20 ar
    37   19   44 1
    38   20   21 ar
    39   20   45 1
    40   21   22 ar
    41   21   25 1
    42   22   23 ar
    43   22   46 1
    44   23   24 1
    45   25   30 ar
    46   25   26 ar
    47   26   27 ar
    48   26   47 1
    49   27   28 ar
    50   27   48 1
    51   28   29 ar
    52   29   30 ar
    53   29   49 1
    54   30   50 1
@<TRIPOS>MOLECULE
CHEMBL496819
   32    33     0     0     0
SMALL
USER_CHARGES

@<TRIPOS>ATOM
      1 C1         -0.0184    1.5028    0.0103 C.3       1 <0>        -0.1340
      2 C2          0.0021   -0.0041    0.0020 C.2       1 <0>         0.1642
      3 C3          0.0055   -0.6647   -1.1748 C.2       1 <0>        -0.2105
      4 C4          0.0244   -2.0699   -1.2016 C.2       1 <0>        -0.0025
      5 C5          0.0394   -2.7647   -0.0341 C.2       1 <0>        -0.1690
      6 C6          0.0356   -2.0580    1.1917 C.2       1 <0>         0.5242
      7 N1          0.0225   -0.6840    1.1829 N.pl3     1 <0>        -0.6201
      8 N2          0.0495   -2.7131    2.3341 N.2       1 <0>        -1.0108
      9 S1          0.0450   -1.8810    3.7659 S.o2      1 <0>         2.6140
     10 O1          1.2815   -1.1843    3.8346 O.2       1 <0>        -0.9847
     11 O2         -1.2089   -1.2173    3.8459 O.2       1 <0>        -0.9846
     12 C7          0.0667   -3.0744    5.0620 C.ar      1 <0>        -0.6055
     13 C8         -1.1218   -3.5625    5.5721 C.ar      1 <0>        -0.0182
     14 C9         -1.1048   -4.4988    6.5890 C.ar      1 <0>        -0.0903
     15 C10         0.1007   -4.9472    7.0955 C.ar      1 <0>        -0.1303
     16 C11         1.2892   -4.4597    6.5849 C.ar      1 <0>        -0.0904
     17 C12         1.2722   -3.5266    5.5651 C.ar      1 <0>        -0.0183
     18 C13         0.1193   -5.9671    8.2048 C.3       1 <0>         0.5066
     19 F1          0.1391   -7.2535    7.6552 F         1 <0>        -0.1705
     20 F2          1.2601   -5.7788    8.9924 F         1 <0>        -0.1721
     21 F3         -1.0242   -5.8158    8.9966 F         1 <0>        -0.1721
     22 H1          1.0042    1.8801    0.0026 H         1 <0>         0.0978
     23 H2         -0.5455    1.8639   -0.8728 H         1 <0>         0.1026
     24 H3         -0.5286    1.8543    0.9071 H         1 <0>         0.0815
     25 H4         -0.0068   -0.1103   -2.1015 H         1 <0>         0.1566
     26 H5          0.0267   -2.5948   -2.1455 H         1 <0>         0.1524
     27 H6          0.0537   -3.8446   -0.0416 H         1 <0>         0.1665
     28 H7         -2.0636   -3.2122    5.1763 H         1 <0>         0.1535
     29 H8         -2.0333   -4.8796    6.9879 H         1 <0>         0.1496
     30 H9          2.2310   -4.8098    6.9809 H         1 <0>         0.1496
     31 H10         2.2008   -3.1485    5.1635 H         1 <0>         0.1536
     32 H11         0.0238   -0.1958    2.0211 H         1 <0>         0.4109
@<TRIPOS>BOND
     1    1    2 1
     2    1   22 1
     3    1   23 1
     4    1   24 1
     5    2    7 1
     6    2    3 2
     7    3    4 1
     8    3   25 1
     9    4    5 2
    10    4   26 1
    11    5    6 1
    12    5   27 1
    13    6    7 1
    14    6    8 2
    15    7   32 1
    16    8    9 1
    17    9   10 2
    18    9   11 2
    19    9   12 1
    20   12   17 ar
    21   12   13 ar
    22   13   14 ar
    23   13   28 1
    24   14   15 ar
    25   14   29 1
    26   15   16 ar
    27   15   18 1
    28   16   17 ar
    29   16   30 1
    30   17   31 1
    31   18   19 1
    32   18   20 1
    33   18   21 1
@<TRIPOS>MOLECULE
CHEMBL496819__1
   31    32     0     0     0
SMALL
USER_CHARGES

@<TRIPOS>ATOM
      1 C1         -0.0184    1.5028    0.0103 C.3       1 <0>        -0.1010
      2 C2          0.0021   -0.0041    0.0020 C.ar      1 <0>         0.1707
      3 C3          0.0055   -0.6789   -1.2025 C.ar      1 <0>        -0.2799
      4 C4          0.0244   -2.0671   -1.2042 C.ar      1 <0>        -0.0491
      5 C5          0.0391   -2.7287    0.0107 C.ar      1 <0>        -0.2225
      6 C6          0.0346   -1.9849    1.1860 C.ar      1 <0>         0.4446
      7 N1          0.0219   -0.6613    1.1459 N.ar      1 <0>        -0.5945
      8 N2          0.0488   -2.6368    2.4137 N.2       1 <0>        -1.0723
      9 S1          0.0436   -1.7585    3.8176 S.o2      1 <0>         2.6202
     10 O1          1.2800   -1.0596    3.8641 O.2       1 <0>        -1.0142
     11 O2         -1.2105   -1.0927    3.8754 O.2       1 <0>        -1.0144
     12 C7          0.0649   -2.9090    5.1520 C.ar      1 <0>        -0.5926
     13 C8         -1.1237   -3.3805    5.6771 C.ar      1 <0>        -0.0257
     14 C9         -1.1070   -4.2831    6.7240 C.ar      1 <0>        -0.0966
     15 C10         0.0983   -4.7145    7.2454 C.ar      1 <0>        -0.1533
     16 C11         1.2870   -4.2437    6.7197 C.ar      1 <0>        -0.0966
     17 C12         1.2703   -3.3444    5.6700 C.ar      1 <0>        -0.0258
     18 C13         0.1166   -5.6978    8.3873 C.3       1 <0>         0.5089
     19 F1          0.1368   -7.0014    7.8800 F         1 <0>        -0.1753
     20 F2          1.2570   -5.4837    9.1688 F         1 <0>        -0.1769
     21 F3         -1.0272   -5.5210    9.1732 F         1 <0>        -0.1769
     22 H1          1.0042    1.8801    0.0026 H         1 <0>         0.0684
     23 H2         -0.5455    1.8639   -0.8728 H         1 <0>         0.0646
     24 H3         -0.5286    1.8543    0.9071 H         1 <0>         0.0691
     25 H4         -0.0067   -0.1323   -2.1339 H         1 <0>         0.1107
     26 H5          0.0271   -2.6181   -2.1331 H         1 <0>         0.1139
     27 H6          0.0536   -3.8080    0.0460 H         1 <0>         0.1193
     28 H7         -2.0654   -3.0434    5.2698 H         1 <0>         0.1490
     29 H8         -2.0357   -4.6509    7.1347 H         1 <0>         0.1397
     30 H9          2.2287   -4.5805    7.1273 H         1 <0>         0.1397
     31 H10         2.1990   -2.9794    5.2568 H         1 <0>         0.1490
@<TRIPOS>BOND
     1    1    2 1
     2    1   22 1
     3    1   23 1
     4    1   24 1
     5    2    7 ar
     6    2    3 ar
     7    3    4 ar
     8    3   25 1
     9    4    5 ar
    10    4   26 1
    11    5    6 ar
    12    5   27 1
    13    6    7 ar
    14    6    8 1
    15    8    9 1
    16    9   10 2
    17    9   11 2
    18    9   12 1
    19   12   17 ar
    20   12   13 ar
    21   13   14 ar
    22   13   28 1
    23   14   15 ar
    24   14   29 1
    25   15   16 ar
    26   15   18 1
    27   16   17 ar
    28   16   30 1
    29   17   31 1
    30   18   19 1
    31   18   20 1
    32   18   21 1
@<TRIPOS>MOLECULE
CHEMBL518303
   51    54     0     0     0
SMALL
USER_CHARGES

@<TRIPOS>ATOM
      1 C1          0.1532    1.3294    0.4035 C.3       1 <0>        -0.1607
      2 C2          0.1799   -0.1867    0.6073 C.3       1 <0>         0.1271
      3 H1          0.7025   -0.6586   -0.2247 H         1 <0>         0.1097
      4 C3         -1.2557   -0.7213    0.6830 C.3       1 <0>         0.1380
      5 N1         -1.8569   -0.2750    1.9477 N.pl3     1 <0>        -0.6787
      6 C4         -1.1710   -0.5912    3.2084 C.3       1 <0>         0.1340
      7 C5          0.2646   -0.0567    3.1327 C.3       1 <0>         0.1008
      8 N2          0.8694   -0.5031    1.8660 N.pl3     1 <0>        -0.9876
      9 S1          2.2936   -1.3482    1.8575 S.o2      1 <0>         2.6878
     10 O1          2.4081   -1.9640    3.1330 O.2       1 <0>        -0.9447
     11 O2          2.3169   -2.0925    0.6473 O.2       1 <0>        -0.9457
     12 C6          3.5984   -0.1690    1.7486 C.ar      1 <0>        -0.6561
     13 C7          4.0622    0.2357    0.5102 C.ar      1 <0>        -0.0238
     14 C8          5.0858    1.1607    0.4208 C.ar      1 <0>        -0.1085
     15 C9          5.6481    1.6839    1.5690 C.ar      1 <0>        -0.0801
     16 C10         5.1844    1.2799    2.8135 C.ar      1 <0>         0.1332
     17 C11         4.1530    0.3543    2.9000 C.ar      1 <0>        -0.0130
     18 N3          5.7534    1.8087    3.9806 N.pl3     1 <0>        -0.3359
     19 C12         6.6812    2.7826    4.0574 C.2       1 <0>         0.2627
     20 N4          6.9485    2.9884    5.3217 N.2       1 <0>        -0.5317
     21 C13         6.2165    2.1710    6.0778 C.2       1 <0>         0.2136
     22 N5          5.4652    1.4330    5.3029 N.2       1 <0>        -0.3117
     23 C14        -3.0596    0.4379    1.9513 C.ar      1 <0>         0.2157
     24 C15        -3.0448    1.8268    1.9643 C.ar      1 <0>        -0.0989
     25 C16        -4.2340    2.5290    1.9674 C.ar      1 <0>        -0.1133
     26 C17        -5.4406    1.8494    1.9576 C.ar      1 <0>         0.0975
     27 C18        -5.4577    0.4651    1.9446 C.ar      1 <0>        -0.1020
     28 C19        -4.2706   -0.2413    1.9362 C.ar      1 <0>        -0.1659
     29 C20        -4.2899   -1.7480    1.9157 C.3       1 <0>         0.5173
     30 F1         -5.6096   -2.1991    2.0256 F         1 <0>        -0.1784
     31 F2         -3.7394   -2.2052    0.7136 F         1 <0>        -0.1723
     32 F3         -3.5385   -2.2386    2.9890 F         1 <0>        -0.1693
     33 F4         -6.6028    2.5383    1.9611 F         1 <0>        -0.1296
     34 H2          1.1727    1.6992    0.2939 H         1 <0>         0.0574
     35 H3         -0.4174    1.5652   -0.4948 H         1 <0>         0.0696
     36 H4         -0.3147    1.8038    1.2661 H         1 <0>         0.0653
     37 H5         -1.8352   -0.3331   -0.1546 H         1 <0>         0.0874
     38 H6         -1.2427   -1.8106    0.6484 H         1 <0>         0.0680
     39 H7         -1.6945   -0.1171    4.0386 H         1 <0>         0.0868
     40 H8         -1.1520   -1.6713    3.3536 H         1 <0>         0.0698
     41 H9          0.2516    1.0327    3.1673 H         1 <0>         0.0754
     42 H10         0.8441   -0.4449    3.9703 H         1 <0>         0.1016
     43 H11         3.6241   -0.1719   -0.3889 H         1 <0>         0.1487
     44 H12         5.4464    1.4744   -0.5478 H         1 <0>         0.1488
     45 H13         6.4480    2.4062    1.4985 H         1 <0>         0.1424
     46 H14         3.7873    0.0412    3.8668 H         1 <0>         0.1547
     47 H15         7.1267    3.3019    3.2219 H         1 <0>         0.2240
     48 H16         6.2378    2.1276    7.1567 H         1 <0>         0.2269
     49 H17        -2.1041    2.3572    1.9723 H         1 <0>         0.1453
     50 H18        -4.2230    3.6088    1.9778 H         1 <0>         0.1467
     51 H19        -6.3999   -0.0628    1.9370 H         1 <0>         0.1519
@<TRIPOS>BOND
     1    1    2 1
     2    1   34 1
     3    1   35 1
     4    1   36 1
     5    2    3 1
     6    2    8 1
     7    2    4 1
     8    4    5 1
     9    4   37 1
    10    4   38 1
    11    5    6 1
    12    5   23 1
    13    6    7 1
    14    6   39 1
    15    6   40 1
    16    7    8 1
    17    7   41 1
    18    7   42 1
    19    8    9 1
    20    9   10 2
    21    9   11 2
    22    9   12 1
    23   12   17 ar
    24   12   13 ar
    25   13   14 ar
    26   13   43 1
    27   14   15 ar
    28   14   44 1
    29   15   16 ar
    30   15   45 1
    31   16   17 ar
    32   16   18 1
    33   17   46 1
    34   18   22 1
    35   18   19 1
    36   19   20 2
    37   19   47 1
    38   20   21 1
    39   21   22 2
    40   21   48 1
    41   23   28 ar
    42   23   24 ar
    43   24   25 ar
    44   24   49 1
    45   25   26 ar
    46   25   50 1
    47   26   27 ar
    48   26   33 1
    49   27   28 ar
    50   27   51 1
    51   28   29 1
    52   29   30 1
    53   29   31 1
    54   29   32 1
@<TRIPOS>MOLECULE
CHEMBL497224
   35    37     0     0     0
SMALL
USER_CHARGES

@<TRIPOS>ATOM
      1 C1         -0.0184    1.5028    0.0103 C.3       1 <0>        -0.1337
      2 C2          0.0021   -0.0041    0.0020 C.2       1 <0>         0.1641
      3 C3          0.0055   -0.6647   -1.1748 C.2       1 <0>        -0.2121
      4 C4          0.0244   -2.0699   -1.2016 C.2       1 <0>        -0.0043
      5 C5          0.0394   -2.7647   -0.0341 C.2       1 <0>        -0.1688
      6 C6          0.0356   -2.0580    1.1917 C.2       1 <0>         0.5227
      7 N1          0.0225   -0.6840    1.1829 N.pl3     1 <0>        -0.6209
      8 N2          0.0495   -2.7131    2.3341 N.2       1 <0>        -1.0100
      9 S1          0.0450   -1.8810    3.7659 S.o2      1 <0>         2.6137
     10 O1          1.2815   -1.1843    3.8346 O.2       1 <0>        -0.9912
     11 O2         -1.2089   -1.2173    3.8459 O.2       1 <0>        -0.9884
     12 C7          0.0667   -3.0744    5.0620 C.ar      1 <0>        -0.6265
     13 C8         -1.1377   -3.5596    5.5687 C.ar      1 <0>        -0.0417
     14 C9         -1.1562   -4.4813    6.5698 C.ar      1 <0>        -0.1183
     15 C10         0.0555   -4.9534    7.1027 C.ar      1 <0>        -0.0124
     16 C11         0.0765   -5.9053    8.1365 C.ar      1 <0>        -0.1187
     17 C12         1.2691   -6.3397    8.6276 C.ar      1 <0>        -0.0940
     18 C13         2.4734   -5.8547    8.1208 C.ar      1 <0>        -0.1227
     19 C14         2.4918   -4.9327    7.1200 C.ar      1 <0>        -0.0890
     20 C15         1.2801   -4.4603    6.5873 C.ar      1 <0>        -0.0793
     21 C16         1.2592   -3.5127    5.5497 C.ar      1 <0>         0.0194
     22 H1          1.0042    1.8801    0.0026 H         1 <0>         0.0973
     23 H2         -0.5455    1.8639   -0.8728 H         1 <0>         0.1021
     24 H3         -0.5286    1.8543    0.9071 H         1 <0>         0.0813
     25 H4         -0.0068   -0.1103   -2.1015 H         1 <0>         0.1558
     26 H5          0.0267   -2.5948   -2.1455 H         1 <0>         0.1515
     27 H6          0.0537   -3.8446   -0.0416 H         1 <0>         0.1657
     28 H7         -2.0702   -3.1984    5.1609 H         1 <0>         0.1392
     29 H8         -2.0971   -4.8477    6.9529 H         1 <0>         0.1380
     30 H9         -0.8489   -6.2897    8.5393 H         1 <0>         0.1332
     31 H10         1.2824   -7.0710    9.4223 H         1 <0>         0.1289
     32 H11         3.4060   -6.2158    8.5286 H         1 <0>         0.1292
     33 H12         3.4327   -4.5656    6.7374 H         1 <0>         0.1336
     34 H13         2.1847   -3.1313    5.1442 H         1 <0>         0.1456
     35 H14         0.0238   -0.1958    2.0211 H         1 <0>         0.4108
@<TRIPOS>BOND
     1    1    2 1
     2    1   22 1
     3    1   23 1
     4    1   24 1
     5    2    7 1
     6    2    3 2
     7    3    4 1
     8    3   25 1
     9    4    5 2
    10    4   26 1
    11    5    6 1
    12    5   27 1
    13    6    7 1
    14    6    8 2
    15    7   35 1
    16    8    9 1
    17    9   10 2
    18    9   11 2
    19    9   12 1
    20   12   21 ar
    21   12   13 ar
    22   13   14 ar
    23   13   28 1
    24   14   15 ar
    25   14   29 1
    26   15   20 ar
    27   15   16 ar
    28   16   17 ar
    29   16   30 1
    30   17   18 ar
    31   17   31 1
    32   18   19 ar
    33   18   32 1
    34   19   20 ar
    35   19   33 1
    36   20   21 ar
    37   21   34 1
@<TRIPOS>MOLECULE
CHEMBL497224__1
   34    36     0     0     0
SMALL
USER_CHARGES

@<TRIPOS>ATOM
      1 C1         -0.0184    1.5028    0.0103 C.3       1 <0>        -0.1007
      2 C2          0.0021   -0.0041    0.0020 C.ar      1 <0>         0.1707
      3 C3          0.0055   -0.6789   -1.2025 C.ar      1 <0>        -0.2821
      4 C4          0.0244   -2.0671   -1.2042 C.ar      1 <0>        -0.0495
      5 C5          0.0391   -2.7287    0.0107 C.ar      1 <0>        -0.2237
      6 C6          0.0346   -1.9849    1.1860 C.ar      1 <0>         0.4447
      7 N1          0.0219   -0.6613    1.1459 N.ar      1 <0>        -0.5947
      8 N2          0.0488   -2.6368    2.4137 N.2       1 <0>        -1.0737
      9 S1          0.0436   -1.7585    3.8176 S.o2      1 <0>         2.6237
     10 O1          1.2800   -1.0596    3.8641 O.2       1 <0>        -1.0200
     11 O2         -1.2105   -1.0927    3.8754 O.2       1 <0>        -1.0185
     12 C7          0.0649   -2.9090    5.1520 C.ar      1 <0>        -0.6176
     13 C8         -1.1396   -3.3776    5.6736 C.ar      1 <0>        -0.0305
     14 C9         -1.1584   -4.2662    6.7042 C.ar      1 <0>        -0.1361
     15 C10         0.0531   -4.7205    7.2528 C.ar      1 <0>        -0.0218
     16 C11         0.0738   -5.6382    8.3170 C.ar      1 <0>        -0.1173
     17 C12         1.2662   -6.0562    8.8226 C.ar      1 <0>        -0.1085
     18 C13         2.4707   -5.5878    8.3007 C.ar      1 <0>        -0.1337
     19 C14         2.4894   -4.6988    7.2704 C.ar      1 <0>        -0.0876
     20 C15         1.2779   -4.2443    6.7221 C.ar      1 <0>        -0.0772
     21 C16         1.2573   -3.3309    5.6542 C.ar      1 <0>         0.0030
     22 H1          1.0042    1.8801    0.0026 H         1 <0>         0.0680
     23 H2         -0.5455    1.8639   -0.8728 H         1 <0>         0.0642
     24 H3         -0.5286    1.8543    0.9071 H         1 <0>         0.0688
     25 H4         -0.0067   -0.1323   -2.1339 H         1 <0>         0.1099
     26 H5          0.0271   -2.6181   -2.1331 H         1 <0>         0.1131
     27 H6          0.0536   -3.8080    0.0460 H         1 <0>         0.1186
     28 H7         -2.0721   -3.0301    5.2539 H         1 <0>         0.1367
     29 H8         -2.0994   -4.6201    7.0987 H         1 <0>         0.1299
     30 H9         -0.8517   -6.0095    8.7317 H         1 <0>         0.1265
     31 H10         1.2793   -6.7612    9.6406 H         1 <0>         0.1211
     32 H11         3.4032   -5.9352    8.7205 H         1 <0>         0.1221
     33 H12         3.4304   -4.3442    6.8765 H         1 <0>         0.1297
     34 H13         2.1829   -2.9628    5.2369 H         1 <0>         0.1423
@<TRIPOS>BOND
     1    1    2 1
     2    1   22 1
     3    1   23 1
     4    1   24 1
     5    2    7 ar
     6    2    3 ar
     7    3    4 ar
     8    3   25 1
     9    4    5 ar
    10    4   26 1
    11    5    6 ar
    12    5   27 1
    13    6    7 ar
    14    6    8 1
    15    8    9 1
    16    9   10 2
    17    9   11 2
    18    9   12 1
    19   12   21 ar
    20   12   13 ar
    21   13   14 ar
    22   13   28 1
    23   14   15 ar
    24   14   29 1
    25   15   20 ar
    26   15   16 ar
    27   16   17 ar
    28   16   30 1
    29   17   18 ar
    30   17   31 1
    31   18   19 ar
    32   18   32 1
    33   19   20 ar
    34   19   33 1
    35   20   21 ar
    36   21   34 1
@<TRIPOS>MOLECULE
CHEMBL401830
   43    46     0     0     0
SMALL
USER_CHARGES

@<TRIPOS>ATOM
      1 C1         -0.3371    1.1132   -0.1657 C.3       1 <0>        -0.1303
      2 C2          0.5244   -0.1169   -0.0401 C.ar      1 <0>        -0.0472
      3 C3          0.9010   -0.8126   -1.1826 C.ar      1 <0>        -0.1202
      4 C4          1.6791   -1.9282   -1.1047 C.ar      1 <0>        -0.0778
      5 C5          2.1172   -2.3968    0.1464 C.ar      1 <0>        -0.0567
      6 C6          2.9211   -3.5450    0.2525 C.ar      1 <0>        -0.1041
      7 C7          3.3281   -3.9713    1.4796 C.ar      1 <0>        -0.1128
      8 C8          2.9595   -3.2856    2.6348 C.ar      1 <0>        -0.1063
      9 C9          2.1809   -2.1695    2.5683 C.ar      1 <0>        -0.1020
     10 C10         1.7437   -1.7014    1.3217 C.ar      1 <0>        -0.0149
     11 C11         0.9382   -0.5400    1.2136 C.ar      1 <0>        -0.0209
     12 C12         0.5398    0.2066    2.4218 C.2       1 <0>         0.2369
     13 N1         -0.1142   -0.2751    3.4586 N.2       1 <0>        -0.2655
     14 N2         -0.2947    0.6506    4.3317 N.2       1 <0>        -0.2497
     15 C13         0.2325    1.7790    3.9065 C.2       1 <0>         0.1913
     16 N3          0.7861    1.5301    2.6787 N.pl3     1 <0>        -0.4585
     17 C14         1.4922    2.4819    1.8174 C.3       1 <0>         0.0586
     18 C15         0.2328    3.0719    4.6231 C.ar      1 <0>         0.0332
     19 C16        -0.0685    4.2518    3.9405 C.ar      1 <0>        -0.1037
     20 C17        -0.0670    5.4549    4.6152 C.ar      1 <0>        -0.0840
     21 C18         0.2329    5.4940    5.9656 C.ar      1 <0>        -0.1042
     22 C19         0.5323    4.3285    6.6480 C.ar      1 <0>        -0.0696
     23 C20         0.5287    3.1177    5.9863 C.ar      1 <0>        -0.1459
     24 C21         0.8495    1.8483    6.7324 C.3       1 <0>         0.5044
     25 F1          1.1093    2.1488    8.0739 F         1 <0>        -0.1795
     26 F2         -0.2388    0.9729    6.6530 F         1 <0>        -0.1470
     27 F3          1.9760    1.2448    6.1632 F         1 <0>        -0.1786
     28 H1          0.2954    2.0009   -0.1692 H         1 <0>         0.0782
     29 H2         -0.9034    1.0668   -1.0959 H         1 <0>         0.0788
     30 H3         -1.0264    1.1616    0.6773 H         1 <0>         0.0662
     31 H4          0.5706   -0.4629   -2.1496 H         1 <0>         0.1322
     32 H5          1.9597   -2.4537   -2.0055 H         1 <0>         0.1342
     33 H6          3.2141   -4.0864   -0.6349 H         1 <0>         0.1312
     34 H7          3.9455   -4.8539    1.5587 H         1 <0>         0.1266
     35 H8          3.2952   -3.6440    3.5967 H         1 <0>         0.1260
     36 H9          1.9024   -1.6476    3.4719 H         1 <0>         0.1278
     37 H10         0.8096    2.8578    1.0552 H         1 <0>         0.0946
     38 H11         1.8587    3.3136    2.4190 H         1 <0>         0.0964
     39 H12         2.3336    1.9823    1.3371 H         1 <0>         0.0956
     40 H13        -0.3020    4.2228    2.8865 H         1 <0>         0.1353
     41 H14        -0.2999    6.3684    4.0884 H         1 <0>         0.1416
     42 H15         0.2334    6.4387    6.4891 H         1 <0>         0.1426
     43 H16         0.7655    4.3658    7.7019 H         1 <0>         0.1478
@<TRIPOS>BOND
     1    1    2 1
     2    1   28 1
     3    1   29 1
     4    1   30 1
     5    2   11 ar
     6    2    3 ar
     7    3    4 ar
     8    3   31 1
     9    4    5 ar
    10    4   32 1
    11    5   10 ar
    12    5    6 ar
    13    6    7 ar
    14    6   33 1
    15    7    8 ar
    16    7   34 1
    17    8    9 ar
    18    8   35 1
    19    9   10 ar
    20    9   36 1
    21   10   11 ar
    22   11   12 1
    23   12   16 1
    24   12   13 2
    25   13   14 1
    26   14   15 2
    27   15   16 1
    28   15   18 1
    29   16   17 1
    30   17   37 1
    31   17   38 1
    32   17   39 1
    33   18   23 ar
    34   18   19 ar
    35   19   20 ar
    36   19   40 1
    37   20   21 ar
    38   20   41 1
    39   21   22 ar
    40   21   42 1
    41   22   23 ar
    42   22   43 1
    43   23   24 1
    44   24   25 1
    45   24   26 1
    46   24   27 1
@<TRIPOS>MOLECULE
CHEMBL473756
   62    65     0     0     0
SMALL
USER_CHARGES

@<TRIPOS>ATOM
      1 C1         -0.4392    1.4380    0.2866 C.3       1 <0>        -0.1875
      2 C2         -0.2028   -0.0679    0.1553 C.3       1 <0>         0.1587
      3 H1         -1.1327   -0.6027    0.3486 H         1 <0>         0.0854
      4 C3          0.2918   -0.3899   -1.2589 C.3       1 <0>         0.0484
      5 N1          0.6636   -1.8092   -1.3328 N.3       1 <0>        -0.5294
      6 C4          1.7816   -2.1148   -0.4302 C.3       1 <0>         0.0410
      7 C5          1.3480   -1.8635    1.0179 C.3       1 <0>         0.1220
      8 N2          0.8217   -0.4932    1.1210 N.pl3     1 <0>        -0.9955
      9 S1          1.3720    0.5442    2.2886 S.o2      1 <0>         2.6885
     10 O1          2.5889   -0.0031    2.7774 O.2       1 <0>        -0.9587
     11 O2          1.2911    1.8526    1.7402 O.2       1 <0>        -0.9512
     12 C6          0.2218    0.4851    3.6221 C.ar      1 <0>        -0.6811
     13 C7         -0.8563    1.3500    3.6439 C.ar      1 <0>        -0.0227
     14 C8         -1.7587    1.3036    4.6900 C.ar      1 <0>        -0.1360
     15 C9         -1.5832    0.3920    5.7143 C.ar      1 <0>        -0.0117
     16 C10        -0.5056   -0.4736    5.6921 C.ar      1 <0>        -0.1415
     17 C11         0.3944   -0.4301    4.6437 C.ar      1 <0>        -0.0164
     18 C12        -2.5664    0.3421    6.8553 C.3       1 <0>        -0.0388
     19 C13        -3.9614    0.0247    6.3130 C.3       1 <0>        -0.1400
     20 C14        -2.1443   -0.7457    7.8450 C.3       1 <0>        -0.1480
     21 C15        -2.5916    1.6966    7.5663 C.3       1 <0>        -0.1410
     22 C16         0.9797   -2.1994   -2.7133 C.3       1 <0>         0.0897
     23 C17         1.1152   -3.6981   -2.7932 C.ar      1 <0>        -0.0160
     24 C18         2.3450   -4.2931   -2.7910 C.ar      1 <0>        -0.1750
     25 C19         2.4463   -5.6802   -2.8656 C.ar      1 <0>         0.1330
     26 N3          1.3850   -6.4464   -2.9395 N.ar      1 <0>        -0.4738
     27 C20         0.1531   -5.9283   -2.9461 C.ar      1 <0>         0.1259
     28 C21        -0.0218   -4.5242   -2.8662 C.ar      1 <0>        -0.0842
     29 C22        -1.3186   -3.9853   -2.8679 C.ar      1 <0>        -0.0827
     30 C23        -2.3931   -4.8181   -2.9403 C.ar      1 <0>        -0.1197
     31 C24        -2.2237   -6.1994   -3.0128 C.ar      1 <0>        -0.0986
     32 C25        -0.9815   -6.7549   -3.0260 C.ar      1 <0>        -0.0971
     33 H2          0.4567    1.9750   -0.0249 H         1 <0>         0.0966
     34 H3         -1.2769    1.7309   -0.3464 H         1 <0>         0.0733
     35 H4         -0.6660    1.6811    1.3247 H         1 <0>         0.0690
     36 H5         -0.5015   -0.1839   -1.9774 H         1 <0>         0.0908
     37 H6          1.1609    0.2262   -1.4893 H         1 <0>         0.0468
     38 H7          2.0687   -3.1598   -0.5477 H         1 <0>         0.0909
     39 H8          2.6299   -1.4747   -0.6722 H         1 <0>         0.0448
     40 H9          0.5690   -2.5736    1.2954 H         1 <0>         0.0783
     41 H10         2.2049   -1.9778    1.6818 H         1 <0>         0.1009
     42 H11        -0.9934    2.0622    2.8437 H         1 <0>         0.1426
     43 H12        -2.6006    1.9798    4.7074 H         1 <0>         0.1321
     44 H13        -0.3683   -1.1856    6.4925 H         1 <0>         0.1376
     45 H14         1.2343   -1.1088    4.6245 H         1 <0>         0.1381
     46 H15        -3.9434   -0.9403    5.8064 H         1 <0>         0.0581
     47 H16        -4.6725   -0.0114    7.1382 H         1 <0>         0.0639
     48 H17        -4.2621    0.7996    5.6079 H         1 <0>         0.0592
     49 H18        -1.1504   -0.5196    8.2314 H         1 <0>         0.0610
     50 H19        -2.8554   -0.7818    8.6703 H         1 <0>         0.0633
     51 H20        -2.1263   -1.7107    7.3384 H         1 <0>         0.0608
     52 H21        -2.8923    2.4715    6.8613 H         1 <0>         0.0594
     53 H22        -3.3027    1.6605    8.3916 H         1 <0>         0.0641
     54 H23        -1.5978    1.9227    7.9527 H         1 <0>         0.0586
     55 H24         0.1791   -1.8711   -3.3760 H         1 <0>         0.0932
     56 H25         1.9170   -1.7331   -3.0171 H         1 <0>         0.0539
     57 H26         3.2378   -3.6883   -2.7318 H         1 <0>         0.1351
     58 H27         3.4251   -6.1367   -2.8629 H         1 <0>         0.1596
     59 H28        -1.4627   -2.9164   -2.8117 H         1 <0>         0.1320
     60 H29        -3.3901   -4.4027   -2.9411 H         1 <0>         0.1265
     61 H30        -3.0922   -6.8389   -3.0695 H         1 <0>         0.1291
     62 H31        -0.8679   -7.8274   -3.0830 H         1 <0>         0.1344
@<TRIPOS>BOND
     1    1    2 1
     2    1   33 1
     3    1   34 1
     4    1   35 1
     5    2    3 1
     6    2    8 1
     7    2    4 1
     8    4    5 1
     9    4   36 1
    10    4   37 1
    11    5    6 1
    12    5   22 1
    13    6    7 1
    14    6   38 1
    15    6   39 1
    16    7    8 1
    17    7   40 1
    18    7   41 1
    19    8    9 1
    20    9   10 2
    21    9   11 2
    22    9   12 1
    23   12   17 ar
    24   12   13 ar
    25   13   14 ar
    26   13   42 1
    27   14   15 ar
    28   14   43 1
    29   15   16 ar
    30   15   18 1
    31   16   17 ar
    32   16   44 1
    33   17   45 1
    34   18   19 1
    35   18   20 1
    36   18   21 1
    37   19   46 1
    38   19   47 1
    39   19   48 1
    40   20   49 1
    41   20   50 1
    42   20   51 1
    43   21   52 1
    44   21   53 1
    45   21   54 1
    46   22   23 1
    47   22   55 1
    48   22   56 1
    49   23   28 ar
    50   23   24 ar
    51   24   25 ar
    52   24   57 1
    53   25   26 ar
    54   25   58 1
    55   26   27 ar
    56   27   32 ar
    57   27   28 ar
    58   28   29 ar
    59   29   30 ar
    60   29   59 1
    61   30   31 ar
    62   30   60 1
    63   31   32 ar
    64   31   61 1
    65   32   62 1
@<TRIPOS>MOLECULE
CHEMBL494822
   57    62     0     0     0
SMALL
USER_CHARGES

@<TRIPOS>ATOM
      1 C1         -2.1412   -3.2202    1.8998 C.3       1 <0>        -0.0826
      2 C2         -1.1888   -2.4969    0.9828 C.2       1 <0>         0.2932
      3 N1         -1.0140   -2.7707   -0.2771 N.2       1 <0>        -0.4821
      4 C3         -0.0869   -1.9297   -0.8041 C.ar      1 <0>         0.0513
      5 C4          0.4677   -1.7845   -2.0784 C.ar      1 <0>        -0.0637
      6 C5          1.4070   -0.8189   -2.3060 C.ar      1 <0>        -0.1228
      7 C6          1.8192    0.0229   -1.2827 C.ar      1 <0>        -0.0980
      8 C7          1.2859   -0.1025   -0.0174 C.ar      1 <0>        -0.1080
      9 C8          0.3299   -1.0772    0.2322 C.ar      1 <0>         0.0506
     10 N2         -0.3890   -1.4564    1.3506 N.pl3     1 <0>        -0.4535
     11 C9         -0.3080   -0.8813    2.6240 C.ar      1 <0>         0.1518
     12 C10        -0.7160    0.4335    2.8183 C.ar      1 <0>        -0.1010
     13 C11        -0.6384    1.0033    4.0704 C.ar      1 <0>        -0.0752
     14 C12        -0.1492    0.2590    5.1455 C.ar      1 <0>         0.0040
     15 C13         0.2600   -1.0618    4.9475 C.ar      1 <0>         0.0119
     16 C14         0.1745   -1.6274    3.6921 C.ar      1 <0>        -0.1017
     17 Cl1         0.8696   -1.9921    6.2804 Cl        1 <0>        -0.0234
     18 C15        -0.0641    0.8675    6.4902 C.2       1 <0>         0.1995
     19 N3          0.9773    0.8493    7.2927 N.2       1 <0>        -0.2491
     20 N4          0.6981    1.4752    8.3802 N.2       1 <0>        -0.2792
     21 C16        -0.5267    1.9258    8.3363 C.2       1 <0>         0.2100
     22 N5         -1.0525    1.5619    7.1341 N.pl3     1 <0>        -0.4623
     23 C17        -2.3989    1.8512    6.6343 C.3       1 <0>         0.0637
     24 C18        -1.2275    2.7101    9.4156 C.3       1 <0>         0.0359
     25 C19        -0.7076    2.4100   10.8314 C.3       1 <0>        -0.1060
     26 C20        -2.1720    2.4713   11.2970 C.3       1 <0>        -0.1380
     27 C21        -2.5628    2.0898    9.8594 C.3       1 <0>        -0.1329
     28 C22        -1.3195    4.1816    9.1036 C.ar      1 <0>        -0.0609
     29 C23        -0.1709    4.9488    9.0461 C.ar      1 <0>        -0.0872
     30 C24        -0.2547    6.2984    8.7600 C.ar      1 <0>        -0.1056
     31 C25        -1.4883    6.8815    8.5311 C.ar      1 <0>        -0.0311
     32 C26        -2.6374    6.1131    8.5888 C.ar      1 <0>        -0.1076
     33 C27        -2.5518    4.7625    8.8694 C.ar      1 <0>        -0.1055
     34 Cl2        -1.5943    8.5767    8.1723 Cl        1 <0>        -0.0647
     35 H1         -3.1158   -2.7329    1.8690 H         1 <0>         0.0915
     36 H2         -2.2424   -4.2557    1.5750 H         1 <0>         0.1017
     37 H3         -1.7544   -3.1950    2.9185 H         1 <0>         0.0798
     38 H4          0.1547   -2.4347   -2.8819 H         1 <0>         0.1322
     39 H5          1.8334   -0.7098   -3.2923 H         1 <0>         0.1326
     40 H6          2.5629    0.7811   -1.4786 H         1 <0>         0.1329
     41 H7          1.6100    0.5552    0.7756 H         1 <0>         0.1227
     42 H8         -1.0941    1.0093    1.9865 H         1 <0>         0.1442
     43 H9         -0.9553    2.0248    4.2200 H         1 <0>         0.1443
     44 H10         0.4867   -2.6499    3.5385 H         1 <0>         0.1498
     45 H11        -3.0920    1.0921    6.9969 H         1 <0>         0.0879
     46 H12        -2.7156    2.8318    6.9899 H         1 <0>         0.0947
     47 H13        -2.3910    1.8452    5.5444 H         1 <0>         0.0930
     48 H14        -0.2587    1.4218   10.9314 H         1 <0>         0.0970
     49 H15        -0.0844    3.2029   11.2449 H         1 <0>         0.0812
     50 H16        -2.4276    1.7112   12.0353 H         1 <0>         0.0787
     51 H17        -2.4964    3.4706   11.5871 H         1 <0>         0.0877
     52 H18        -3.4373    2.6243    9.4883 H         1 <0>         0.0815
     53 H19        -2.6210    1.0141    9.6937 H         1 <0>         0.0892
     54 H20         0.7919    4.4936    9.2252 H         1 <0>         0.1363
     55 H21         0.6427    6.8978    8.7155 H         1 <0>         0.1369
     56 H22        -3.6006    6.5678    8.4105 H         1 <0>         0.1369
     57 H23        -3.4484    4.1616    8.9097 H         1 <0>         0.1372
@<TRIPOS>BOND
     1    1    2 1
     2    1   35 1
     3    1   36 1
     4    1   37 1
     5    2   10 1
     6    2    3 2
     7    3    4 1
     8    4    9 ar
     9    4    5 ar
    10    5    6 ar
    11    5   38 1
    12    6    7 ar
    13    6   39 1
    14    7    8 ar
    15    7   40 1
    16    8    9 ar
    17    8   41 1
    18    9   10 1
    19   10   11 1
    20   11   16 ar
    21   11   12 ar
    22   12   13 ar
    23   12   42 1
    24   13   14 ar
    25   13   43 1
    26   14   15 ar
    27   14   18 1
    28   15   16 ar
    29   15   17 1
    30   16   44 1
    31   18   22 1
    32   18   19 2
    33   19   20 1
    34   20   21 2
    35   21   22 1
    36   21   24 1
    37   22   23 1
    38   23   45 1
    39   23   46 1
    40   23   47 1
    41   24   27 1
    42   24   25 1
    43   24   28 1
    44   25   26 1
    45   25   48 1
    46   25   49 1
    47   26   27 1
    48   26   50 1
    49   26   51 1
    50   27   52 1
    51   27   53 1
    52   28   33 ar
    53   28   29 ar
    54   29   30 ar
    55   29   54 1
    56   30   31 ar
    57   30   55 1
    58   31   32 ar
    59   31   34 1
    60   32   33 ar
    61   32   56 1
    62   33   57 1
@<TRIPOS>MOLECULE
CHEMBL200351
   52    56     0     0     0
SMALL
USER_CHARGES

@<TRIPOS>ATOM
      1 C1         -0.0435    1.5023    0.0106 C.3       1 <0>        -0.0725
      2 C2         -0.0086   -0.0043    0.0021 C.2       1 <0>         0.2504
      3 N1         -0.0087   -0.7762   -1.0905 N.2       1 <0>        -0.5409
      4 C3          0.0262   -2.0345   -0.7496 C.2       1 <0>         0.3037
      5 O1          0.0500   -2.1063    0.5872 O.3       1 <0>        -0.1015
      6 N2          0.0322   -0.7665    1.0570 N.2       1 <0>        -0.3436
      7 C4          0.0378   -3.2062   -1.6973 C.3       1 <0>         0.0305
      8 C5         -1.2268   -3.1784   -2.5580 C.3       1 <0>        -0.1001
      9 C6         -1.2150   -4.3680   -3.5202 C.3       1 <0>        -0.1111
     10 C7          0.0574   -5.1888   -3.3009 C.3       1 <0>         0.0334
     11 C8          0.0931   -5.6988   -1.8588 C.3       1 <0>        -0.0918
     12 C9          0.0813   -4.5092   -0.8967 C.3       1 <0>        -0.1155
     13 C10         1.2824   -4.3099   -3.5614 C.3       1 <0>        -0.1115
     14 C11         1.2707   -3.1204   -2.5993 C.3       1 <0>        -0.1002
     15 C12         0.0690   -6.3604   -4.2485 C.2       1 <0>         0.1683
     16 N3          0.1735   -7.6168   -3.9191 N.2       1 <0>        -0.2801
     17 N4          0.1004   -8.3458   -4.9749 N.2       1 <0>        -0.2975
     18 C13        -0.0740   -7.5802   -6.0181 C.2       1 <0>         0.1943
     19 N5         -0.0340   -6.2998   -5.6084 N.pl3     1 <0>        -0.4604
     20 C14        -0.0026   -5.0332   -6.3459 C.3       1 <0>         0.0963
     21 C15        -0.0070   -5.2525   -7.8590 C.3       1 <0>        -0.1428
     22 C16        -1.4080   -5.5613   -8.3626 C.3       1 <0>        -0.1254
     23 C17        -2.2019   -6.4361   -7.4126 C.3       1 <0>        -0.1372
     24 C18        -1.8258   -7.8901   -7.7166 C.3       1 <0>        -0.1170
     25 C19        -0.3171   -8.0655   -7.4276 C.3       1 <0>        -0.0478
     26 H1          0.9753    1.8895   -0.0094 H         1 <0>         0.0969
     27 H2         -0.5846    1.8581   -0.8662 H         1 <0>         0.0974
     28 H3         -0.5463    1.8490    0.9134 H         1 <0>         0.0913
     29 H4         -2.1051   -3.2396   -1.9154 H         1 <0>         0.0752
     30 H5         -1.2578   -2.2501   -3.1284 H         1 <0>         0.0853
     31 H6         -2.0878   -4.9941   -3.3345 H         1 <0>         0.0771
     32 H7         -1.2405   -4.0046   -4.5475 H         1 <0>         0.0732
     33 H8         -0.7796   -6.3249   -1.6732 H         1 <0>         0.0801
     34 H9          0.9996   -6.2835   -1.7026 H         1 <0>         0.0825
     35 H10         0.9823   -4.5290   -0.2835 H         1 <0>         0.0798
     36 H11        -0.7970   -4.5704   -0.2541 H         1 <0>         0.0795
     37 H12         2.1889   -4.8947   -3.4052 H         1 <0>         0.0784
     38 H13         1.2570   -3.9466   -4.5888 H         1 <0>         0.0730
     39 H14         1.2396   -2.1920   -3.1697 H         1 <0>         0.0852
     40 H15         2.1716   -3.1401   -1.9861 H         1 <0>         0.0754
     41 H16        -0.8754   -4.4410   -6.0709 H         1 <0>         0.0965
     42 H17         0.8978   -4.4844   -6.0698 H         1 <0>         0.0959
     43 H18         0.3599   -4.3522   -8.3520 H         1 <0>         0.0915
     44 H19         0.6522   -6.0860   -8.1016 H         1 <0>         0.0839
     45 H20        -1.9438   -4.6230   -8.5057 H         1 <0>         0.0646
     46 H21        -1.3309   -6.0684   -9.3244 H         1 <0>         0.0728
     47 H22        -1.9445   -6.1937   -6.3816 H         1 <0>         0.0689
     48 H23        -3.2694   -6.2870   -7.5747 H         1 <0>         0.0709
     49 H24        -2.4051   -8.5606   -7.0819 H         1 <0>         0.0702
     50 H25        -2.0260   -8.1105   -8.7652 H         1 <0>         0.0792
     51 H26         0.2738   -7.4768   -8.1293 H         1 <0>         0.0957
     52 H27        -0.0485   -9.1188   -7.5083 H         1 <0>         0.0993
@<TRIPOS>BOND
     1    1    2 1
     2    1   26 1
     3    1   27 1
     4    1   28 1
     5    2    6 2
     6    2    3 1
     7    3    4 2
     8    4    5 1
     9    4    7 1
    10    5    6 1
    11    7   12 1
    12    7   14 1
    13    7    8 1
    14    8    9 1
    15    8   29 1
    16    8   30 1
    17    9   10 1
    18    9   31 1
    19    9   32 1
    20   10   11 1
    21   10   13 1
    22   10   15 1
    23   11   12 1
    24   11   33 1
    25   11   34 1
    26   12   35 1
    27   12   36 1
    28   13   14 1
    29   13   37 1
    30   13   38 1
    31   14   39 1
    32   14   40 1
    33   15   19 1
    34   15   16 2
    35   16   17 1
    36   17   18 2
    37   18   25 1
    38   18   19 1
    39   19   20 1
    40   20   21 1
    41   20   41 1
    42   20   42 1
    43   21   22 1
    44   21   43 1
    45   21   44 1
    46   22   23 1
    47   22   45 1
    48   22   46 1
    49   23   24 1
    50   23   47 1
    51   23   48 1
    52   24   25 1
    53   24   49 1
    54   24   50 1
    55   25   51 1
    56   25   52 1
@<TRIPOS>MOLECULE
CHEMBL403586
   53    56     0     0     0
SMALL
USER_CHARGES

@<TRIPOS>ATOM
      1 C1         -0.0184    1.5028    0.0103 C.3       1 <0>        -0.1240
      2 C2          0.0021   -0.0041    0.0020 C.ar      1 <0>        -0.0475
      3 C3          0.0056   -0.6858   -1.2025 C.ar      1 <0>        -0.1326
      4 C4          0.0238   -2.0645   -1.2184 C.ar      1 <0>        -0.0501
      5 C5          0.0392   -2.7739   -0.0132 C.ar      1 <0>        -0.1754
      6 C6          0.0359   -2.0776    1.1997 C.ar      1 <0>        -0.0699
      7 C7          0.0229   -0.6988    1.1989 C.ar      1 <0>        -0.1322
      8 C8          0.0582   -4.2454   -0.0213 C.2       1 <0>         0.4000
      9 O1          0.0605   -4.8459   -1.0747 O.2       1 <0>        -0.4246
     10 C9          0.0747   -5.0059    1.2796 C.3       1 <0>         0.0198
     11 O2          0.0914   -6.4093    1.0108 O.3       1 <0>        -0.3267
     12 C10         0.1075   -7.2327    2.0707 C.2       1 <0>         0.4540
     13 O3          0.1073   -6.7770    3.1898 O.2       1 <0>        -0.4740
     14 C11         0.1257   -8.7255    1.8651 C.3       1 <0>         0.1642
     15 C12        -1.2902   -9.2148    1.5546 C.3       1 <0>        -0.0902
     16 C13        -1.2532  -10.6857    1.2284 C.ar      1 <0>        -0.0911
     17 C14        -1.0669  -11.0996   -0.0773 C.ar      1 <0>        -0.1066
     18 C15        -1.0329  -12.4487   -0.3765 C.ar      1 <0>        -0.1146
     19 C16        -1.1847  -13.3840    0.6300 C.ar      1 <0>        -0.1146
     20 C17        -1.3700  -12.9701    1.9359 C.ar      1 <0>        -0.1163
     21 C18        -1.3997  -11.6209    2.2357 C.ar      1 <0>        -0.1110
     22 N1          0.6129   -9.3801    3.0818 N.am      1 <0>        -0.5661
     23 C19         0.0205   -9.2864    4.2859 C.2       1 <0>         0.5775
     24 O4         -0.9870   -8.6548    4.5330 O.2       1 <0>        -0.4378
     25 C20         0.8010  -10.0806    5.2579 C.ar      1 <0>        -0.1358
     26 C21         0.6752  -10.3485    6.6116 C.ar      1 <0>        -0.0444
     27 C22         1.6076  -11.1580    7.2414 C.ar      1 <0>        -0.0928
     28 C23         2.6610  -11.6992    6.5285 C.ar      1 <0>        -0.0949
     29 C24         2.7996  -11.4399    5.1739 C.ar      1 <0>        -0.0424
     30 C25         1.8751  -10.6324    4.5310 C.ar      1 <0>        -0.1386
     31 C26         1.7082  -10.1588    3.1407 C.2       1 <0>         0.5790
     32 O5          2.4388  -10.4264    2.2082 O.2       1 <0>        -0.4548
     33 H1          1.0042    1.8801    0.0026 H         1 <0>         0.0781
     34 H2         -0.5455    1.8639   -0.8728 H         1 <0>         0.0721
     35 H3         -0.5286    1.8543    0.9071 H         1 <0>         0.0720
     36 H4         -0.0062   -0.1366   -2.1323 H         1 <0>         0.1325
     37 H5          0.0259   -2.5951   -2.1591 H         1 <0>         0.1370
     38 H6          0.0473   -2.6184    2.1344 H         1 <0>         0.1323
     39 H7          0.0248   -0.1596    2.1346 H         1 <0>         0.1321
     40 H8          0.9641   -4.7342    1.8480 H         1 <0>         0.1066
     41 H9         -0.8157   -4.7572    1.8571 H         1 <0>         0.1086
     42 H10         0.7853   -8.9694    1.0322 H         1 <0>         0.1466
     43 H11        -1.9296   -9.0511    2.4220 H         1 <0>         0.0993
     44 H12        -1.6864   -8.6635    0.7019 H         1 <0>         0.1085
     45 H13        -0.9484  -10.3689   -0.8637 H         1 <0>         0.1273
     46 H14        -0.8881  -12.7721   -1.3968 H         1 <0>         0.1257
     47 H15        -1.1588  -14.4380    0.3962 H         1 <0>         0.1239
     48 H16        -1.4889  -13.7007    2.7222 H         1 <0>         0.1230
     49 H17        -1.5408  -11.2976    3.2565 H         1 <0>         0.1135
     50 H18        -0.1456   -9.9281    7.1736 H         1 <0>         0.1435
     51 H19         1.5106  -11.3671    8.2965 H         1 <0>         0.1442
     52 H20         3.3813  -12.3282    7.0305 H         1 <0>         0.1443
     53 H21         3.6248  -11.8651    4.6221 H         1 <0>         0.1434
@<TRIPOS>BOND
     1    1    2 1
     2    1   33 1
     3    1   34 1
     4    1   35 1
     5    2    7 ar
     6    2    3 ar
     7    3    4 ar
     8    3   36 1
     9    4    5 ar
    10    4   37 1
    11    5    6 ar
    12    5    8 1
    13    6    7 ar
    14    6   38 1
    15    7   39 1
    16    8    9 2
    17    8   10 1
    18   10   11 1
    19   10   40 1
    20   10   41 1
    21   11   12 1
    22   12   13 2
    23   12   14 1
    24   14   15 1
    25   14   22 1
    26   14   42 1
    27   15   16 1
    28   15   43 1
    29   15   44 1
    30   16   21 ar
    31   16   17 ar
    32   17   18 ar
    33   17   45 1
    34   18   19 ar
    35   18   46 1
    36   19   20 ar
    37   19   47 1
    38   20   21 ar
    39   20   48 1
    40   21   49 1
    41   22   31 am
    42   22   23 am
    43   23   24 2
    44   23   25 1
    45   25   30 ar
    46   25   26 ar
    47   26   27 ar
    48   26   50 1
    49   27   28 ar
    50   27   51 1
    51   28   29 ar
    52   28   52 1
    53   29   30 ar
    54   29   53 1
    55   30   31 1
    56   31   32 2
@<TRIPOS>MOLECULE
CHEMBL403586__1
   53    56     0     0     0
SMALL
USER_CHARGES

@<TRIPOS>ATOM
      1 C1         -0.0184    1.5028    0.0103 C.3       1 <0>        -0.1240
      2 C2          0.0021   -0.0041    0.0020 C.ar      1 <0>        -0.0475
      3 C3          0.0056   -0.6858   -1.2025 C.ar      1 <0>        -0.1326
      4 C4          0.0238   -2.0645   -1.2184 C.ar      1 <0>        -0.0501
      5 C5          0.0392   -2.7739   -0.0132 C.ar      1 <0>        -0.1754
      6 C6          0.0359   -2.0776    1.1997 C.ar      1 <0>        -0.0699
      7 C7          0.0229   -0.6988    1.1989 C.ar      1 <0>        -0.1322
      8 C8          0.0582   -4.2454   -0.0213 C.2       1 <0>         0.4000
      9 O1          0.0605   -4.8459   -1.0747 O.2       1 <0>        -0.4246
     10 C9          0.0747   -5.0059    1.2796 C.3       1 <0>         0.0198
     11 O2          0.0914   -6.4093    1.0108 O.3       1 <0>        -0.3267
     12 C10         0.1075   -7.2327    2.0707 C.2       1 <0>         0.4537
     13 O3          0.1073   -6.7770    3.1898 O.2       1 <0>        -0.4737
     14 C11         0.1257   -8.7255    1.8651 C.3       1 <0>         0.1642
     15 C12         1.5506   -9.1781    1.5401 C.3       1 <0>        -0.0898
     16 C13         1.5483  -10.6494    1.2141 C.ar      1 <0>        -0.0911
     17 C14         1.7236  -11.5806    2.2205 C.ar      1 <0>        -0.1108
     18 C15         1.7214  -12.9303    1.9215 C.ar      1 <0>        -0.1164
     19 C16         1.5435  -13.3487    0.6161 C.ar      1 <0>        -0.1146
     20 C17         1.3672  -12.4175   -0.3902 C.ar      1 <0>        -0.1147
     21 C18         1.3651  -11.0680   -0.0906 C.ar      1 <0>        -0.1066
     22 N1         -0.3318   -9.3923    3.0866 N.am      1 <0>        -0.5662
     23 C19         0.2635   -9.2739    4.2871 C.2       1 <0>         0.5772
     24 O4          1.2506   -8.6081    4.5263 O.2       1 <0>        -0.4372
     25 C20        -0.4849  -10.0899    5.2664 C.ar      1 <0>        -0.1358
     26 C21        -0.3430  -10.3480    6.6204 C.ar      1 <0>        -0.0445
     27 C22        -1.2444  -11.1857    7.2584 C.ar      1 <0>        -0.0928
     28 C23        -2.2829  -11.7646    6.5534 C.ar      1 <0>        -0.0949
     29 C24        -2.4373  -11.5156    5.1986 C.ar      1 <0>        -0.0424
     30 C25        -1.5438  -10.6803    4.5475 C.ar      1 <0>        -0.1386
     31 C26        -1.4060  -10.1991    3.1567 C.2       1 <0>         0.5790
     32 O5         -2.1388  -10.4857    2.2316 O.2       1 <0>        -0.4548
     33 H1          1.0042    1.8801    0.0026 H         1 <0>         0.0782
     34 H2         -0.5455    1.8639   -0.8728 H         1 <0>         0.0720
     35 H3         -0.5286    1.8543    0.9071 H         1 <0>         0.0719
     36 H4         -0.0062   -0.1366   -2.1323 H         1 <0>         0.1325
     37 H5          0.0259   -2.5951   -2.1591 H         1 <0>         0.1370
     38 H6          0.0473   -2.6184    2.1344 H         1 <0>         0.1323
     39 H7          0.0248   -0.1596    2.1346 H         1 <0>         0.1322
     40 H8          0.9641   -4.7342    1.8480 H         1 <0>         0.1086
     41 H9         -0.8157   -4.7572    1.8571 H         1 <0>         0.1066
     42 H10        -0.5357   -8.9865    1.0390 H         1 <0>         0.1466
     43 H11         1.9237   -8.6168    0.6834 H         1 <0>         0.1085
     44 H12         2.1944   -8.9977    2.4009 H         1 <0>         0.0990
     45 H13         1.8627  -11.2537    3.2404 H         1 <0>         0.1134
     46 H14         1.8591  -13.6578    2.7078 H         1 <0>         0.1230
     47 H15         1.5425  -14.4031    0.3824 H         1 <0>         0.1238
     48 H16         1.2285  -12.7444   -1.4102 H         1 <0>         0.1257
     49 H17         1.2237  -10.3406   -0.8763 H         1 <0>         0.1273
     50 H18         0.4667   -9.8987    7.1762 H         1 <0>         0.1435
     51 H19        -1.1344  -11.3877    8.3137 H         1 <0>         0.1442
     52 H20        -2.9787  -12.4159    7.0616 H         1 <0>         0.1443
     53 H21        -3.2503  -11.9710    4.6527 H         1 <0>         0.1434
@<TRIPOS>BOND
     1    1    2 1
     2    1   33 1
     3    1   34 1
     4    1   35 1
     5    2    7 ar
     6    2    3 ar
     7    3    4 ar
     8    3   36 1
     9    4    5 ar
    10    4   37 1
    11    5    6 ar
    12    5    8 1
    13    6    7 ar
    14    6   38 1
    15    7   39 1
    16    8    9 2
    17    8   10 1
    18   10   11 1
    19   10   40 1
    20   10   41 1
    21   11   12 1
    22   12   13 2
    23   12   14 1
    24   14   15 1
    25   14   22 1
    26   14   42 1
    27   15   16 1
    28   15   43 1
    29   15   44 1
    30   16   21 ar
    31   16   17 ar
    32   17   18 ar
    33   17   45 1
    34   18   19 ar
    35   18   46 1
    36   19   20 ar
    37   19   47 1
    38   20   21 ar
    39   20   48 1
    40   21   49 1
    41   22   31 am
    42   22   23 am
    43   23   24 2
    44   23   25 1
    45   25   30 ar
    46   25   26 ar
    47   26   27 ar
    48   26   50 1
    49   27   28 ar
    50   27   51 1
    51   28   29 ar
    52   28   52 1
    53   29   30 ar
    54   29   53 1
    55   30   31 1
    56   31   32 2
@<TRIPOS>MOLECULE
CHEMBL256571
   50    53     0     0     0
SMALL
USER_CHARGES

@<TRIPOS>ATOM
      1 C1         -0.0570    1.3019    0.0744 C.ar      1 <0>        -0.1171
      2 C2          0.2496    0.3538    1.0326 C.ar      1 <0>        -0.1163
      3 C3          1.4690   -0.2964    0.9963 C.ar      1 <0>        -0.1054
      4 C4          2.3815    0.0010    0.0015 C.ar      1 <0>        -0.0748
      5 C5          2.0746    0.9484   -0.9573 C.ar      1 <0>        -0.1228
      6 C6          0.8558    1.5997   -0.9201 C.ar      1 <0>        -0.1206
      7 C7          3.7112   -0.7071   -0.0376 C.3       1 <0>         0.0767
      8 C8          4.4232   -0.3831   -1.3525 C.3       1 <0>        -0.1126
      9 C9          3.5618   -0.8503   -2.5275 C.3       1 <0>        -0.1308
     10 C10         3.3384   -2.3606   -2.4272 C.3       1 <0>        -0.1194
     11 C11         2.6264   -2.6846   -1.1123 C.3       1 <0>        -0.1199
     12 C12         3.4878   -2.2174    0.0627 C.3       1 <0>        -0.0936
     13 C13         4.5596   -0.2469    1.1198 C.2       1 <0>         0.1721
     14 N1          5.0969   -1.0072    2.0315 N.2       1 <0>        -0.2819
     15 N2          5.7926   -0.2869    2.8368 N.2       1 <0>        -0.2979
     16 C14         5.7410    0.9608    2.4558 C.2       1 <0>         0.1913
     17 N3          4.9104    1.0420    1.4011 N.pl3     1 <0>        -0.4560
     18 C15         4.3488    2.1876    0.6792 C.3       1 <0>         0.1020
     19 C16         4.8092    3.5192    1.2732 C.3       1 <0>        -0.1425
     20 C17         6.2171    3.8647    0.8147 C.3       1 <0>        -0.1246
     21 C18         7.1276    2.6558    0.7277 C.3       1 <0>        -0.1373
     22 C19         7.6964    2.4171    2.1304 C.3       1 <0>        -0.1164
     23 C20         6.5172    2.0975    3.0780 C.3       1 <0>        -0.0473
     24 H1         -1.0114    1.8067    0.1002 H         1 <0>         0.1226
     25 H2         -0.4633    0.1215    1.8099 H         1 <0>         0.1230
     26 H3          1.7088   -1.0365    1.7453 H         1 <0>         0.1223
     27 H4          2.7877    1.1810   -1.7343 H         1 <0>         0.1322
     28 H5          0.6161    2.3401   -1.6689 H         1 <0>         0.1241
     29 H6          4.5823    0.6929   -1.4239 H         1 <0>         0.0639
     30 H7          5.3849   -0.8953   -1.3807 H         1 <0>         0.0737
     31 H8          2.6001   -0.3381   -2.4992 H         1 <0>         0.0793
     32 H9          4.0691   -0.6194   -3.4642 H         1 <0>         0.0668
     33 H10         2.7248   -2.6934   -3.2643 H         1 <0>         0.0639
     34 H11         4.3002   -2.8728   -2.4555 H         1 <0>         0.0630
     35 H12         1.6647   -2.1724   -1.0841 H         1 <0>         0.0651
     36 H13         2.4673   -3.7606   -1.0409 H         1 <0>         0.0675
     37 H14         4.4495   -2.7296    0.0344 H         1 <0>         0.0768
     38 H15         2.9805   -2.4483    0.9994 H         1 <0>         0.0728
     39 H16         4.6617    2.1376   -0.3637 H         1 <0>         0.0900
     40 H17         3.2610    2.1365    0.7243 H         1 <0>         0.0962
     41 H18         4.1263    4.3074    0.9564 H         1 <0>         0.0899
     42 H19         4.7941    3.4499    2.3609 H         1 <0>         0.0830
     43 H20         6.1607    4.3326   -0.1681 H         1 <0>         0.0639
     44 H21         6.6487    4.5789    1.5160 H         1 <0>         0.0725
     45 H22         6.5581    1.7844    0.4046 H         1 <0>         0.0687
     46 H23         7.9387    2.8515    0.0264 H         1 <0>         0.0707
     47 H24         8.3915    1.5778    2.1078 H         1 <0>         0.0700
     48 H25         8.2116    3.3133    2.4760 H         1 <0>         0.0790
     49 H26         5.8728    2.9697    3.1880 H         1 <0>         0.0949
     50 H27         6.9015    1.7944    4.0519 H         1 <0>         0.0990
@<TRIPOS>BOND
     1    1    6 ar
     2    1    2 ar
     3    1   24 1
     4    2    3 ar
     5    2   25 1
     6    3    4 ar
     7    3   26 1
     8    4    5 ar
     9    4    7 1
    10    5    6 ar
    11    5   27 1
    12    6   28 1
    13    7   12 1
    14    7    8 1
    15    7   13 1
    16    8    9 1
    17    8   29 1
    18    8   30 1
    19    9   10 1
    20    9   31 1
    21    9   32 1
    22   10   11 1
    23   10   33 1
    24   10   34 1
    25   11   12 1
    26   11   35 1
    27   11   36 1
    28   12   37 1
    29   12   38 1
    30   13   17 1
    31   13   14 2
    32   14   15 1
    33   15   16 2
    34   16   23 1
    35   16   17 1
    36   17   18 1
    37   18   19 1
    38   18   39 1
    39   18   40 1
    40   19   20 1
    41   19   41 1
    42   19   42 1
    43   20   21 1
    44   20   43 1
    45   20   44 1
    46   21   22 1
    47   21   45 1
    48   21   46 1
    49   22   23 1
    50   22   47 1
    51   22   48 1
    52   23   49 1
    53   23   50 1
@<TRIPOS>MOLECULE
CHEMBL562937
   63    67     0     0     0
SMALL
USER_CHARGES

@<TRIPOS>ATOM
      1 C1          0.1921    1.3448    0.2855 C.3       1 <0>        -0.1188
      2 C2          1.6147    1.9033    0.2136 C.3       1 <0>        -0.1171
      3 C3          2.2404    1.5332   -1.1326 C.3       1 <0>        -0.1236
      4 C4          2.2826    0.0104   -1.2740 C.3       1 <0>        -0.0121
      5 C5          0.8600   -0.5481   -1.2021 C.3       1 <0>        -0.1312
      6 C6          0.2343   -0.1781    0.1441 C.3       1 <0>        -0.1161
      7 C7          2.9084   -0.3597   -2.6203 C.3       1 <0>        -0.1461
      8 C8          2.0514    0.1779   -3.7373 C.2       1 <0>         0.5229
      9 O1          1.1014    0.8882   -3.4847 O.2       1 <0>        -0.5282
     10 N1          2.3407   -0.1307   -5.0169 N.am      1 <0>        -0.7067
     11 C9          1.5076    0.3919   -6.1028 C.3       1 <0>         0.0797
     12 C10         1.1223   -0.5739   -7.2251 C.3       1 <0>        -0.1939
     13 C11         2.1513    0.5283   -7.4841 C.3       1 <0>        -0.1905
     14 C12         3.1217   -0.5840   -0.1410 C.3       1 <0>        -0.1405
     15 C13         3.2149   -2.0780   -0.3154 C.2       1 <0>         0.5145
     16 O2          2.5765   -2.6276   -1.1879 O.2       1 <0>        -0.5302
     17 N2          4.0076   -2.8032    0.4982 N.am      1 <0>        -0.7261
     18 C14         4.0982   -4.2556    0.3287 C.3       1 <0>         0.1586
     19 C15         2.9525   -4.9299    1.0861 C.3       1 <0>        -0.0943
     20 C16         3.0501   -4.5829    2.5730 C.3       1 <0>        -0.1062
     21 C17         4.3880   -5.0783    3.1256 C.3       1 <0>        -0.0872
     22 C18         4.4826   -6.5951    2.9486 C.3       1 <0>        -0.1084
     23 C19         4.3850   -6.9421    1.4616 C.3       1 <0>        -0.0884
     24 C20         3.0471   -6.4466    0.9090 C.3       1 <0>        -0.1068
     25 C21         5.5308   -6.2678    0.7043 C.3       1 <0>        -0.1054
     26 C22         5.4361   -4.7510    0.8813 C.3       1 <0>        -0.0929
     27 C23         5.5337   -4.4040    2.3683 C.3       1 <0>        -0.1090
     28 H1         -0.2537    1.6084    1.2446 H         1 <0>         0.0547
     29 H2         -0.4057    1.7682   -0.5216 H         1 <0>         0.0640
     30 H3          1.5846    2.9882    0.3144 H         1 <0>         0.0587
     31 H4          2.2125    1.4799    1.0208 H         1 <0>         0.0561
     32 H5          1.6427    1.9566   -1.9398 H         1 <0>         0.0971
     33 H6          3.2539    1.9311   -1.1838 H         1 <0>         0.0519
     34 H7          0.2622   -0.1247   -2.0093 H         1 <0>         0.0853
     35 H8          0.8901   -1.6330   -1.3029 H         1 <0>         0.0835
     36 H9          0.8320   -0.6015    0.9513 H         1 <0>         0.0521
     37 H10        -0.7792   -0.5759    0.1953 H         1 <0>         0.0566
     38 H11         3.9067    0.0726   -2.6880 H         1 <0>         0.0861
     39 H12         2.9757   -1.4444   -2.7038 H         1 <0>         0.1178
     40 H13         3.1005   -0.6988   -5.2190 H         1 <0>         0.4004
     41 H14         0.7748    1.1447   -5.8125 H         1 <0>         0.1376
     42 H15         1.4886   -1.5982   -7.1556 H         1 <0>         0.0966
     43 H16         0.1357   -0.4568   -7.6733 H         1 <0>         0.1021
     44 H17         1.8416    1.3707   -8.1026 H         1 <0>         0.1033
     45 H18         3.1946    0.2293   -7.5849 H         1 <0>         0.0964
     46 H19         4.1223   -0.1523   -0.1649 H         1 <0>         0.0894
     47 H20         2.6515   -0.3585    0.8161 H         1 <0>         0.1037
     48 H21         4.5182   -2.3636    1.1960 H         1 <0>         0.3979
     49 H22         4.0287   -4.5028   -0.7306 H         1 <0>         0.0870
     50 H23         1.9993   -4.5769    0.6924 H         1 <0>         0.0745
     51 H24         2.9827   -3.5023    2.6991 H         1 <0>         0.0602
     52 H25         2.2339   -5.0632    3.1125 H         1 <0>         0.0620
     53 H26         4.4575   -4.8311    4.1849 H         1 <0>         0.0701
     54 H27         5.4358   -6.9481    3.3422 H         1 <0>         0.0621
     55 H28         3.6664   -7.0755    3.4881 H         1 <0>         0.0624
     56 H29         4.4524   -8.0227    1.3355 H         1 <0>         0.0718
     57 H30         2.2309   -6.9270    1.4486 H         1 <0>         0.0651
     58 H31         2.9776   -6.6938   -0.1503 H         1 <0>         0.0638
     59 H32         6.4839   -6.6208    1.0980 H         1 <0>         0.0677
     60 H33         5.4612   -6.5150   -0.3550 H         1 <0>         0.0648
     61 H34         6.2524   -4.2707    0.3418 H         1 <0>         0.0751
     62 H35         5.4663   -3.3235    2.4944 H         1 <0>         0.0589
     63 H36         6.4869   -4.7570    2.7619 H         1 <0>         0.0670
@<TRIPOS>BOND
     1    1    6 1
     2    1    2 1
     3    1   28 1
     4    1   29 1
     5    2    3 1
     6    2   30 1
     7    2   31 1
     8    3    4 1
     9    3   32 1
    10    3   33 1
    11    4    5 1
    12    4    7 1
    13    4   14 1
    14    5    6 1
    15    5   34 1
    16    5   35 1
    17    6   36 1
    18    6   37 1
    19    7    8 1
    20    7   38 1
    21    7   39 1
    22    8    9 2
    23    8   10 am
    24   10   11 1
    25   10   40 1
    26   11   13 1
    27   11   12 1
    28   11   41 1
    29   12   13 1
    30   12   42 1
    31   12   43 1
    32   13   44 1
    33   13   45 1
    34   14   15 1
    35   14   46 1
    36   14   47 1
    37   15   16 2
    38   15   17 am
    39   17   18 1
    40   17   48 1
    41   18   26 1
    42   18   19 1
    43   18   49 1
    44   19   24 1
    45   19   20 1
    46   19   50 1
    47   20   21 1
    48   20   51 1
    49   20   52 1
    50   21   27 1
    51   21   22 1
    52   21   53 1
    53   22   23 1
    54   22   54 1
    55   22   55 1
    56   23   24 1
    57   23   25 1
    58   23   56 1
    59   24   57 1
    60   24   58 1
    61   25   26 1
    62   25   59 1
    63   25   60 1
    64   26   27 1
    65   26   61 1
    66   27   62 1
    67   27   63 1
@<TRIPOS>MOLECULE
CHEMBL246471
   66    70     0     0     0
SMALL
USER_CHARGES

@<TRIPOS>ATOM
      1 C1          0.4531    1.4737    0.0515 C.3       1 <0>        -0.1378
      2 C2          0.2392   -0.0413    0.0486 C.3       1 <0>         0.0973
      3 C3          1.2624   -0.7026    0.9742 C.3       1 <0>        -0.1965
      4 C4         -1.1529   -0.3530    0.5345 C.2       1 <0>         0.4905
      5 O1         -1.9278   -0.9464   -0.1854 O.2       1 <0>        -0.5100
      6 N1         -1.5367    0.0278    1.7691 N.am      1 <0>        -0.7176
      7 C5         -2.8900   -0.2752    2.2414 C.3       1 <0>         0.1559
      8 C6         -3.8523    0.8150    1.7656 C.3       1 <0>        -0.0922
      9 C7         -3.4076    2.1677    2.3254 C.3       1 <0>        -0.1085
     10 C8         -3.4139    2.1137    3.8545 C.3       1 <0>        -0.0841
     11 C9         -2.4517    1.0235    4.3303 C.3       1 <0>        -0.1116
     12 C10        -2.8963   -0.3291    3.7705 C.3       1 <0>        -0.0929
     13 C11        -4.3097   -0.6455    4.2638 C.3       1 <0>        -0.0844
     14 C12        -5.2719    0.4447    3.7879 C.3       1 <0>        -0.0699
     15 C13        -4.8272    1.7973    4.3478 C.3       1 <0>        -0.0997
     16 C14        -5.2656    0.4986    2.2589 C.3       1 <0>        -0.0980
     17 C15        -6.6640    0.1330    4.2738 C.2       1 <0>         0.5251
     18 O2         -6.8665   -0.8630    4.9355 O.2       1 <0>        -0.5318
     19 N2         -7.6839    0.9611    3.9729 N.am      1 <0>        -0.7258
     20 C16        -9.0372    0.6582    4.4453 C.3       1 <0>         0.1590
     21 C17        -9.9850    1.7319    3.9766 C.ar      1 <0>        -0.0654
     22 C18       -10.2180    2.8595    4.7490 C.ar      1 <0>        -0.1555
     23 C19       -11.0939    3.8233    4.2867 C.ar      1 <0>         0.0999
     24 N3        -11.7044    3.6793    3.1267 N.ar      1 <0>        -0.4791
     25 C20       -11.5069    2.6204    2.3659 C.ar      1 <0>         0.1005
     26 C21       -10.6403    1.6185    2.7600 C.ar      1 <0>        -0.1551
     27 O3          0.4037   -0.5431   -1.2792 O.3       1 <0>        -0.2824
     28 C22         0.2659   -1.8840   -1.4536 C.ar      1 <0>         0.1442
     29 C23        -0.1468   -2.6830   -0.3973 C.ar      1 <0>        -0.1713
     30 C24        -0.2863   -4.0456   -0.5765 C.ar      1 <0>        -0.0762
     31 C25        -0.0141   -4.6137   -1.8084 C.ar      1 <0>        -0.0696
     32 C26         0.3982   -3.8186   -2.8631 C.ar      1 <0>        -0.0743
     33 C27         0.5324   -2.4547   -2.6896 C.ar      1 <0>        -0.1387
     34 Cl1        -0.1895   -6.3265   -2.0310 Cl        1 <0>        -0.0726
     35 H1          1.4853    1.6954   -0.2197 H         1 <0>         0.0834
     36 H2         -0.2197    1.9369   -0.6702 H         1 <0>         0.0760
     37 H3          0.2461    1.8680    1.0463 H         1 <0>         0.0822
     38 H4          1.0094   -0.4829    2.0114 H         1 <0>         0.0781
     39 H5          1.2501   -1.7812    0.8178 H         1 <0>         0.0855
     40 H6          2.2567   -0.3147    0.7528 H         1 <0>         0.0847
     41 H7         -0.9170    0.5024    2.3449 H         1 <0>         0.3996
     42 H8         -3.2068   -1.2388    1.8426 H         1 <0>         0.0916
     43 H9         -3.8477    0.8534    0.6763 H         1 <0>         0.0814
     44 H10        -2.4007    2.3931    1.9740 H         1 <0>         0.0651
     45 H11        -4.0931    2.9443    1.9864 H         1 <0>         0.0662
     46 H12        -3.0971    3.0774    4.2533 H         1 <0>         0.0786
     47 H13        -1.4448    1.2490    3.9789 H         1 <0>         0.0620
     48 H14        -2.4562    0.9851    5.4197 H         1 <0>         0.0722
     49 H15        -2.2108   -1.1058    4.1095 H         1 <0>         0.0835
     50 H16        -4.6265   -1.6092    3.8649 H         1 <0>         0.0746
     51 H17        -4.3142   -0.6839    5.3531 H         1 <0>         0.0784
     52 H18        -4.8318    1.7589    5.4371 H         1 <0>         0.0709
     53 H19        -5.5128    2.5740    4.0088 H         1 <0>         0.0673
     54 H20        -5.9511    1.2753    1.9198 H         1 <0>         0.0705
     55 H21        -5.5824   -0.4651    1.8600 H         1 <0>         0.0722
     56 H22        -7.5219    1.7577    3.4437 H         1 <0>         0.4016
     57 H23        -9.3540   -0.3055    4.0464 H         1 <0>         0.0821
     58 H24        -9.0417    0.6197    5.5346 H         1 <0>         0.0821
     59 H25        -9.7216    2.9829    5.7002 H         1 <0>         0.1374
     60 H26       -11.2809    4.7046    4.8824 H         1 <0>         0.1590
     61 H27       -12.0252    2.5372    1.4221 H         1 <0>         0.1592
     62 H28       -10.4789    0.7561    2.1303 H         1 <0>         0.1377
     63 H29        -0.3587   -2.2400    0.5646 H         1 <0>         0.1338
     64 H30        -0.6076   -4.6679    0.2456 H         1 <0>         0.1326
     65 H31         0.6105   -4.2639   -3.8238 H         1 <0>         0.1398
     66 H32         0.8496   -1.8337   -3.5144 H         1 <0>         0.1396
@<TRIPOS>BOND
     1    1    2 1
     2    1   35 1
     3    1   36 1
     4    1   37 1
     5    2    3 1
     6    2    4 1
     7    2   27 1
     8    3   38 1
     9    3   39 1
    10    3   40 1
    11    4    5 2
    12    4    6 am
    13    6    7 1
    14    6   41 1
    15    7   12 1
    16    7    8 1
    17    7   42 1
    18    8   16 1
    19    8    9 1
    20    8   43 1
    21    9   10 1
    22    9   44 1
    23    9   45 1
    24   10   15 1
    25   10   11 1
    26   10   46 1
    27   11   12 1
    28   11   47 1
    29   11   48 1
    30   12   13 1
    31   12   49 1
    32   13   14 1
    33   13   50 1
    34   13   51 1
    35   14   15 1
    36   14   16 1
    37   14   17 1
    38   15   52 1
    39   15   53 1
    40   16   54 1
    41   16   55 1
    42   17   18 2
    43   17   19 am
    44   19   20 1
    45   19   56 1
    46   20   21 1
    47   20   57 1
    48   20   58 1
    49   21   26 ar
    50   21   22 ar
    51   22   23 ar
    52   22   59 1
    53   23   24 ar
    54   23   60 1
    55   24   25 ar
    56   25   26 ar
    57   25   61 1
    58   26   62 1
    59   27   28 1
    60   28   33 ar
    61   28   29 ar
    62   29   30 ar
    63   29   63 1
    64   30   31 ar
    65   30   64 1
    66   31   32 ar
    67   31   34 1
    68   32   33 ar
    69   32   65 1
    70   33   66 1
@<TRIPOS>MOLECULE
CHEMBL1085107
   40    42     0     0     0
SMALL
USER_CHARGES

@<TRIPOS>ATOM
      1 C1         -0.0187    1.5258    0.0104 C.3       1 <0>        -0.1604
      2 C2          0.0021   -0.0041    0.0020 C.3       1 <0>        -0.0579
      3 C3          0.7421   -0.5109    1.2415 C.3       1 <0>        -0.1516
      4 C4         -1.4333   -0.5336    0.0129 C.3       1 <0>        -0.0942
      5 C5         -2.2902    0.2000    1.0385 C.2       1 <0>         0.5497
      6 O1         -2.0722    0.1813    2.2342 O.2       1 <0>        -0.4597
      7 N1         -3.2856    0.8524    0.4937 N.2       1 <0>        -0.6911
      8 C6         -3.5328    0.8808   -0.8029 C.2       1 <0>         0.4794
      9 S1         -2.3361   -0.0613   -1.5194 S.3       1 <0>        -0.1085
     10 N2         -4.5489    1.5379   -1.4322 N.pl3     1 <0>        -0.6359
     11 C7         -5.5110    2.3190   -0.6508 C.3       1 <0>         0.1407
     12 H1         -5.6883    1.8457    0.3150 H         1 <0>         0.1051
     13 C8         -4.9999    3.7649   -0.4566 C.3       1 <0>        -0.1289
     14 C9         -6.0773    4.6593   -1.1426 C.3       1 <0>        -0.1022
     15 H2         -5.7580    5.6650   -1.4159 H         1 <0>         0.1021
     16 C10        -7.3164    4.5700   -0.2003 C.3       1 <0>        -0.1251
     17 C11        -7.8379    3.1255   -0.3762 C.3       1 <0>        -0.1169
     18 C12        -6.8501    2.4732   -1.4345 C.3       1 <0>        -0.1121
     19 H3         -7.2065    1.5809   -1.9491 H         1 <0>         0.1084
     20 C13        -6.5186    3.7263   -2.3251 C.3       1 <0>        -0.1267
     21 C14        -1.4643   -2.0469    0.2363 C.3       1 <0>        -0.1220
     22 H4          1.0039    1.9031    0.0027 H         1 <0>         0.0694
     23 H5         -0.5459    1.8868   -0.8726 H         1 <0>         0.0593
     24 H6         -0.5289    1.8773    0.9072 H         1 <0>         0.0585
     25 H7          0.5123   -0.3556   -0.8948 H         1 <0>         0.0877
     26 H8          0.7568   -1.6008    1.2356 H         1 <0>         0.0630
     27 H9          1.7647   -0.1336    1.2338 H         1 <0>         0.0644
     28 H10         0.2319   -0.1594    2.1383 H         1 <0>         0.0731
     29 H11        -4.6346    1.4880   -2.3971 H         1 <0>         0.4233
     30 H12        -4.9279    4.0031    0.6046 H         1 <0>         0.0790
     31 H13        -4.0329    3.8946   -0.9425 H         1 <0>         0.0699
     32 H14        -7.0203    4.7437    0.8343 H         1 <0>         0.0690
     33 H15        -8.0775    5.2885   -0.5043 H         1 <0>         0.0673
     34 H16        -7.7982    2.5891    0.5719 H         1 <0>         0.0704
     35 H17        -8.8555    3.1339   -0.7668 H         1 <0>         0.0723
     36 H18        -7.4013    4.1073   -2.8388 H         1 <0>         0.0777
     37 H19        -5.7007    3.5303   -3.0183 H         1 <0>         0.0689
     38 H20        -1.0001   -2.2824    1.1940 H         1 <0>         0.0904
     39 H21        -2.4980   -2.3927    0.2388 H         1 <0>         0.0670
     40 H22        -0.9169   -2.5438   -0.5647 H         1 <0>         0.0769
@<TRIPOS>BOND
     1    1    2 1
     2    1   22 1
     3    1   23 1
     4    1   24 1
     5    2    3 1
     6    2    4 1
     7    2   25 1
     8    3   26 1
     9    3   27 1
    10    3   28 1
    11    4    9 1
    12    4    5 1
    13    4   21 1
    14    5    6 2
    15    5    7 1
    16    7    8 2
    17    8    9 1
    18    8   10 1
    19   10   11 1
    20   10   29 1
    21   11   12 1
    22   11   18 1
    23   11   13 1
    24   13   14 1
    25   13   30 1
    26   13   31 1
    27   14   15 1
    28   14   20 1
    29   14   16 1
    30   16   17 1
    31   16   32 1
    32   16   33 1
    33   17   18 1
    34   17   34 1
    35   17   35 1
    36   18   19 1
    37   18   20 1
    38   20   36 1
    39   20   37 1
    40   21   38 1
    41   21   39 1
    42   21   40 1
@<TRIPOS>MOLECULE
CHEMBL200365
   59    64     0     0     0
SMALL
USER_CHARGES

@<TRIPOS>ATOM
      1 C1          1.5008   -1.3814   -4.0794 C.3       1 <0>        -0.1318
      2 C2          1.1675   -1.7065   -5.5239 C.3       1 <0>        -0.1228
      3 C3         -0.2129   -1.1978   -5.9180 C.3       1 <0>        -0.1540
      4 C4         -0.2776    0.3156   -5.7223 C.3       1 <0>         0.0953
      5 N1         -0.5549    0.6577   -4.3246 N.pl3     1 <0>        -0.4592
      6 C5         -0.7520   -0.1161   -3.2410 C.2       1 <0>         0.1945
      7 N2         -0.9035    0.6752   -2.2089 N.2       1 <0>        -0.2978
      8 N3         -0.8466    1.8992   -2.5932 N.2       1 <0>        -0.2796
      9 C6         -0.6448    1.9436   -3.8794 C.2       1 <0>         0.1695
     10 C7         -0.5315    3.1882   -4.7215 C.3       1 <0>         0.0335
     11 C8         -0.7078    4.4221   -3.8341 C.3       1 <0>        -0.0917
     12 C9         -0.5927    5.6857   -4.6890 C.3       1 <0>        -0.1154
     13 C10        -0.3397    5.2943   -6.1463 C.3       1 <0>         0.0309
     14 C11        -1.5025    4.4392   -6.6540 C.3       1 <0>        -0.1000
     15 C12        -1.6175    3.1756   -5.7991 C.3       1 <0>        -0.1108
     16 C13         0.9610    4.4943   -6.2410 C.3       1 <0>        -0.1002
     17 C14         0.8460    3.2306   -5.3861 C.3       1 <0>        -0.1114
     18 C15        -0.2263    6.5390   -6.9883 C.2       1 <0>         0.3022
     19 N4         -0.0167    6.5747   -8.2750 N.2       1 <0>        -0.5375
     20 C16         0.0277    7.8431   -8.6979 C.2       1 <0>         0.2576
     21 N5         -0.1542    8.6339   -7.6796 N.2       1 <0>        -0.3371
     22 O1         -0.3293    7.7982   -6.5451 O.3       1 <0>        -0.1012
     23 C17         0.2521    8.2848  -10.1212 C.3       1 <0>        -0.0059
     24 C18        -1.0952    8.4064  -10.8359 C.3       1 <0>        -0.1544
     25 C19        -1.5141    9.7952  -11.3223 C.3       1 <0>        -0.1762
     26 C20        -1.0750    8.7318  -12.3308 C.3       1 <0>        -0.1686
     27 C21        -0.8275   -1.6202   -3.1828 C.3       1 <0>        -0.0441
     28 C22         0.5809   -2.2156   -3.1890 C.3       1 <0>        -0.1178
     29 H1          2.5412   -1.6340   -3.8748 H         1 <0>         0.0706
     30 H2          1.3339   -0.3207   -3.8918 H         1 <0>         0.0650
     31 H3          1.9134   -1.2464   -6.1721 H         1 <0>         0.0633
     32 H4          1.1995   -2.7874   -5.6606 H         1 <0>         0.0720
     33 H5         -0.4025   -1.4368   -6.9645 H         1 <0>         0.0908
     34 H6         -0.9677   -1.6768   -5.2945 H         1 <0>         0.0937
     35 H7          0.6760    0.7549   -6.0152 H         1 <0>         0.0965
     36 H8         -1.0669    0.7241   -6.3535 H         1 <0>         0.0947
     37 H9         -1.6891    4.3919   -3.3606 H         1 <0>         0.0811
     38 H10         0.0659    4.4311   -3.0664 H         1 <0>         0.0815
     39 H11        -1.5194    6.2557   -4.6215 H         1 <0>         0.0794
     40 H12         0.2356    6.2949   -4.3273 H         1 <0>         0.0796
     41 H13        -2.4291    5.0092   -6.5865 H         1 <0>         0.0750
     42 H14        -1.3222    4.1604   -7.6921 H         1 <0>         0.0853
     43 H15        -1.4919    2.2966   -6.4312 H         1 <0>         0.0728
     44 H16        -2.5988    3.1454   -5.3256 H         1 <0>         0.0776
     45 H17         1.1413    4.2154   -7.2792 H         1 <0>         0.0852
     46 H18         1.7894    5.1035   -5.8793 H         1 <0>         0.0753
     47 H19         1.6197    3.2396   -4.6184 H         1 <0>         0.0775
     48 H20         0.9716    2.3516   -6.0182 H         1 <0>         0.0731
     49 H21         0.7548    9.2520  -10.1264 H         1 <0>         0.0966
     50 H22         0.8716    7.5505  -10.6361 H         1 <0>         0.1062
     51 H23        -1.8799    7.7408  -10.4763 H         1 <0>         0.1069
     52 H24        -2.5747   10.0437  -11.2825 H         1 <0>         0.0967
     53 H25        -0.8299   10.6223  -11.1330 H         1 <0>         0.0983
     54 H26        -0.1019    8.8592  -12.8050 H         1 <0>         0.0992
     55 H27        -1.8467    8.2806  -12.9546 H         1 <0>         0.0990
     56 H28        -1.3435   -1.9214   -2.2711 H         1 <0>         0.0997
     57 H29        -1.3797   -1.9883   -4.0475 H         1 <0>         0.0927
     58 H30         0.5398   -3.2367   -3.5680 H         1 <0>         0.0777
     59 H31         0.9736   -2.2252   -2.1722 H         1 <0>         0.0711
@<TRIPOS>BOND
     1    1   28 1
     2    1    2 1
     3    1   29 1
     4    1   30 1
     5    2    3 1
     6    2   31 1
     7    2   32 1
     8    3    4 1
     9    3   33 1
    10    3   34 1
    11    4    5 1
    12    4   35 1
    13    4   36 1
    14    5    9 1
    15    5    6 1
    16    6    7 2
    17    6   27 1
    18    7    8 1
    19    8    9 2
    20    9   10 1
    21   10   15 1
    22   10   17 1
    23   10   11 1
    24   11   12 1
    25   11   37 1
    26   11   38 1
    27   12   13 1
    28   12   39 1
    29   12   40 1
    30   13   14 1
    31   13   16 1
    32   13   18 1
    33   14   15 1
    34   14   41 1
    35   14   42 1
    36   15   43 1
    37   15   44 1
    38   16   17 1
    39   16   45 1
    40   16   46 1
    41   17   47 1
    42   17   48 1
    43   18   22 1
    44   18   19 2
    45   19   20 1
    46   20   21 2
    47   20   23 1
    48   21   22 1
    49   23   24 1
    50   23   49 1
    51   23   50 1
    52   24   26 1
    53   24   25 1
    54   24   51 1
    55   25   26 1
    56   25   52 1
    57   25   53 1
    58   26   54 1
    59   26   55 1
    60   27   28 1
    61   27   56 1
    62   27   57 1
    63   28   58 1
    64   28   59 1
@<TRIPOS>MOLECULE
CHEMBL221132
   54    58     0     0     0
SMALL
USER_CHARGES

@<TRIPOS>ATOM
      1 C1          6.1190    1.1811    6.0456 C.ar      1 <0>        -0.1204
      2 C2          6.7483    1.5901    4.8847 C.ar      1 <0>        -0.1222
      3 C3          6.2393    1.2178    3.6546 C.ar      1 <0>        -0.1145
      4 C4          5.1012    0.4361    3.5854 C.ar      1 <0>        -0.0884
      5 C5          4.4725    0.0263    4.7463 C.ar      1 <0>        -0.0930
      6 C6          4.9807    0.3998    5.9764 C.ar      1 <0>        -0.1165
      7 C7          4.5458    0.0311    2.2443 C.3       1 <0>        -0.0606
      8 C8          5.1735   -1.2955    1.8119 C.3       1 <0>        -0.1193
      9 C9          4.6422   -1.7182    0.4226 C.3       1 <0>        -0.1311
     10 C10         3.4617   -2.6388    0.8036 C.3       1 <0>         0.0970
     11 N1          3.7813   -3.1523    2.1408 N.am      1 <0>        -0.6127
     12 C11         4.7357   -2.4134    2.7323 C.2       1 <0>         0.5220
     13 O1          5.1814   -2.6140    3.8423 O.2       1 <0>        -0.5096
     14 C12         3.1422   -4.3201    2.7523 C.3       1 <0>         0.1709
     15 C13         1.7605   -4.5298    2.1296 C.3       1 <0>        -0.0903
     16 C14         0.8976   -3.2901    2.3735 C.3       1 <0>        -0.1133
     17 C15         0.7490   -3.0603    3.8788 C.3       1 <0>        -0.0846
     18 C16         2.1307   -2.8505    4.5015 C.3       1 <0>        -0.1032
     19 C17         2.9936   -4.0903    4.2576 C.3       1 <0>        -0.1037
     20 C18         2.3261   -5.3099    4.8963 C.3       1 <0>        -0.0856
     21 C19         0.9444   -5.5196    4.2736 C.3       1 <0>        -0.0736
     22 C20         0.0815   -4.2799    4.5175 C.3       1 <0>        -0.0991
     23 C21         1.0930   -5.7494    2.7682 C.3       1 <0>        -0.0968
     24 C22         0.2870   -6.7209    4.9026 C.2       1 <0>         0.5260
     25 O2          0.8665   -7.3476    5.7642 O.2       1 <0>        -0.5380
     26 N2         -0.9450   -7.0989    4.5078 N.am      1 <0>        -0.8554
     27 H1          6.5193    1.4682    7.0067 H         1 <0>         0.1189
     28 H2          7.6374    2.2008    4.9388 H         1 <0>         0.1197
     29 H3          6.7305    1.5379    2.7476 H         1 <0>         0.1190
     30 H4          3.5832   -0.5841    4.6922 H         1 <0>         0.1160
     31 H5          4.4893    0.0800    6.8833 H         1 <0>         0.1182
     32 H6          3.4646   -0.0859    2.3192 H         1 <0>         0.0734
     33 H7          4.7779    0.8001    1.5076 H         1 <0>         0.0852
     34 H8          6.2605   -1.2157    1.7987 H         1 <0>         0.1053
     35 H9          4.2956   -0.8528   -0.1423 H         1 <0>         0.0928
     36 H10         5.4011   -2.2674   -0.1347 H         1 <0>         0.0841
     37 H11         2.5326   -2.0693    0.8303 H         1 <0>         0.0759
     38 H12         3.3803   -3.4614    0.0931 H         1 <0>         0.0784
     39 H13         3.7569   -5.2033    2.5785 H         1 <0>         0.0705
     40 H14         1.8663   -4.6935    1.0571 H         1 <0>         0.0806
     41 H15         1.3731   -2.4212    1.9185 H         1 <0>         0.0720
     42 H16        -0.0867   -3.4395    1.9298 H         1 <0>         0.0660
     43 H17         0.1343   -2.1771    4.0526 H         1 <0>         0.0748
     44 H18         2.6062   -1.9817    4.0465 H         1 <0>         0.0638
     45 H19         2.0248   -2.6868    5.5740 H         1 <0>         0.0632
     46 H20         3.9779   -3.9408    4.7013 H         1 <0>         0.1099
     47 H21         2.9408   -6.1931    4.7225 H         1 <0>         0.0708
     48 H22         2.2202   -5.1462    5.9687 H         1 <0>         0.0751
     49 H23        -0.0243   -4.1162    5.5899 H         1 <0>         0.0694
     50 H24        -0.9028   -4.4293    4.0738 H         1 <0>         0.0666
     51 H25         0.1086   -5.8989    2.3246 H         1 <0>         0.0730
     52 H26         1.7077   -6.6326    2.5945 H         1 <0>         0.0716
     53 H27        -1.4085   -6.5976    3.8187 H         1 <0>         0.4001
     54 H28        -1.3682   -7.8721    4.9127 H         1 <0>         0.4016
@<TRIPOS>BOND
     1    1    6 ar
     2    1    2 ar
     3    1   27 1
     4    2    3 ar
     5    2   28 1
     6    3    4 ar
     7    3   29 1
     8    4    5 ar
     9    4    7 1
    10    5    6 ar
    11    5   30 1
    12    6   31 1
    13    7    8 1
    14    7   32 1
    15    7   33 1
    16    8   12 1
    17    8    9 1
    18    8   34 1
    19    9   10 1
    20    9   35 1
    21    9   36 1
    22   10   11 1
    23   10   37 1
    24   10   38 1
    25   11   12 am
    26   11   14 1
    27   12   13 2
    28   14   19 1
    29   14   15 1
    30   14   39 1
    31   15   23 1
    32   15   16 1
    33   15   40 1
    34   16   17 1
    35   16   41 1
    36   16   42 1
    37   17   22 1
    38   17   18 1
    39   17   43 1
    40   18   19 1
    41   18   44 1
    42   18   45 1
    43   19   20 1
    44   19   46 1
    45   20   21 1
    46   20   47 1
    47   20   48 1
    48   21   22 1
    49   21   23 1
    50   21   24 1
    51   22   49 1
    52   22   50 1
    53   23   51 1
    54   23   52 1
    55   24   25 2
    56   24   26 am
    57   26   53 1
    58   26   54 1
@<TRIPOS>MOLECULE
CHEMBL221132__1
   54    58     0     0     0
SMALL
USER_CHARGES

@<TRIPOS>ATOM
      1 C1          7.6583   -0.6504   -3.2693 C.ar      1 <0>        -0.1201
      2 C2          8.3496   -0.5154   -2.0799 C.ar      1 <0>        -0.1252
      3 C3          7.8327   -1.0515   -0.9153 C.ar      1 <0>        -0.0646
      4 C4          6.6242   -1.7222   -0.9401 C.ar      1 <0>        -0.0928
      5 C5          5.9324   -1.8564   -2.1293 C.ar      1 <0>        -0.1165
      6 C6          6.4500   -1.3215   -3.2941 C.ar      1 <0>        -0.1300
      7 C7          6.0611   -2.3075    0.3294 C.3       1 <0>        -0.0598
      8 C8          5.1782   -1.2679    1.0226 C.3       1 <0>        -0.1181
      9 C9          4.5629   -1.8550    2.3139 C.3       1 <0>        -0.1303
     10 C10         4.5801   -0.6309    3.2560 C.3       1 <0>         0.0977
     11 N1          5.6608    0.2295    2.7601 N.am      1 <0>        -0.6130
     12 C11         6.0128   -0.1023    1.5060 C.2       1 <0>         0.5197
     13 O1          6.8743    0.4517    0.8567 O.2       1 <0>        -0.5069
     14 C12         6.2768    1.3111    3.5328 C.3       1 <0>         0.1712
     15 C13         5.2745    1.8374    4.5621 C.3       1 <0>        -0.0907
     16 C14         4.0340    2.3683    3.8409 C.3       1 <0>        -0.1119
     17 C15         4.4390    3.5025    2.8973 C.3       1 <0>        -0.0849
     18 C16         5.4412    2.9762    1.8679 C.3       1 <0>        -0.0992
     19 C17         6.6817    2.4454    2.5892 C.3       1 <0>        -0.1028
     20 C18         7.3250    3.5750    3.3961 C.3       1 <0>        -0.0857
     21 C19         6.3228    4.1012    4.4254 C.3       1 <0>        -0.0737
     22 C20         5.0823    4.6321    3.7042 C.3       1 <0>        -0.0991
     23 C21         5.9178    2.9670    5.3690 C.3       1 <0>        -0.0967
     24 C22         6.9564    5.2138    5.2202 C.2       1 <0>         0.5260
     25 O2          8.0973    5.5525    4.9864 O.2       1 <0>        -0.5382
     26 N2          6.2553    5.8325    6.1908 N.am      1 <0>        -0.8554
     27 H1          8.0599   -0.2276   -4.1783 H         1 <0>         0.1168
     28 H2          9.2938    0.0086   -2.0605 H         1 <0>         0.1170
     29 H3          8.3732   -0.9467    0.0138 H         1 <0>         0.1199
     30 H4          4.9884   -2.3807   -2.1487 H         1 <0>         0.1165
     31 H5          5.9097   -1.4267   -4.2234 H         1 <0>         0.1175
     32 H6          5.4656   -3.1886    0.0903 H         1 <0>         0.0816
     33 H7          6.8784   -2.5905    0.9927 H         1 <0>         0.0733
     34 H8          4.3954   -0.9224    0.3474 H         1 <0>         0.1073
     35 H9          3.5432   -2.1983    2.1390 H         1 <0>         0.0912
     36 H10         5.1816   -2.6605    2.7096 H         1 <0>         0.0844
     37 H11         3.6268   -0.1045    3.2080 H         1 <0>         0.0750
     38 H12         4.7874   -0.9450    4.2789 H         1 <0>         0.0782
     39 H13         7.1605    0.9329    4.0466 H         1 <0>         0.0701
     40 H14         4.9860    1.0293    5.2344 H         1 <0>         0.0801
     41 H15         3.5757    1.5635    3.2660 H         1 <0>         0.0709
     42 H16         3.3200    2.7432    4.5742 H         1 <0>         0.0655
     43 H17         3.5552    3.8807    2.3835 H         1 <0>         0.0742
     44 H18         4.9829    2.1715    1.2931 H         1 <0>         0.0610
     45 H19         5.7297    3.7843    1.1957 H         1 <0>         0.0625
     46 H20         7.3957    2.0705    1.8558 H         1 <0>         0.1108
     47 H21         8.2088    3.1968    3.9099 H         1 <0>         0.0705
     48 H22         7.6135    4.3830    2.7238 H         1 <0>         0.0749
     49 H23         5.3708    5.4401    3.0319 H         1 <0>         0.0692
     50 H24         4.3683    5.0070    4.4375 H         1 <0>         0.0664
     51 H25         5.2038    3.3419    6.1023 H         1 <0>         0.0728
     52 H26         6.8016    2.5888    5.8828 H         1 <0>         0.0716
     53 H27         5.3428    5.5616    6.3778 H         1 <0>         0.4001
     54 H28         6.6631    6.5486    6.7024 H         1 <0>         0.4016
@<TRIPOS>BOND
     1    1    6 ar
     2    1    2 ar
     3    1   27 1
     4    2    3 ar
     5    2   28 1
     6    3    4 ar
     7    3   29 1
     8    4    5 ar
     9    4    7 1
    10    5    6 ar
    11    5   30 1
    12    6   31 1
    13    7    8 1
    14    7   32 1
    15    7   33 1
    16    8   12 1
    17    8    9 1
    18    8   34 1
    19    9   10 1
    20    9   35 1
    21    9   36 1
    22   10   11 1
    23   10   37 1
    24   10   38 1
    25   11   12 am
    26   11   14 1
    27   12   13 2
    28   14   19 1
    29   14   15 1
    30   14   39 1
    31   15   23 1
    32   15   16 1
    33   15   40 1
    34   16   17 1
    35   16   41 1
    36   16   42 1
    37   17   22 1
    38   17   18 1
    39   17   43 1
    40   18   19 1
    41   18   44 1
    42   18   45 1
    43   19   20 1
    44   19   46 1
    45   20   21 1
    46   20   47 1
    47   20   48 1
    48   21   22 1
    49   21   23 1
    50   21   24 1
    51   22   49 1
    52   22   50 1
    53   23   51 1
    54   23   52 1
    55   24   25 2
    56   24   26 am
    57   26   53 1
    58   26   54 1
@<TRIPOS>MOLECULE
CHEMBL249227
   49    52     0     0     0
SMALL
USER_CHARGES

@<TRIPOS>ATOM
      1 C1          0.2076   -7.1750    4.9334 C.3       1 <0>        -0.1106
      2 C2          0.1682   -6.4098    3.6358 C.ar      1 <0>        -0.0922
      3 C3          1.0314   -6.7483    2.6098 C.ar      1 <0>        -0.0889
      4 C4          1.0007   -6.0525    1.4189 C.ar      1 <0>        -0.1250
      5 C5          0.0960   -5.0031    1.2474 C.ar      1 <0>        -0.0976
      6 C6         -0.7740   -4.6628    2.2831 C.ar      1 <0>        -0.1513
      7 C7         -0.7384   -5.3714    3.4726 C.ar      1 <0>         0.1238
      8 O1         -1.5882   -5.0467    4.4824 O.3       1 <0>        -0.3105
      9 C8         -2.4946   -3.9676    4.2458 C.3       1 <0>         0.0233
     10 C9          0.0606   -4.2549   -0.0274 C.2       1 <0>         0.5657
     11 O2         -0.0630   -3.0457   -0.0191 O.2       1 <0>        -0.5282
     12 N1          0.1654   -4.9136   -1.1985 N.am      1 <0>        -0.6088
     13 C10         0.2665   -4.1765   -2.4655 C.3       1 <0>         0.1190
     14 C11        -0.8198   -4.6837   -3.4191 C.3       1 <0>        -0.1513
     15 C12        -0.6974   -6.2023   -3.5639 C.3       1 <0>         0.1302
     16 C13        -0.9042   -6.8648   -2.1999 C.3       1 <0>        -0.1526
     17 C14         0.1868   -6.3823   -1.2320 C.3       1 <0>         0.1045
     18 N2         -1.7140   -6.6867   -4.5010 N.am      1 <0>        -0.5405
     19 C15        -1.3241   -7.3516   -5.6514 C.ar      1 <0>         0.1288
     20 C16        -0.0164   -7.6447   -6.0731 C.ar      1 <0>        -0.1204
     21 C17         0.2113   -8.3167   -7.2502 C.ar      1 <0>        -0.0802
     22 C18        -0.8358   -8.7264   -8.0580 C.ar      1 <0>        -0.1193
     23 C19        -2.1350   -8.4518   -7.6675 C.ar      1 <0>        -0.0418
     24 C20        -2.3626   -7.7802   -6.4911 C.ar      1 <0>        -0.1302
     25 S1         -3.8229   -7.2369   -5.6378 S.3       1 <0>        -0.0505
     26 C21        -3.0189   -6.4855   -4.2317 C.2       1 <0>         0.5419
     27 O3         -3.5224   -5.9305   -3.2726 O.2       1 <0>        -0.4389
     28 H1         -0.4756   -8.0224    4.8764 H         1 <0>         0.0730
     29 H2          1.2205   -7.5363    5.1115 H         1 <0>         0.0691
     30 H3         -0.0935   -6.5199    5.7509 H         1 <0>         0.0734
     31 H4          1.7320   -7.5596    2.7413 H         1 <0>         0.1378
     32 H5          1.6765   -6.3192    0.6198 H         1 <0>         0.1326
     33 H6         -1.4761   -3.8520    2.1564 H         1 <0>         0.1373
     34 H7         -1.9306   -3.0591    4.0341 H         1 <0>         0.0586
     35 H8         -3.1304   -4.2073    3.3935 H         1 <0>         0.0571
     36 H9         -3.1141   -3.8131    5.1292 H         1 <0>         0.1042
     37 H10         0.1230   -3.1118   -2.2813 H         1 <0>         0.1029
     38 H11         1.2485   -4.3437   -2.9081 H         1 <0>         0.0750
     39 H12        -1.8019   -4.4346   -3.0172 H         1 <0>         0.0883
     40 H13        -0.6956   -4.2140   -4.3948 H         1 <0>         0.0838
     41 H14         0.2937   -6.4523   -3.9425 H         1 <0>         0.1045
     42 H15        -1.8855   -6.5952   -1.8095 H         1 <0>         0.0887
     43 H16        -0.8401   -7.9476   -2.3079 H         1 <0>         0.0843
     44 H17         1.1624   -6.7257   -1.5762 H         1 <0>         0.0775
     45 H18        -0.0093   -6.7735   -0.2337 H         1 <0>         0.1055
     46 H19         0.8211   -7.3376   -5.4643 H         1 <0>         0.1306
     47 H20         1.2266   -8.5288   -7.5510 H         1 <0>         0.1369
     48 H21        -0.6415   -9.2530   -8.9807 H         1 <0>         0.1411
     49 H22        -2.9650   -8.7637   -8.2842 H         1 <0>         0.1397
@<TRIPOS>BOND
     1    1    2 1
     2    1   28 1
     3    1   29 1
     4    1   30 1
     5    2    7 ar
     6    2    3 ar
     7    3    4 ar
     8    3   31 1
     9    4    5 ar
    10    4   32 1
    11    5    6 ar
    12    5   10 1
    13    6    7 ar
    14    6   33 1
    15    7    8 1
    16    8    9 1
    17    9   34 1
    18    9   35 1
    19    9   36 1
    20   10   11 2
    21   10   12 am
    22   12   17 1
    23   12   13 1
    24   13   14 1
    25   13   37 1
    26   13   38 1
    27   14   15 1
    28   14   39 1
    29   14   40 1
    30   15   16 1
    31   15   18 1
    32   15   41 1
    33   16   17 1
    34   16   42 1
    35   16   43 1
    36   17   44 1
    37   17   45 1
    38   18   26 am
    39   18   19 1
    40   19   24 ar
    41   19   20 ar
    42   20   21 ar
    43   20   46 1
    44   21   22 ar
    45   21   47 1
    46   22   23 ar
    47   22   48 1
    48   23   24 ar
    49   23   49 1
    50   24   25 1
    51   25   26 1
    52   26   27 2
@<TRIPOS>MOLECULE
CHEMBL562984
   62    65     0     0     0
SMALL
USER_CHARGES

@<TRIPOS>ATOM
      1 C1          0.3111   -2.0211    1.6906 C.3       1 <0>        -0.2044
      2 C2         -0.0273   -1.0814    0.5316 C.3       1 <0>         0.1409
      3 H1          0.5555   -1.3591   -0.3466 H         1 <0>         0.0893
      4 C3         -1.5234   -1.1802    0.2088 C.3       1 <0>         0.1338
      5 N1         -1.8767   -0.0949   -0.7170 N.pl3     1 <0>        -0.6785
      6 C4         -1.5693    1.2905   -0.3346 C.3       1 <0>         0.1219
      7 C5         -0.0732    1.3893   -0.0118 C.3       1 <0>         0.1008
      8 N2          0.2840    0.3035    0.9125 N.pl3     1 <0>        -0.9851
      9 S1          1.0184    0.6349    2.3593 S.o2      1 <0>         2.6915
     10 O1          1.8946   -0.4510    2.6281 O.2       1 <0>        -0.9492
     11 O2          1.4719    1.9796    2.2859 O.2       1 <0>        -0.9431
     12 C6         -0.2319    0.5921    3.6001 C.ar      1 <0>        -0.6946
     13 C7         -0.2241   -0.4095    4.5534 C.ar      1 <0>         0.0122
     14 C8         -1.2028   -0.4462    5.5270 C.ar      1 <0>        -0.1634
     15 C9         -2.1961    0.5245    5.5488 C.ar      1 <0>         0.2366
     16 C10        -2.2020    1.5295    4.5911 C.ar      1 <0>        -0.1311
     17 C11        -1.2166    1.5642    3.6220 C.ar      1 <0>         0.0779
     18 Cl1        -1.2187    2.8239    2.4275 Cl        1 <0>        -0.0332
     19 N3         -3.1892    0.4892    6.5341 N.am      1 <0>        -0.6866
     20 C12        -4.4448    0.8810    6.2397 C.2       1 <0>         0.7091
     21 O3         -4.7366    1.1787    5.0976 O.2       1 <0>        -0.5582
     22 N4         -5.3767    0.9427    7.2114 N.am      1 <0>        -0.6256
     23 C13        -5.0205    0.7033    8.6189 C.3       1 <0>         0.0711
     24 C14        -5.5721    1.8597    9.4607 C.3       1 <0>         0.0480
     25 O4         -6.9634    2.0263    9.1773 O.3       1 <0>        -0.3752
     26 C15        -7.2462    2.3817    7.8218 C.3       1 <0>         0.0463
     27 C16        -6.7793    1.2576    6.8968 C.3       1 <0>         0.0923
     28 C17        -2.4947   -0.3752   -1.9394 C.ar      1 <0>         0.2149
     29 C18        -1.7254   -0.7009   -3.0491 C.ar      1 <0>        -0.0969
     30 C19        -2.3380   -0.9779   -4.2555 C.ar      1 <0>        -0.1131
     31 C20        -3.7181   -0.9312   -4.3593 C.ar      1 <0>         0.0968
     32 C21        -4.4869   -0.6068   -3.2545 C.ar      1 <0>        -0.1031
     33 C22        -3.8787   -0.3341   -2.0445 C.ar      1 <0>        -0.1664
     34 C23        -4.7163    0.0128   -0.8408 C.3       1 <0>         0.5171
     35 F1         -6.0716   -0.1169   -1.1627 F         1 <0>        -0.1794
     36 F2         -4.4020   -0.8539    0.2115 F         1 <0>        -0.1696
     37 F3         -4.4531    1.3311   -0.4536 F         1 <0>        -0.1715
     38 F4         -4.3152   -1.2021   -5.5405 F         1 <0>        -0.1300
     39 H2         -0.1317   -1.6382    2.6101 H         1 <0>         0.0570
     40 H3         -0.0873   -3.0140    1.4816 H         1 <0>         0.0815
     41 H4          1.3933   -2.0808    1.8059 H         1 <0>         0.1145
     42 H5         -1.7342   -2.1424   -0.2580 H         1 <0>         0.0845
     43 H6         -2.1030   -1.0813    1.1267 H         1 <0>         0.0650
     44 H7         -1.8104    1.9599   -1.1603 H         1 <0>         0.0848
     45 H8         -2.1522    1.5652    0.5446 H         1 <0>         0.0694
     46 H9          0.5064    1.2904   -0.9296 H         1 <0>         0.0813
     47 H10         0.1375    2.3514    0.4550 H         1 <0>         0.1028
     48 H11         0.5482   -1.1642    4.5364 H         1 <0>         0.1591
     49 H12        -1.1962   -1.2293    6.2706 H         1 <0>         0.1438
     50 H13        -2.9732    2.2854    4.6054 H         1 <0>         0.1543
     51 H14        -2.9740    0.1827    7.4289 H         1 <0>         0.4128
     52 H15        -5.4594   -0.2365    8.9539 H         1 <0>         0.0861
     53 H16        -3.9362    0.6596    8.7209 H         1 <0>         0.0863
     54 H17        -5.4404    1.6347   10.5190 H         1 <0>         0.1114
     55 H18        -5.0378    2.7770    9.2135 H         1 <0>         0.0586
     56 H19        -8.3189    2.5324    7.7011 H         1 <0>         0.1128
     57 H20        -6.7180    3.3010    7.5687 H         1 <0>         0.0586
     58 H21        -6.8591    1.5809    5.8589 H         1 <0>         0.1075
     59 H22        -7.3983    0.3746    7.0554 H         1 <0>         0.0802
     60 H23        -0.6490   -0.7371   -2.9687 H         1 <0>         0.1468
     61 H24        -1.7402   -1.2308   -5.1186 H         1 <0>         0.1473
     62 H25        -5.5631   -0.5710   -3.3377 H         1 <0>         0.1512
@<TRIPOS>BOND
     1    1    2 1
     2    1   39 1
     3    1   40 1
     4    1   41 1
     5    2    3 1
     6    2    8 1
     7    2    4 1
     8    4    5 1
     9    4   42 1
    10    4   43 1
    11    5    6 1
    12    5   28 1
    13    6    7 1
    14    6   44 1
    15    6   45 1
    16    7    8 1
    17    7   46 1
    18    7   47 1
    19    8    9 1
    20    9   10 2
    21    9   11 2
    22    9   12 1
    23   12   17 ar
    24   12   13 ar
    25   13   14 ar
    26   13   48 1
    27   14   15 ar
    28   14   49 1
    29   15   16 ar
    30   15   19 1
    31   16   17 ar
    32   16   50 1
    33   17   18 1
    34   19   20 am
    35   19   51 1
    36   20   21 2
    37   20   22 am
    38   22   27 1
    39   22   23 1
    40   23   24 1
    41   23   52 1
    42   23   53 1
    43   24   25 1
    44   24   54 1
    45   24   55 1
    46   25   26 1
    47   26   27 1
    48   26   56 1
    49   26   57 1
    50   27   58 1
    51   27   59 1
    52   28   33 ar
    53   28   29 ar
    54   29   30 ar
    55   29   60 1
    56   30   31 ar
    57   30   61 1
    58   31   32 ar
    59   31   38 1
    60   32   33 ar
    61   32   62 1
    62   33   34 1
    63   34   35 1
    64   34   36 1
    65   34   37 1
@<TRIPOS>MOLECULE
CHEMBL246889
   66    70     0     0     0
SMALL
USER_CHARGES

@<TRIPOS>ATOM
      1 C1          0.4241    1.4912    0.0395 C.3       1 <0>        -0.1363
      2 C2          0.2301   -0.0264    0.0538 C.3       1 <0>         0.0959
      3 C3          1.2649   -0.6640    0.9831 C.3       1 <0>        -0.1948
      4 C4         -1.1561   -0.3509    0.5477 C.2       1 <0>         0.4868
      5 O1         -1.9255   -0.9623   -0.1631 O.2       1 <0>        -0.5117
      6 N1         -1.5410    0.0381    1.7794 N.am      1 <0>        -0.7133
      7 C5         -2.8886   -0.2774    2.2595 C.3       1 <0>         0.1565
      8 C6         -3.8667    0.7948    1.7751 C.3       1 <0>        -0.0906
      9 C7         -3.4380    2.1592    2.3188 C.3       1 <0>        -0.1039
     10 C8         -3.4387    2.1219    3.8483 C.3       1 <0>        -0.0915
     11 C9         -2.4607    1.0496    4.3327 C.3       1 <0>        -0.1066
     12 C10        -2.8893   -0.3148    3.7891 C.3       1 <0>        -0.0890
     13 C11        -4.2968   -0.6443    4.2905 C.3       1 <0>        -0.0912
     14 C12        -5.2748    0.4279    3.8061 C.3       1 <0>        -0.0167
     15 C13        -4.8462    1.7923    4.3498 C.3       1 <0>        -0.0808
     16 C14        -5.2741    0.4653    2.2766 C.3       1 <0>        -0.0920
     17 C15        -6.6611    0.1033    4.3000 C.2       1 <0>         0.4957
     18 O2         -7.2489   -1.0582    3.9453 O.3       1 <0>        -0.7208
     19 N2         -7.2860    0.9363    5.0621 N.2       1 <0>        -1.0541
     20 S1         -8.8093    0.5796    5.6049 S.o2      1 <0>         2.6419
     21 O3         -9.6546    0.5661    4.4627 O.2       1 <0>        -1.0073
     22 O4         -8.6803   -0.5400    6.4704 O.2       1 <0>        -1.0078
     23 C16        -9.3358    1.9313    6.6051 C.ar      1 <0>        -0.6277
     24 C17        -9.0690    1.9325    7.9614 C.ar      1 <0>        -0.0243
     25 C18        -9.4821    2.9930    8.7461 C.ar      1 <0>        -0.1471
     26 C19       -10.1614    4.0524    8.1744 C.ar      1 <0>        -0.0836
     27 C20       -10.4274    4.0516    6.8178 C.ar      1 <0>        -0.1470
     28 C21       -10.0106    2.9932    6.0324 C.ar      1 <0>        -0.0242
     29 O5          0.3970   -0.5404   -1.2690 O.3       1 <0>        -0.2754
     30 C22         0.2705   -1.8842   -1.4294 C.ar      1 <0>         0.1521
     31 C23        -0.1241   -2.6772   -0.3620 C.ar      1 <0>        -0.1703
     32 C24        -0.2525   -4.0428   -0.5274 C.ar      1 <0>        -0.0811
     33 C25         0.0124   -4.6199   -1.7558 C.ar      1 <0>        -0.1451
     34 C26         0.4063   -3.8326   -2.8217 C.ar      1 <0>        -0.0807
     35 C27         0.5304   -2.4648   -2.6632 C.ar      1 <0>        -0.0691
     36 Cl1         1.0181   -1.4753   -4.0037 Cl        1 <0>        -0.0640
     37 H1          1.4525    1.7235   -0.2371 H         1 <0>         0.0801
     38 H2         -0.2567    1.9377   -0.6852 H         1 <0>         0.0762
     39 H3          0.2147    1.8936    1.0306 H         1 <0>         0.0836
     40 H4          1.0100   -0.4400    2.0189 H         1 <0>         0.0795
     41 H5          1.2693   -1.7440    0.8353 H         1 <0>         0.0839
     42 H6          2.2527   -0.2624    0.7570 H         1 <0>         0.0816
     43 H7         -0.9257    0.5271    2.3479 H         1 <0>         0.3971
     44 H8         -3.1940   -1.2494    1.8722 H         1 <0>         0.0908
     45 H9         -3.8662    0.8214    0.6854 H         1 <0>         0.0720
     46 H10        -2.4353    2.3940    1.9615 H         1 <0>         0.0533
     47 H11        -4.1348    2.9231    1.9737 H         1 <0>         0.0630
     48 H12        -3.1333    3.0939    4.2357 H         1 <0>         0.0676
     49 H13        -1.4580    1.2844    3.9755 H         1 <0>         0.0512
     50 H14        -2.4612    1.0230    5.4224 H         1 <0>         0.0683
     51 H15        -2.1926   -1.0786    4.1342 H         1 <0>         0.0736
     52 H16        -4.6022   -1.6163    3.9032 H         1 <0>         0.0737
     53 H17        -4.2973   -0.6709    5.3802 H         1 <0>         0.0685
     54 H18        -4.8467    1.7657    5.4394 H         1 <0>         0.0697
     55 H19        -5.5429    2.5562    4.0047 H         1 <0>         0.0698
     56 H20        -5.9709    1.2292    1.9314 H         1 <0>         0.0655
     57 H21        -5.5795   -0.5067    1.8892 H         1 <0>         0.0724
     58 H22        -8.5382    1.1048    8.4081 H         1 <0>         0.1357
     59 H23        -9.2743    2.9936    9.8060 H         1 <0>         0.1255
     60 H24       -10.4847    4.8806    8.7876 H         1 <0>         0.1227
     61 H25       -10.9585    4.8792    6.3712 H         1 <0>         0.1256
     62 H26       -10.2151    2.9943    4.9720 H         1 <0>         0.1358
     63 H27        -0.3305   -2.2275    0.5980 H         1 <0>         0.1361
     64 H28        -0.5597   -4.6603    0.3036 H         1 <0>         0.1291
     65 H29        -0.0883   -5.6877   -1.8826 H         1 <0>         0.1309
     66 H30         0.6133   -4.2859   -3.7799 H         1 <0>         0.1365
@<TRIPOS>BOND
     1    1    2 1
     2    1   37 1
     3    1   38 1
     4    1   39 1
     5    2    3 1
     6    2    4 1
     7    2   29 1
     8    3   40 1
     9    3   41 1
    10    3   42 1
    11    4    5 2
    12    4    6 am
    13    6    7 1
    14    6   43 1
    15    7   12 1
    16    7    8 1
    17    7   44 1
    18    8   16 1
    19    8    9 1
    20    8   45 1
    21    9   10 1
    22    9   46 1
    23    9   47 1
    24   10   15 1
    25   10   11 1
    26   10   48 1
    27   11   12 1
    28   11   49 1
    29   11   50 1
    30   12   13 1
    31   12   51 1
    32   13   14 1
    33   13   52 1
    34   13   53 1
    35   14   15 1
    36   14   16 1
    37   14   17 1
    38   15   54 1
    39   15   55 1
    40   16   56 1
    41   16   57 1
    42   17   18 1
    43   17   19 2
    44   19   20 1
    45   20   21 2
    46   20   22 2
    47   20   23 1
    48   23   28 ar
    49   23   24 ar
    50   24   25 ar
    51   24   58 1
    52   25   26 ar
    53   25   59 1
    54   26   27 ar
    55   26   60 1
    56   27   28 ar
    57   27   61 1
    58   28   62 1
    59   29   30 1
    60   30   35 ar
    61   30   31 ar
    62   31   32 ar
    63   31   63 1
    64   32   33 ar
    65   32   64 1
    66   33   34 ar
    67   33   65 1
    68   34   35 ar
    69   34   66 1
    70   35   36 1
@<TRIPOS>MOLECULE
CHEMBL563161
   45    48     0     0     0
SMALL
USER_CHARGES

@<TRIPOS>ATOM
      1 C1          0.9293   -2.6990    3.6933 C.ar      1 <0>        -0.0678
      2 C2          1.7384   -1.6670    4.1442 C.ar      1 <0>        -0.1753
      3 C3          2.3543   -0.8423    3.2223 C.ar      1 <0>         0.1072
      4 N1          2.1795   -1.0279    1.9283 N.ar      1 <0>        -0.4793
      5 C4          1.4175   -1.9985    1.4638 C.ar      1 <0>         0.1752
      6 C5          0.7698   -2.8632    2.3260 C.ar      1 <0>        -0.1627
      7 C6          1.2506   -2.1669   -0.0245 C.3       1 <0>        -0.1226
      8 C7          2.5202   -2.3113   -0.8659 C.3       1 <0>        -0.1229
      9 C8          1.7088   -1.0154   -0.9215 C.3       1 <0>        -0.1367
     10 C9          0.0355   -2.9457   -0.4582 C.2       1 <0>         0.5713
     11 O1          0.1674   -4.0166   -1.0121 O.2       1 <0>        -0.5281
     12 N2         -1.1979   -2.4522   -0.2305 N.am      1 <0>        -0.6103
     13 C10        -1.5018   -1.1227    0.3306 C.3       1 <0>         0.1017
     14 C11        -2.9324   -0.7964   -0.1696 C.3       1 <0>        -0.1256
     15 C12        -3.6012   -2.1886   -0.1206 C.3       1 <0>        -0.0661
     16 C13        -2.4650   -3.1483   -0.5066 C.3       1 <0>         0.1163
     17 C14        -4.7328   -2.2639   -1.1366 C.3       1 <0>        -0.1042
     18 C15        -5.8288   -1.2640   -0.7572 C.3       1 <0>        -0.1187
     19 C16        -6.3490   -1.5876    0.6449 C.3       1 <0>        -0.1210
     20 C17        -5.2043   -1.4792    1.6543 C.3       1 <0>        -0.1202
     21 C18        -4.1052   -2.4801    1.2861 C.3       1 <0>        -0.1049
     22 H1          0.4388   -3.3620    4.3906 H         1 <0>         0.1363
     23 H2          1.8849   -1.5096    5.2026 H         1 <0>         0.1376
     24 H3          2.9860   -0.0363    3.5653 H         1 <0>         0.1598
     25 H4          0.1474   -3.6566    1.9394 H         1 <0>         0.1285
     26 H5          3.4762   -2.2845   -0.3431 H         1 <0>         0.1075
     27 H6          2.4768   -2.9699   -1.7334 H         1 <0>         0.1095
     28 H7          1.1317   -0.8213   -1.8256 H         1 <0>         0.1003
     29 H8          2.1311   -0.1360   -0.4353 H         1 <0>         0.1187
     30 H9         -1.4796   -1.1568    1.4199 H         1 <0>         0.0669
     31 H10        -0.7924   -0.3832   -0.0408 H         1 <0>         0.0785
     32 H11        -3.4319   -0.0989    0.5027 H         1 <0>         0.0894
     33 H12        -2.9114   -0.4084   -1.1879 H         1 <0>         0.0788
     34 H13        -2.5293   -3.3959   -1.5662 H         1 <0>         0.0725
     35 H14        -2.5285   -4.0557    0.0939 H         1 <0>         0.0694
     36 H15        -4.3480   -2.0224   -2.1274 H         1 <0>         0.0661
     37 H16        -5.1476   -3.2718   -1.1441 H         1 <0>         0.0665
     38 H17        -5.4192   -0.2539   -0.7689 H         1 <0>         0.0637
     39 H18        -6.6475   -1.3328   -1.4736 H         1 <0>         0.0637
     40 H19        -7.1362   -0.8825    0.9117 H         1 <0>         0.0617
     41 H20        -6.7501   -2.6010    0.6583 H         1 <0>         0.0620
     42 H21        -4.7968   -0.4684    1.6347 H         1 <0>         0.0645
     43 H22        -5.5785   -1.7014    2.6536 H         1 <0>         0.0632
     44 H23        -4.5080   -3.4922    1.3250 H         1 <0>         0.0665
     45 H24        -3.2806   -2.3903    1.9932 H         1 <0>         0.0632
@<TRIPOS>BOND
     1    1    6 ar
     2    1    2 ar
     3    1   22 1
     4    2    3 ar
     5    2   23 1
     6    3    4 ar
     7    3   24 1
     8    4    5 ar
     9    5    6 ar
    10    5    7 1
    11    6   25 1
    12    7    9 1
    13    7    8 1
    14    7   10 1
    15    8    9 1
    16    8   26 1
    17    8   27 1
    18    9   28 1
    19    9   29 1
    20   10   11 2
    21   10   12 am
    22   12   16 1
    23   12   13 1
    24   13   14 1
    25   13   30 1
    26   13   31 1
    27   14   15 1
    28   14   32 1
    29   14   33 1
    30   15   21 1
    31   15   16 1
    32   15   17 1
    33   16   34 1
    34   16   35 1
    35   17   18 1
    36   17   36 1
    37   17   37 1
    38   18   19 1
    39   18   38 1
    40   18   39 1
    41   19   20 1
    42   19   40 1
    43   19   41 1
    44   20   21 1
    45   20   42 1
    46   20   43 1
    47   21   44 1
    48   21   45 1
@<TRIPOS>MOLECULE
CHEMBL256777
   45    49     0     0     0
SMALL
USER_CHARGES

@<TRIPOS>ATOM
      1 C1          0.2477    1.9736    0.5326 C.3       1 <0>        -0.1250
      2 C2          1.7186    2.3349    0.3490 C.3       1 <0>        -0.1238
      3 C3          2.3777    1.3338   -0.6047 C.3       1 <0>        -0.0368
      4 C4          2.8929    0.1622    0.1904 C.2       1 <0>         0.1765
      5 N1          4.0660   -0.3965    0.0991 N.2       1 <0>        -0.2936
      6 N2          4.1392   -1.3817    0.9247 N.2       1 <0>        -0.2907
      7 C5          3.0150   -1.4899    1.5823 C.2       1 <0>         0.1857
      8 N3          2.1996   -0.5066    1.1413 N.pl3     1 <0>        -0.4631
      9 C6          0.8440   -0.2070    1.6035 C.3       1 <0>         0.0993
     10 C7          0.0568    0.4589    0.4714 C.3       1 <0>        -0.1419
     11 C8          2.6891   -2.5183    2.6345 C.3       1 <0>         0.0377
     12 C9          2.2183   -1.8133    3.9081 C.3       1 <0>        -0.1076
     13 C10         1.8873   -2.8575    4.9764 C.3       1 <0>        -0.0830
     14 C11         3.1363   -3.6859    5.2840 C.3       1 <0>        -0.1107
     15 C12         3.6071   -4.3909    4.0103 C.3       1 <0>        -0.0869
     16 C13         3.9381   -3.3468    2.9421 C.3       1 <0>        -0.0894
     17 C14         2.4981   -5.3116    3.4973 C.3       1 <0>        -0.1105
     18 C15         1.2491   -4.4831    3.1897 C.3       1 <0>        -0.0834
     19 C16         0.7783   -3.7782    4.4634 C.3       1 <0>        -0.1101
     20 C17         1.5800   -3.4390    2.1215 C.3       1 <0>        -0.1033
     21 H1         -0.0947    2.3405    1.5002 H         1 <0>         0.0699
     22 H2         -0.3392    2.4424   -0.2573 H         1 <0>         0.0748
     23 H3          1.7965    3.3389   -0.0680 H         1 <0>         0.0818
     24 H4          2.2235    2.3030    1.3145 H         1 <0>         0.0643
     25 H5          1.6442    0.9864   -1.3323 H         1 <0>         0.0921
     26 H6          3.2069    1.8157   -1.1228 H         1 <0>         0.1004
     27 H7          0.3472   -1.1318    1.8969 H         1 <0>         0.0985
     28 H8          0.8921    0.4673    2.4585 H         1 <0>         0.0894
     29 H9         -1.0019    0.2222    0.5780 H         1 <0>         0.0889
     30 H10         0.4161    0.0866   -0.4879 H         1 <0>         0.0817
     31 H11         3.0084   -1.1574    4.2736 H         1 <0>         0.0674
     32 H12         1.3285   -1.2231    3.6890 H         1 <0>         0.0624
     33 H13         1.5519   -2.3552    5.8838 H         1 <0>         0.0747
     34 H14         3.9265   -3.0300    5.6495 H         1 <0>         0.0639
     35 H15         2.9006   -4.4298    6.0451 H         1 <0>         0.0657
     36 H16         4.4969   -4.9811    4.2295 H         1 <0>         0.0768
     37 H17         4.2735   -3.8490    2.0347 H         1 <0>         0.0739
     38 H18         4.7282   -2.6909    3.3076 H         1 <0>         0.0705
     39 H19         2.8335   -5.8138    2.5900 H         1 <0>         0.0647
     40 H20         2.2623   -6.0554    4.2584 H         1 <0>         0.0657
     41 H21         0.4590   -5.1391    2.8242 H         1 <0>         0.0750
     42 H22         0.5425   -4.5220    5.2244 H         1 <0>         0.0674
     43 H23        -0.1115   -3.1880    4.2442 H         1 <0>         0.0611
     44 H24         0.6902   -2.8488    1.9023 H         1 <0>         0.0605
     45 H25         1.9154   -3.9413    1.2141 H         1 <0>         0.0692
@<TRIPOS>BOND
     1    1   10 1
     2    1    2 1
     3    1   21 1
     4    1   22 1
     5    2    3 1
     6    2   23 1
     7    2   24 1
     8    3    4 1
     9    3   25 1
    10    3   26 1
    11    4    8 1
    12    4    5 2
    13    5    6 1
    14    6    7 2
    15    7    8 1
    16    7   11 1
    17    8    9 1
    18    9   10 1
    19    9   27 1
    20    9   28 1
    21   10   29 1
    22   10   30 1
    23   11   16 1
    24   11   20 1
    25   11   12 1
    26   12   13 1
    27   12   31 1
    28   12   32 1
    29   13   19 1
    30   13   14 1
    31   13   33 1
    32   14   15 1
    33   14   34 1
    34   14   35 1
    35   15   16 1
    36   15   17 1
    37   15   36 1
    38   16   37 1
    39   16   38 1
    40   17   18 1
    41   17   39 1
    42   17   40 1
    43   18   19 1
    44   18   20 1
    45   18   41 1
    46   19   42 1
    47   19   43 1
    48   20   44 1
    49   20   45 1
@<TRIPOS>MOLECULE
CHEMBL257754
   44    47     0     0     0
SMALL
USER_CHARGES

@<TRIPOS>ATOM
      1 C1         -1.3899    1.0352    0.2434 C.3       1 <0>         0.0503
      2 N1         -0.6012   -0.1915    0.1046 N.pl3     1 <0>        -0.4658
      3 C2         -0.2397   -0.8159   -1.0612 C.2       1 <0>         0.1939
      4 N2          0.4611   -1.8789   -0.7314 N.2       1 <0>        -0.2518
      5 N3          0.5609   -1.9601    0.5473 N.2       1 <0>        -0.2516
      6 C3         -0.0665   -0.9498    1.1124 C.2       1 <0>         0.2335
      7 C4         -0.1762   -0.6857    2.5608 C.ar      1 <0>        -0.0530
      8 C5         -0.7574    0.5129    3.0102 C.ar      1 <0>        -0.1120
      9 C6         -0.8698    0.7793    4.3362 C.ar      1 <0>        -0.1040
     10 C7         -0.4023   -0.1484    5.2860 C.ar      1 <0>        -0.0300
     11 C8         -0.5101    0.1086    6.6630 C.ar      1 <0>        -0.1121
     12 C9         -0.0493   -0.8076    7.5586 C.ar      1 <0>        -0.1012
     13 C10         0.5296   -2.0006    7.1310 C.ar      1 <0>        -0.1167
     14 C11         0.6508   -2.2837    5.8048 C.ar      1 <0>        -0.0888
     15 C12         0.1866   -1.3620    4.8516 C.ar      1 <0>        -0.0726
     16 C13         0.2910   -1.6267    3.4721 C.ar      1 <0>         0.1691
     17 O1          0.8466   -2.7854    3.0368 O.3       1 <0>        -0.3155
     18 C14         2.2582   -2.7845    2.8141 C.3       1 <0>         0.0497
     19 C15        -0.5755   -0.3770   -2.4323 C.ar      1 <0>         0.0351
     20 C16        -0.8154    0.9724   -2.6974 C.ar      1 <0>        -0.1152
     21 C17        -1.1278    1.3754   -3.9791 C.ar      1 <0>        -0.0832
     22 C18        -1.2037    0.4453   -5.0009 C.ar      1 <0>        -0.1063
     23 C19        -0.9671   -0.8934   -4.7450 C.ar      1 <0>        -0.0682
     24 C20        -0.6485   -1.3091   -3.4685 C.ar      1 <0>        -0.1464
     25 C21        -0.3854   -2.7671   -3.1926 C.3       1 <0>         0.5091
     26 F1         -0.5170   -3.4972   -4.3786 F         1 <0>        -0.1820
     27 F2          0.9120   -2.9203   -2.6921 F         1 <0>        -0.1477
     28 F3         -1.3070   -3.2372   -2.2509 F         1 <0>        -0.1743
     29 H1         -0.7197    1.8864    0.3634 H         1 <0>         0.0921
     30 H2         -2.0012    1.1770   -0.6478 H         1 <0>         0.1011
     31 H3         -2.0356    0.9550    1.1179 H         1 <0>         0.1051
     32 H4         -1.1192    1.2320    2.2901 H         1 <0>         0.1373
     33 H5         -1.3188    1.7054    4.6635 H         1 <0>         0.1375
     34 H6         -0.9561    1.0290    7.0096 H         1 <0>         0.1325
     35 H7         -0.1336   -0.6064    8.6164 H         1 <0>         0.1278
     36 H8          0.8876   -2.7106    7.8619 H         1 <0>         0.1285
     37 H9          1.1020   -3.2121    5.4871 H         1 <0>         0.1343
     38 H10         2.5722   -3.7696    2.4689 H         1 <0>         0.0993
     39 H11         2.5064   -2.0387    2.0589 H         1 <0>         0.0519
     40 H12         2.7726   -2.5445    3.7446 H         1 <0>         0.0411
     41 H13        -0.7568    1.6992   -1.9007 H         1 <0>         0.1371
     42 H14        -1.3139    2.4190   -4.1855 H         1 <0>         0.1414
     43 H15        -1.4490    0.7660   -6.0026 H         1 <0>         0.1424
     44 H16        -1.0279   -1.6143   -5.5469 H         1 <0>         0.1481
@<TRIPOS>BOND
     1    1    2 1
     2    1   29 1
     3    1   30 1
     4    1   31 1
     5    2    6 1
     6    2    3 1
     7    3    4 2
     8    3   19 1
     9    4    5 1
    10    5    6 2
    11    6    7 1
    12    7   16 ar
    13    7    8 ar
    14    8    9 ar
    15    8   32 1
    16    9   10 ar
    17    9   33 1
    18   10   15 ar
    19   10   11 ar
    20   11   12 ar
    21   11   34 1
    22   12   13 ar
    23   12   35 1
    24   13   14 ar
    25   13   36 1
    26   14   15 ar
    27   14   37 1
    28   15   16 ar
    29   16   17 1
    30   17   18 1
    31   18   38 1
    32   18   39 1
    33   18   40 1
    34   19   24 ar
    35   19   20 ar
    36   20   21 ar
    37   20   41 1
    38   21   22 ar
    39   21   42 1
    40   22   23 ar
    41   22   43 1
    42   23   24 ar
    43   23   44 1
    44   24   25 1
    45   25   26 1
    46   25   27 1
    47   25   28 1
@<TRIPOS>MOLECULE
CHEMBL238187
   45    46     0     0     0
SMALL
USER_CHARGES

@<TRIPOS>ATOM
      1 C1         -0.0187    1.5258    0.0104 C.3       1 <0>        -0.1604
      2 C2          0.0021   -0.0041    0.0020 C.3       1 <0>        -0.1089
      3 C3         -1.4333   -0.5336    0.0129 C.3       1 <0>         0.0155
      4 C4         -2.2278    0.0548   -1.1363 C.2       1 <0>         0.5109
      5 O1         -2.0059   -0.0706   -2.3244 O.2       1 <0>        -0.4618
      6 N1         -3.2214    0.7389   -0.5684 N.2       1 <0>        -0.6461
      7 C5         -3.1680    0.6674    0.7428 C.2       1 <0>         0.6063
      8 O2         -2.1345   -0.0707    1.1787 O.3       1 <0>        -0.3142
      9 N2         -4.0619    1.2748    1.5681 N.pl3     1 <0>        -0.6545
     10 C6         -5.1615    2.0620    1.0047 C.3       1 <0>         0.1314
     11 C7         -4.6772    3.4857    0.7225 C.3       1 <0>        -0.1296
     12 C8         -5.6666    4.1848   -0.2119 C.3       1 <0>        -0.1221
     13 C9         -6.0676    3.2300   -1.3379 C.3       1 <0>        -0.1378
     14 C10        -7.5459    2.8631   -1.1936 C.3       1 <0>        -0.1209
     15 C11        -7.7106    1.8505   -0.0583 C.3       1 <0>        -0.1332
     16 C12        -7.5915    2.5688    1.2871 C.3       1 <0>        -0.1235
     17 C13        -6.3208    2.1060    2.0024 C.3       1 <0>        -0.1292
     18 C14        -1.4420   -2.0624   -0.0491 C.3       1 <0>        -0.1085
     19 C15        -2.8844   -2.5600   -0.1626 C.3       1 <0>        -0.1609
     20 H1          1.0039    1.9031    0.0027 H         1 <0>         0.0699
     21 H2         -0.5459    1.8868   -0.8726 H         1 <0>         0.0577
     22 H3         -0.5289    1.8773    0.9072 H         1 <0>         0.0549
     23 H4          0.5123   -0.3556   -0.8948 H         1 <0>         0.0954
     24 H5          0.5293   -0.3651    0.8851 H         1 <0>         0.0841
     25 H6         -3.9715    1.1868    2.5299 H         1 <0>         0.4180
     26 H7         -5.4989    1.6021    0.0758 H         1 <0>         0.1304
     27 H8         -4.6093    4.0388    1.6593 H         1 <0>         0.0657
     28 H9         -3.6955    3.4487    0.2503 H         1 <0>         0.0702
     29 H10        -6.5537    4.4761    0.3505 H         1 <0>         0.0746
     30 H11        -5.1988    5.0725   -0.6377 H         1 <0>         0.0639
     31 H12        -5.9060    3.7152   -2.3005 H         1 <0>         0.0617
     32 H13        -5.4615    2.3258   -1.2806 H         1 <0>         0.0854
     33 H14        -8.1225    3.7599   -0.9671 H         1 <0>         0.0643
     34 H15        -7.9046    2.4259   -2.1254 H         1 <0>         0.0619
     35 H16        -8.6899    1.3777   -0.1324 H         1 <0>         0.0631
     36 H17        -6.9333    1.0900   -0.1342 H         1 <0>         0.0707
     37 H18        -7.5436    3.6451    1.1213 H         1 <0>         0.0797
     38 H19        -8.4604    2.3345    1.9022 H         1 <0>         0.0680
     39 H20        -6.4799    1.1113    2.4188 H         1 <0>         0.0717
     40 H21        -6.0821    2.8025    2.8062 H         1 <0>         0.0733
     41 H22        -0.8738   -2.3940   -0.9181 H         1 <0>         0.0956
     42 H23        -0.9889   -2.4653    0.8567 H         1 <0>         0.0843
     43 H24        -3.4526   -2.2283    0.7064 H         1 <0>         0.0543
     44 H25        -3.3375   -2.1570   -1.0684 H         1 <0>         0.0586
     45 H26        -2.8906   -3.6490   -0.2067 H         1 <0>         0.0702
@<TRIPOS>BOND
     1    1    2 1
     2    1   20 1
     3    1   21 1
     4    1   22 1
     5    2    3 1
     6    2   23 1
     7    2   24 1
     8    3    8 1
     9    3    4 1
    10    3   18 1
    11    4    5 2
    12    4    6 1
    13    6    7 2
    14    7    8 1
    15    7    9 1
    16    9   10 1
    17    9   25 1
    18   10   17 1
    19   10   11 1
    20   10   26 1
    21   11   12 1
    22   11   27 1
    23   11   28 1
    24   12   13 1
    25   12   29 1
    26   12   30 1
    27   13   14 1
    28   13   31 1
    29   13   32 1
    30   14   15 1
    31   14   33 1
    32   14   34 1
    33   15   16 1
    34   15   35 1
    35   15   36 1
    36   16   17 1
    37   16   37 1
    38   16   38 1
    39   17   39 1
    40   17   40 1
    41   18   19 1
    42   18   41 1
    43   18   42 1
    44   19   43 1
    45   19   44 1
    46   19   45 1
@<TRIPOS>MOLECULE
CHEMBL551453
   63    66     0     0     0
SMALL
USER_CHARGES

@<TRIPOS>ATOM
      1 C1         -0.0861   -5.1992    4.7714 C.3       1 <0>        -0.1830
      2 C2         -0.6921   -4.2682    3.7193 C.3       1 <0>         0.0121
      3 H1         -1.7744   -4.2346    3.8439 H         1 <0>         0.1439
      4 C3         -0.3549   -4.7913    2.3192 C.3       1 <0>         0.0975
      5 N1         -0.8334   -3.8146    1.3287 N.pl3     1 <0>        -0.6383
      6 C4         -0.4585   -2.4036    1.5094 C.3       1 <0>         0.0928
      7 C5         -0.7908   -1.9931    2.9478 C.3       1 <0>        -0.0223
      8 N2         -0.1383   -2.9181    3.8830 N.4       1 <0>        -0.5041
      9 C6         -1.6209   -4.2156    0.2471 C.ar      1 <0>         0.2636
     10 C7         -2.1574   -3.2657   -0.6134 C.ar      1 <0>        -0.2029
     11 C8         -2.9353   -3.6648   -1.6823 C.ar      1 <0>         0.0395
     12 C9         -3.1813   -5.0086   -1.8971 C.ar      1 <0>        -0.7127
     13 C10        -2.6487   -5.9577   -1.0423 C.ar      1 <0>         0.1037
     14 C11        -1.8645   -5.5647    0.0261 C.ar      1 <0>        -0.1986
     15 Cl1        -2.9607   -7.6435   -1.3156 Cl        1 <0>        -0.0238
     16 S1         -4.1753   -5.5132   -3.2615 S.o2      1 <0>         2.6888
     17 O1         -5.1264   -6.4376   -2.7512 O.2       1 <0>        -0.9420
     18 O2         -4.5565   -4.3281   -3.9466 O.2       1 <0>        -0.9468
     19 N3         -3.1966   -6.3621   -4.2929 N.pl3     1 <0>        -0.9851
     20 C12        -3.2306   -7.8312   -4.3171 C.3       1 <0>         0.0984
     21 C13        -1.8096   -8.3582   -4.0816 C.3       1 <0>         0.1224
     22 N4         -0.8918   -7.6560   -4.9895 N.pl3     1 <0>        -0.6780
     23 C14        -0.8578   -6.1869   -4.9653 C.3       1 <0>         0.1361
     24 C15        -2.2828   -5.6597   -5.2048 C.3       1 <0>         0.1391
     25 H2         -2.5777   -5.8503   -6.2367 H         1 <0>         0.0924
     26 C16        -2.3307   -4.1567   -4.9227 C.3       1 <0>        -0.1970
     27 C17        -0.0654   -8.3727   -5.8603 C.ar      1 <0>         0.2103
     28 C18        -0.5101   -8.6909   -7.1371 C.ar      1 <0>        -0.0955
     29 C19         0.3079   -9.3985   -7.9958 C.ar      1 <0>        -0.1113
     30 C20         1.5709   -9.7907   -7.5846 C.ar      1 <0>         0.1011
     31 C21         2.0162   -9.4746   -6.3125 C.ar      1 <0>        -0.1039
     32 C22         1.2033   -8.7624   -5.4521 C.ar      1 <0>        -0.1682
     33 C23         1.6910   -8.4131   -4.0696 C.3       1 <0>         0.5188
     34 F1          2.9871   -8.9093   -3.8932 F         1 <0>        -0.1778
     35 F2          1.6988   -7.0227   -3.9153 F         1 <0>        -0.1742
     36 F3          0.8397   -8.9832   -3.1169 F         1 <0>        -0.1726
     37 F4          2.3693  -10.4832   -8.4261 F         1 <0>        -0.1273
     38 H3         -0.3257   -4.8268    5.7674 H         1 <0>         0.0893
     39 H4         -0.4970   -6.2014    4.6496 H         1 <0>         0.1106
     40 H5          0.9963   -5.2327    4.6468 H         1 <0>         0.0856
     41 H6          0.7242   -4.9117    2.2232 H         1 <0>         0.0962
     42 H7         -0.8491   -5.7493    2.1573 H         1 <0>         0.1284
     43 H8          0.6101   -2.2829    1.3316 H         1 <0>         0.0962
     44 H9         -1.0212   -1.7829    0.8121 H         1 <0>         0.1316
     45 H10        -0.4318   -0.9800    3.1288 H         1 <0>         0.1486
     46 H11        -1.8701   -2.0283    3.0956 H         1 <0>         0.1365
     47 H12        -0.2948   -2.6041    4.8291 H         1 <0>         0.4335
     48 H13        -1.9665   -2.2159   -0.4462 H         1 <0>         0.1404
     49 H14        -3.3523   -2.9266   -2.3511 H         1 <0>         0.1592
     50 H15        -1.4452   -6.3058    0.6906 H         1 <0>         0.1425
     51 H16        -3.8908   -8.1948   -3.5297 H         1 <0>         0.1028
     52 H17        -3.5914   -8.1728   -5.2872 H         1 <0>         0.0838
     53 H18        -1.5166   -8.1711   -3.0485 H         1 <0>         0.0676
     54 H19        -1.7780   -9.4285   -4.2853 H         1 <0>         0.0856
     55 H20        -0.4970   -5.8452   -3.9952 H         1 <0>         0.0606
     56 H21        -0.1976   -5.8233   -5.7527 H         1 <0>         0.0852
     57 H22        -2.2746   -3.9869   -3.8475 H         1 <0>         0.0525
     58 H23        -1.4882   -3.6681   -5.4122 H         1 <0>         0.0827
     59 H24        -3.2635   -3.7444   -5.3075 H         1 <0>         0.1099
     60 H25        -1.4951   -8.3856   -7.4581 H         1 <0>         0.1473
     61 H26        -0.0376   -9.6465   -8.9885 H         1 <0>         0.1493
     62 H27         3.0015   -9.7814   -5.9939 H         1 <0>         0.1520
     63 H28         0.8534   -2.9379    3.6975 H         1 <0>         0.4273
@<TRIPOS>BOND
     1    1    2 1
     2    1   38 1
     3    1   39 1
     4    1   40 1
     5    2    3 1
     6    2    8 1
     7    2    4 1
     8    4    5 1
     9    4   41 1
    10    4   42 1
    11    5    6 1
    12    5    9 1
    13    6    7 1
    14    6   43 1
    15    6   44 1
    16    7    8 1
    17    7   45 1
    18    7   46 1
    19    8   47 1
    20    8   63 1
    21    9   14 ar
    22    9   10 ar
    23   10   11 ar
    24   10   48 1
    25   11   12 ar
    26   11   49 1
    27   12   13 ar
    28   12   16 1
    29   13   14 ar
    30   13   15 1
    31   14   50 1
    32   16   17 2
    33   16   18 2
    34   16   19 1
    35   19   24 1
    36   19   20 1
    37   20   21 1
    38   20   51 1
    39   20   52 1
    40   21   22 1
    41   21   53 1
    42   21   54 1
    43   22   23 1
    44   22   27 1
    45   23   24 1
    46   23   55 1
    47   23   56 1
    48   24   25 1
    49   24   26 1
    50   26   57 1
    51   26   58 1
    52   26   59 1
    53   27   32 ar
    54   27   28 ar
    55   28   29 ar
    56   28   60 1
    57   29   30 ar
    58   29   61 1
    59   30   31 ar
    60   30   37 1
    61   31   32 ar
    62   31   62 1
    63   32   33 1
    64   33   34 1
    65   33   35 1
    66   33   36 1
@<TRIPOS>MOLECULE
CHEMBL521832
   52    55     0     0     0
SMALL
USER_CHARGES

@<TRIPOS>ATOM
      1 C1          0.1532    1.3294    0.4035 C.3       1 <0>        -0.1607
      2 C2          0.1799   -0.1867    0.6073 C.3       1 <0>         0.1272
      3 H1          0.7025   -0.6586   -0.2247 H         1 <0>         0.1096
      4 C3         -1.2557   -0.7213    0.6830 C.3       1 <0>         0.1379
      5 N1         -1.8569   -0.2750    1.9477 N.pl3     1 <0>        -0.6786
      6 C4         -1.1710   -0.5912    3.2084 C.3       1 <0>         0.1337
      7 C5          0.2646   -0.0567    3.1327 C.3       1 <0>         0.1004
      8 N2          0.8694   -0.5031    1.8660 N.pl3     1 <0>        -0.9876
      9 S1          2.2936   -1.3482    1.8575 S.o2      1 <0>         2.6881
     10 O1          2.4081   -1.9640    3.1330 O.2       1 <0>        -0.9464
     11 O2          2.3169   -2.0925    0.6473 O.2       1 <0>        -0.9450
     12 C6          3.5984   -0.1690    1.7486 C.ar      1 <0>        -0.6501
     13 C7          4.0622    0.2357    0.5102 C.ar      1 <0>        -0.0276
     14 C8          5.0858    1.1607    0.4209 C.ar      1 <0>        -0.1073
     15 C9          5.6487    1.6831    1.5692 C.ar      1 <0>        -0.0791
     16 C10         5.1852    1.2789    2.8135 C.ar      1 <0>         0.1208
     17 C11         4.1530    0.3544    2.9000 C.ar      1 <0>        -0.0368
     18 N3          5.7549    1.8071    3.9810 N.pl3     1 <0>        -0.4158
     19 C12         6.7668    2.7297    4.0487 C.2       1 <0>        -0.0566
     20 C13         7.0025    2.9547    5.3552 C.2       1 <0>        -0.0154
     21 N4          6.1607    2.1934    6.0699 N.2       1 <0>        -0.4790
     22 C14         5.4043    1.5059    5.2583 C.2       1 <0>         0.1900
     23 C15        -3.0596    0.4379    1.9513 C.ar      1 <0>         0.2152
     24 C16        -3.0448    1.8268    1.9643 C.ar      1 <0>        -0.0988
     25 C17        -4.2340    2.5290    1.9674 C.ar      1 <0>        -0.1133
     26 C18        -5.4406    1.8494    1.9576 C.ar      1 <0>         0.0977
     27 C19        -5.4577    0.4651    1.9446 C.ar      1 <0>        -0.1021
     28 C20        -4.2706   -0.2413    1.9362 C.ar      1 <0>        -0.1658
     29 C21        -4.2899   -1.7480    1.9157 C.3       1 <0>         0.5173
     30 F1         -5.6096   -2.1991    2.0256 F         1 <0>        -0.1783
     31 F2         -3.7394   -2.2052    0.7136 F         1 <0>        -0.1723
     32 F3         -3.5385   -2.2386    2.9890 F         1 <0>        -0.1693
     33 F4         -6.6028    2.5383    1.9611 F         1 <0>        -0.1295
     34 H2          1.1727    1.6992    0.2939 H         1 <0>         0.0573
     35 H3         -0.4174    1.5652   -0.4948 H         1 <0>         0.0697
     36 H4         -0.3147    1.8038    1.2661 H         1 <0>         0.0656
     37 H5         -1.8352   -0.3331   -0.1546 H         1 <0>         0.0875
     38 H6         -1.2427   -1.8106    0.6484 H         1 <0>         0.0681
     39 H7         -1.6945   -0.1171    4.0386 H         1 <0>         0.0872
     40 H8         -1.1520   -1.6713    3.3536 H         1 <0>         0.0698
     41 H9          0.2516    1.0327    3.1673 H         1 <0>         0.0760
     42 H10         0.8441   -0.4449    3.9703 H         1 <0>         0.1012
     43 H11         3.6242   -0.1720   -0.3889 H         1 <0>         0.1480
     44 H12         5.4460    1.4749   -0.5476 H         1 <0>         0.1462
     45 H13         6.4487    2.4052    1.4988 H         1 <0>         0.1408
     46 H14         3.7871    0.0415    3.8668 H         1 <0>         0.1476
     47 H15         7.2774    3.1875    3.2144 H         1 <0>         0.1796
     48 H16         7.7420    3.6309    5.7581 H         1 <0>         0.1779
     49 H17         4.6311    0.8118    5.5528 H         1 <0>         0.2111
     50 H18        -2.1041    2.3572    1.9723 H         1 <0>         0.1454
     51 H19        -4.2230    3.6088    1.9778 H         1 <0>         0.1467
     52 H20        -6.3999   -0.0628    1.9370 H         1 <0>         0.1520
@<TRIPOS>BOND
     1    1    2 1
     2    1   34 1
     3    1   35 1
     4    1   36 1
     5    2    3 1
     6    2    8 1
     7    2    4 1
     8    4    5 1
     9    4   37 1
    10    4   38 1
    11    5    6 1
    12    5   23 1
    13    6    7 1
    14    6   39 1
    15    6   40 1
    16    7    8 1
    17    7   41 1
    18    7   42 1
    19    8    9 1
    20    9   10 2
    21    9   11 2
    22    9   12 1
    23   12   17 ar
    24   12   13 ar
    25   13   14 ar
    26   13   43 1
    27   14   15 ar
    28   14   44 1
    29   15   16 ar
    30   15   45 1
    31   16   17 ar
    32   16   18 1
    33   17   46 1
    34   18   22 1
    35   18   19 1
    36   19   20 2
    37   19   47 1
    38   20   21 1
    39   20   48 1
    40   21   22 2
    41   22   49 1
    42   23   28 ar
    43   23   24 ar
    44   24   25 ar
    45   24   50 1
    46   25   26 ar
    47   25   51 1
    48   26   27 ar
    49   26   33 1
    50   27   28 ar
    51   27   52 1
    52   28   29 1
    53   29   30 1
    54   29   31 1
    55   29   32 1
@<TRIPOS>MOLECULE
CHEMBL222256
   55    58     0     0     0
SMALL
USER_CHARGES

@<TRIPOS>ATOM
      1 C1         -1.1077    3.0085    0.3360 C.ar      1 <0>         0.0099
      2 C2         -0.0846    3.9608    0.3572 C.ar      1 <0>        -0.1925
      3 C3         -0.4002    5.3225    0.3359 C.ar      1 <0>        -0.0847
      4 C4         -1.7176    5.7221    0.2942 C.ar      1 <0>        -0.1422
      5 C5         -2.7348    4.7711    0.2732 C.ar      1 <0>         0.2744
      6 C6         -2.4233    3.4139    0.2943 C.ar      1 <0>        -0.1253
      7 Cl1        -3.6945    2.2319    0.2673 Cl        1 <0>        -0.0497
      8 N1         -4.0652    5.1779    0.2310 N.pl3     1 <0>        -0.8505
      9 Cl2        -2.1105    7.4128    0.2684 Cl        1 <0>        -0.0416
     10 C7          1.3255    3.5297    0.4024 C.2       1 <0>         0.5925
     11 O1          1.6448    2.5635    1.0680 O.2       1 <0>        -0.4955
     12 N2          2.2598    4.2068   -0.2941 N.am      1 <0>        -0.6145
     13 C8          2.2508    5.6717   -0.2995 C.3       1 <0>         0.1520
     14 C9          1.8823    6.1846    1.0941 C.3       1 <0>        -0.1964
     15 C10         1.8729    7.7146    1.0884 C.3       1 <0>        -0.0965
     16 C11         0.8440    8.2145    0.0724 C.3       1 <0>        -0.1447
     17 C12         1.2126    7.7017   -1.3212 C.3       1 <0>        -0.1146
     18 C13         1.2219    6.1717   -1.3155 C.3       1 <0>        -0.1830
     19 C14         0.8348    9.7215    0.0669 C.2       1 <0>         0.5382
     20 O2          1.6045   10.3353    0.7752 O.2       1 <0>        -0.5334
     21 N3         -0.0288   10.3872   -0.7253 N.am      1 <0>        -0.6194
     22 C15        -1.0953    9.7774   -1.5329 C.3       1 <0>         0.0939
     23 C16        -1.8063   10.9188   -2.2900 C.3       1 <0>        -0.1348
     24 C17        -0.7386   12.0445   -2.3038 C.3       1 <0>        -0.1337
     25 C18        -0.0646   11.8480   -0.9205 C.3       1 <0>         0.1029
     26 C19         3.2844    3.4778   -1.0458 C.3       1 <0>         0.0805
     27 C20         3.1677    1.9533   -1.1033 C.3       1 <0>        -0.1866
     28 C21         4.2575    2.6054   -0.2502 C.3       1 <0>        -0.1865
     29 H1         -0.8666    1.9558    0.3478 H         1 <0>         0.1481
     30 H2          0.3882    6.0604    0.3526 H         1 <0>         0.2273
     31 H3         -4.2831    6.1229    0.2163 H         1 <0>         0.4078
     32 H4         -4.7744    4.5163    0.2163 H         1 <0>         0.4092
     33 H5          3.2397    6.0401   -0.5725 H         1 <0>         0.1030
     34 H6          0.8934    5.8162    1.3670 H         1 <0>         0.1125
     35 H7          2.6153    5.8284    1.8179 H         1 <0>         0.0884
     36 H8          1.6104    8.0800    2.0812 H         1 <0>         0.0815
     37 H9          2.8618    8.0830    0.8154 H         1 <0>         0.0809
     38 H10        -0.1448    7.8461    0.3454 H         1 <0>         0.1174
     39 H11         0.4795    8.0578   -2.0450 H         1 <0>         0.0813
     40 H12         2.2014    8.0701   -1.5942 H         1 <0>         0.0759
     41 H13         1.4845    5.8063   -2.3083 H         1 <0>         0.0830
     42 H14         0.2331    5.8033   -1.0425 H         1 <0>         0.1079
     43 H15        -0.6648    9.0726   -2.2442 H         1 <0>         0.0790
     44 H16        -1.8051    9.2648   -0.8835 H         1 <0>         0.0620
     45 H17        -2.0557   10.6113   -3.3055 H         1 <0>         0.0858
     46 H18        -2.6988   11.2404   -1.7531 H         1 <0>         0.0776
     47 H19        -0.0251   11.8963   -3.1144 H         1 <0>         0.0784
     48 H20        -1.2070   13.0264   -2.3724 H         1 <0>         0.0865
     49 H21        -0.6565   12.3211   -0.1369 H         1 <0>         0.0685
     50 H22         0.9468   12.2543   -0.9307 H         1 <0>         0.0797
     51 H23         3.6712    3.9869   -1.9285 H         1 <0>         0.1315
     52 H24         2.3285    1.4928   -0.5819 H         1 <0>         0.1077
     53 H25         3.4776    1.4592   -2.0241 H         1 <0>         0.1009
     54 H26         5.2845    2.5403   -0.6097 H         1 <0>         0.0970
     55 H27         4.1354    2.5739    0.8325 H         1 <0>         0.1028
@<TRIPOS>BOND
     1    1    6 ar
     2    1    2 ar
     3    1   29 1
     4    2    3 ar
     5    2   10 1
     6    3    4 ar
     7    3   30 1
     8    4    5 ar
     9    4    9 1
    10    5    6 ar
    11    5    8 1
    12    6    7 1
    13    8   31 1
    14    8   32 1
    15   10   11 2
    16   10   12 am
    17   12   13 1
    18   12   26 1
    19   13   18 1
    20   13   14 1
    21   13   33 1
    22   14   15 1
    23   14   34 1
    24   14   35 1
    25   15   16 1
    26   15   36 1
    27   15   37 1
    28   16   17 1
    29   16   19 1
    30   16   38 1
    31   17   18 1
    32   17   39 1
    33   17   40 1
    34   18   41 1
    35   18   42 1
    36   19   20 2
    37   19   21 am
    38   21   25 1
    39   21   22 1
    40   22   23 1
    41   22   43 1
    42   22   44 1
    43   23   24 1
    44   23   45 1
    45   23   46 1
    46   24   25 1
    47   24   47 1
    48   24   48 1
    49   25   49 1
    50   25   50 1
    51   26   28 1
    52   26   27 1
    53   26   51 1
    54   27   28 1
    55   27   52 1
    56   27   53 1
    57   28   54 1
    58   28   55 1
@<TRIPOS>MOLECULE
CHEMBL237107
   42    43     0     0     0
SMALL
USER_CHARGES

@<TRIPOS>ATOM
      1 C1          0.0193    1.5641    0.1871 C.3       1 <0>        -0.1667
      2 C2          0.1175    0.0411    0.0787 C.3       1 <0>         0.1783
      3 H1         -0.8787   -0.3939    0.1591 H         1 <0>         0.1240
      4 C3          0.7218   -0.3300   -1.2510 C.ar      1 <0>        -0.0652
      5 C4          1.4043    0.6192   -1.9891 C.ar      1 <0>        -0.1005
      6 C5          1.9585    0.2789   -3.2087 C.ar      1 <0>        -0.0869
      7 C6          1.8308   -1.0108   -3.6903 C.ar      1 <0>        -0.1068
      8 C7          1.1494   -1.9599   -2.9520 C.ar      1 <0>        -0.0728
      9 C8          0.5986   -1.6206   -1.7301 C.ar      1 <0>        -0.1632
     10 C9         -0.1399   -2.6567   -0.9226 C.3       1 <0>         0.5040
     11 F1         -0.1759   -3.8621   -1.6319 F         1 <0>        -0.1746
     12 F2          0.5170   -2.8528    0.2969 F         1 <0>        -0.1748
     13 F3         -1.4463   -2.2173   -0.6832 F         1 <0>        -0.1687
     14 N1          0.9630   -0.4719    1.1595 N.pl3     1 <0>        -0.6501
     15 C10         0.4280   -0.7094    2.3869 C.2       1 <0>         0.6133
     16 N2         -0.8372   -0.5101    2.6814 N.2       1 <0>        -0.6464
     17 C11        -1.0988   -0.8221    3.9510 C.2       1 <0>         0.5089
     18 O1         -2.1692   -0.7476    4.5214 O.2       1 <0>        -0.4561
     19 C12         0.2206   -1.2897    4.5328 C.3       1 <0>         0.0170
     20 O2          1.1335   -1.1786    3.4286 O.3       1 <0>        -0.3127
     21 C13         0.1191   -2.7439    4.9974 C.3       1 <0>        -0.1404
     22 C14         0.6517   -0.3829    5.6873 C.3       1 <0>        -0.0766
     23 C15         0.6777    1.0710    5.2114 C.3       1 <0>        -0.1563
     24 C16        -0.3402   -0.5233    6.8438 C.3       1 <0>        -0.1561
     25 H2          1.0215    1.9911    0.2238 H         1 <0>         0.0665
     26 H3         -0.5114    1.9566   -0.6803 H         1 <0>         0.0808
     27 H4         -0.5222    1.8295    1.0951 H         1 <0>         0.0781
     28 H5          1.5040    1.6266   -1.6129 H         1 <0>         0.1445
     29 H6          2.4910    1.0205   -3.7856 H         1 <0>         0.1385
     30 H7          2.2633   -1.2765   -4.6436 H         1 <0>         0.1396
     31 H8          1.0493   -2.9672   -3.3284 H         1 <0>         0.1427
     32 H9          1.9045   -0.6422    0.9996 H         1 <0>         0.4213
     33 H10        -0.1501   -3.3774    4.1522 H         1 <0>         0.0670
     34 H11         1.0798   -3.0645    5.4003 H         1 <0>         0.0785
     35 H12        -0.6448   -2.8258    5.7706 H         1 <0>         0.0932
     36 H13         1.6468   -0.6726    6.0248 H         1 <0>         0.0892
     37 H14        -0.3174    1.3607    4.8739 H         1 <0>         0.0587
     38 H15         0.9848    1.7170    6.0339 H         1 <0>         0.0701
     39 H16         1.3843    1.1710    4.3875 H         1 <0>         0.0547
     40 H17        -0.3587   -1.5591    7.1828 H         1 <0>         0.0634
     41 H18        -0.0331    0.1227    7.6662 H         1 <0>         0.0665
     42 H19        -1.3353   -0.2335    6.5062 H         1 <0>         0.0761
@<TRIPOS>BOND
     1    1    2 1
     2    1   25 1
     3    1   26 1
     4    1   27 1
     5    2    3 1
     6    2    4 1
     7    2   14 1
     8    4    9 ar
     9    4    5 ar
    10    5    6 ar
    11    5   28 1
    12    6    7 ar
    13    6   29 1
    14    7    8 ar
    15    7   30 1
    16    8    9 ar
    17    8   31 1
    18    9   10 1
    19   10   11 1
    20   10   12 1
    21   10   13 1
    22   14   15 1
    23   14   32 1
    24   15   20 1
    25   15   16 2
    26   16   17 1
    27   17   18 2
    28   17   19 1
    29   19   20 1
    30   19   21 1
    31   19   22 1
    32   21   33 1
    33   21   34 1
    34   21   35 1
    35   22   23 1
    36   22   24 1
    37   22   36 1
    38   23   37 1
    39   23   38 1
    40   23   39 1
    41   24   40 1
    42   24   41 1
    43   24   42 1
@<TRIPOS>MOLECULE
CHEMBL237107__1
   41    42     0     0     0
SMALL
USER_CHARGES

@<TRIPOS>ATOM
      1 C1          0.1233    1.5722   -0.0359 C.3       1 <0>        -0.1592
      2 C2          0.1287    0.0425   -0.0642 C.3       1 <0>         0.1374
      3 H1          0.6033   -0.3022   -0.9829 H         1 <0>         0.0563
      4 C3          0.8954   -0.4792    1.1236 C.ar      1 <0>         0.0195
      5 C4          1.1477    0.3490    2.2016 C.ar      1 <0>        -0.1184
      6 C5          1.8509   -0.1295    3.2910 C.ar      1 <0>        -0.0942
      7 C6          2.3016   -1.4365    3.3030 C.ar      1 <0>        -0.1397
      8 C7          2.0486   -2.2647    2.2258 C.ar      1 <0>        -0.0803
      9 C8          1.3415   -1.7873    1.1379 C.ar      1 <0>        -0.1714
     10 C9          1.0611   -2.6919   -0.0343 C.3       1 <0>         0.5044
     11 F1          1.5766   -3.9661    0.2261 F         1 <0>        -0.1925
     12 F2         -0.3206   -2.7800   -0.2354 F         1 <0>        -0.1476
     13 F3          1.6669   -2.1693   -1.1820 F         1 <0>        -0.1815
     14 N1         -1.2494   -0.4518   -0.0114 N.2       1 <0>        -0.6383
     15 C10        -2.1328   -0.1082   -0.9864 C.2       1 <0>         0.5179
     16 N2         -1.8269    0.6569   -2.0103 N.2       1 <0>        -0.7210
     17 C11        -2.8737    0.8365   -2.8163 C.2       1 <0>         0.4902
     18 O1         -2.9100    1.4892   -3.8407 O.2       1 <0>        -0.5558
     19 C12        -4.0089    0.0544   -2.1857 C.3       1 <0>         0.0107
     20 O2         -3.4111   -0.5185   -1.0111 O.3       1 <0>        -0.3213
     21 C13        -4.4932   -1.0478   -3.1299 C.3       1 <0>        -0.1300
     22 C14        -5.1614    0.9874   -1.8086 C.3       1 <0>        -0.0719
     23 C15        -4.6340    2.1166   -0.9212 C.3       1 <0>        -0.1451
     24 C16        -5.7737    1.5807   -3.0790 C.3       1 <0>        -0.1494
     25 H2          1.1462    1.9376    0.0554 H         1 <0>         0.0359
     26 H3         -0.3170    1.9512   -0.9582 H         1 <0>         0.0845
     27 H4         -0.4632    1.9178    0.8154 H         1 <0>         0.0445
     28 H5          0.7956    1.3699    2.1922 H         1 <0>         0.1329
     29 H6          2.0486    0.5176    4.1327 H         1 <0>         0.1242
     30 H7          2.8517   -1.8102    4.1540 H         1 <0>         0.1254
     31 H8          2.4010   -3.2856    2.2351 H         1 <0>         0.1301
     32 H9         -3.6674   -1.7230   -3.3540 H         1 <0>         0.0563
     33 H10        -5.2997   -1.6056   -2.6539 H         1 <0>         0.0586
     34 H11        -4.8575   -0.6000   -4.0545 H         1 <0>         0.0738
     35 H12        -5.9220    0.4248   -1.2672 H         1 <0>         0.0694
     36 H13        -4.1977    1.6939   -0.0162 H         1 <0>         0.0572
     37 H14        -3.8734    2.6792   -1.4627 H         1 <0>         0.0568
     38 H15        -5.4550    2.7813   -0.6526 H         1 <0>         0.0509
     39 H16        -6.1495    0.7762   -3.7113 H         1 <0>         0.0536
     40 H17        -6.5948    2.2454   -2.8104 H         1 <0>         0.0499
     41 H18        -5.0131    2.1432   -3.6205 H         1 <0>         0.0771
@<TRIPOS>BOND
     1    1    2 1
     2    1   25 1
     3    1   26 1
     4    1   27 1
     5    2    3 1
     6    2    4 1
     7    2   14 1
     8    4    9 ar
     9    4    5 ar
    10    5    6 ar
    11    5   28 1
    12    6    7 ar
    13    6   29 1
    14    7    8 ar
    15    7   30 1
    16    8    9 ar
    17    8   31 1
    18    9   10 1
    19   10   11 1
    20   10   12 1
    21   10   13 1
    22   14   15 1
    23   15   20 1
    24   15   16 2
    25   16   17 1
    26   17   18 2
    27   17   19 1
    28   19   20 1
    29   19   21 1
    30   19   22 1
    31   21   32 1
    32   21   33 1
    33   21   34 1
    34   22   23 1
    35   22   24 1
    36   22   35 1
    37   23   36 1
    38   23   37 1
    39   23   38 1
    40   24   39 1
    41   24   40 1
    42   24   41 1
@<TRIPOS>MOLECULE
CHEMBL237107__2
   42    43     0     0     0
SMALL
USER_CHARGES

@<TRIPOS>ATOM
      1 C1         -0.0084    1.5296    0.1813 C.3       1 <0>        -0.1669
      2 C2          0.0991    0.0065    0.0840 C.3       1 <0>         0.1785
      3 H1         -0.8980   -0.4317    0.1282 H         1 <0>         0.1237
      4 C3          0.7552   -0.3685   -1.2199 C.ar      1 <0>        -0.0651
      5 C4          1.4625    0.5796   -1.9356 C.ar      1 <0>        -0.1005
      6 C5          2.0643    0.2357   -3.1314 C.ar      1 <0>        -0.0870
      7 C6          1.9593   -1.0566   -3.6116 C.ar      1 <0>        -0.1068
      8 C7          1.2530   -2.0046   -2.8956 C.ar      1 <0>        -0.0730
      9 C8          0.6546   -1.6617   -1.6973 C.ar      1 <0>        -0.1632
     10 C9         -0.1111   -2.6967   -0.9140 C.3       1 <0>         0.5041
     11 F1         -0.1161   -3.9052   -1.6187 F         1 <0>        -0.1746
     12 F2          0.4992   -2.8852    0.3307 F         1 <0>        -0.1742
     13 F3         -1.4271   -2.2605   -0.7269 F         1 <0>        -0.1688
     14 N1          0.9043   -0.4984    1.1988 N.pl3     1 <0>        -0.6500
     15 C10         0.3258   -0.7212    2.4092 C.2       1 <0>         0.6131
     16 N2         -0.9481   -0.5140    2.6572 N.2       1 <0>        -0.6463
     17 C11        -1.2550   -0.8118    3.9201 C.2       1 <0>         0.5067
     18 O1         -2.3444   -0.7275    4.4520 O.2       1 <0>        -0.4591
     19 C12         0.0414   -1.2783    4.5523 C.3       1 <0>         0.0190
     20 O2          0.9927   -1.1822    3.4795 O.3       1 <0>        -0.3096
     21 C13         0.4357   -0.3612    5.7118 C.3       1 <0>        -0.1401
     22 C14        -0.0823   -2.7273    5.0279 C.3       1 <0>        -0.0794
     23 C15        -0.4221   -3.6273    3.8383 C.3       1 <0>        -0.1560
     24 C16         1.2438   -3.1765    5.6448 C.3       1 <0>        -0.1477
     25 H2          0.9901    1.9604    0.2549 H         1 <0>         0.0665
     26 H3         -0.5063    1.9162   -0.7080 H         1 <0>         0.0807
     27 H4         -0.5858    1.7973    1.0662 H         1 <0>         0.0783
     28 H5          1.5445    1.5890   -1.5605 H         1 <0>         0.1445
     29 H6          2.6162    0.9765   -3.6908 H         1 <0>         0.1384
     30 H7          2.4289   -1.3251   -4.5463 H         1 <0>         0.1396
     31 H8          1.1707   -3.0140   -3.2709 H         1 <0>         0.1427
     32 H9          1.8500   -0.6739    1.0736 H         1 <0>         0.4213
     33 H10        -0.3441   -0.3823    6.4731 H         1 <0>         0.0907
     34 H11         1.3751   -0.7056    6.1442 H         1 <0>         0.0819
     35 H12         0.5569    0.6577    5.3440 H         1 <0>         0.0666
     36 H13        -0.8730   -2.7983    5.7748 H         1 <0>         0.0999
     37 H14         0.3686   -3.5563    3.0914 H         1 <0>         0.0592
     38 H15        -0.5102   -4.6595    4.1771 H         1 <0>         0.0694
     39 H16        -1.3669   -3.3073    3.3988 H         1 <0>         0.0557
     40 H17         1.4860   -2.5352    6.4924 H         1 <0>         0.0626
     41 H18         1.1558   -4.2087    5.9837 H         1 <0>         0.0638
     42 H19         2.0345   -3.1054    4.8979 H         1 <0>         0.0613
@<TRIPOS>BOND
     1    1    2 1
     2    1   25 1
     3    1   26 1
     4    1   27 1
     5    2    3 1
     6    2    4 1
     7    2   14 1
     8    4    9 ar
     9    4    5 ar
    10    5    6 ar
    11    5   28 1
    12    6    7 ar
    13    6   29 1
    14    7    8 ar
    15    7   30 1
    16    8    9 ar
    17    8   31 1
    18    9   10 1
    19   10   11 1
    20   10   12 1
    21   10   13 1
    22   14   15 1
    23   14   32 1
    24   15   20 1
    25   15   16 2
    26   16   17 1
    27   17   18 2
    28   17   19 1
    29   19   20 1
    30   19   21 1
    31   19   22 1
    32   21   33 1
    33   21   34 1
    34   21   35 1
    35   22   23 1
    36   22   24 1
    37   22   36 1
    38   23   37 1
    39   23   38 1
    40   23   39 1
    41   24   40 1
    42   24   41 1
    43   24   42 1
@<TRIPOS>MOLECULE
CHEMBL237107__3
   41    42     0     0     0
SMALL
USER_CHARGES

@<TRIPOS>ATOM
      1 C1          0.1235    1.5723   -0.0359 C.3       1 <0>        -0.1596
      2 C2          0.1288    0.0426   -0.0643 C.3       1 <0>         0.1374
      3 H1          0.6035   -0.3022   -0.9830 H         1 <0>         0.0564
      4 C3          0.8955   -0.4792    1.1236 C.ar      1 <0>         0.0196
      5 C4          1.1477    0.3490    2.2015 C.ar      1 <0>        -0.1185
      6 C5          1.8509   -0.1295    3.2910 C.ar      1 <0>        -0.0942
      7 C6          2.3015   -1.4365    3.3031 C.ar      1 <0>        -0.1397
      8 C7          2.0485   -2.2647    2.2259 C.ar      1 <0>        -0.0804
      9 C8          1.3415   -1.7873    1.1379 C.ar      1 <0>        -0.1716
     10 C9          1.0611   -2.6919   -0.0343 C.3       1 <0>         0.5046
     11 F1          1.5766   -3.9661    0.2261 F         1 <0>        -0.1926
     12 F2         -0.3206   -2.7800   -0.2354 F         1 <0>        -0.1474
     13 F3          1.6669   -2.1693   -1.1820 F         1 <0>        -0.1815
     14 N1         -1.2493   -0.4517   -0.0115 N.2       1 <0>        -0.6381
     15 C10        -2.1327   -0.1081   -0.9865 C.2       1 <0>         0.5178
     16 N2         -1.8267    0.6570   -2.0104 N.2       1 <0>        -0.7205
     17 C11        -2.8735    0.8367   -2.8165 C.2       1 <0>         0.4867
     18 O1         -2.9097    1.4893   -3.8409 O.2       1 <0>        -0.5596
     19 C12        -4.0087    0.0546   -2.1859 C.3       1 <0>         0.0130
     20 O2         -3.4110   -0.5183   -1.0113 O.3       1 <0>        -0.3173
     21 C13        -5.1612    0.9876   -1.8089 C.3       1 <0>        -0.1299
     22 C14        -4.4930   -1.0476   -3.1301 C.3       1 <0>        -0.0743
     23 C15        -3.3339   -1.9954   -3.4446 C.3       1 <0>        -0.1449
     24 C16        -5.6251   -1.8304   -2.4620 C.3       1 <0>        -0.1423
     25 H2          1.1464    1.9376    0.0553 H         1 <0>         0.0361
     26 H3         -0.3167    1.9512   -0.9583 H         1 <0>         0.0843
     27 H4         -0.4631    1.9179    0.8153 H         1 <0>         0.0445
     28 H5          0.7957    1.3700    2.1921 H         1 <0>         0.1329
     29 H6          2.0486    0.5176    4.1327 H         1 <0>         0.1242
     30 H7          2.8516   -1.8102    4.1541 H         1 <0>         0.1254
     31 H8          2.4009   -3.2856    2.2352 H         1 <0>         0.1301
     32 H9         -5.5395    1.4784   -2.7056 H         1 <0>         0.0703
     33 H10        -5.9608    0.4089   -1.3465 H         1 <0>         0.0630
     34 H11        -4.8042    1.7403   -1.1060 H         1 <0>         0.0559
     35 H12        -4.8573   -0.5997   -4.0547 H         1 <0>         0.0797
     36 H13        -2.5274   -1.4377   -3.9206 H         1 <0>         0.0542
     37 H14        -2.9697   -2.4432   -2.5200 H         1 <0>         0.0611
     38 H15        -3.6790   -2.7806   -4.1173 H         1 <0>         0.0506
     39 H16        -6.4509   -1.1551   -2.2379 H         1 <0>         0.0539
     40 H17        -5.9702   -2.6156   -3.1347 H         1 <0>         0.0495
     41 H18        -5.2608   -2.2782   -1.5374 H         1 <0>         0.0611
@<TRIPOS>BOND
     1    1    2 1
     2    1   25 1
     3    1   26 1
     4    1   27 1
     5    2    3 1
     6    2    4 1
     7    2   14 1
     8    4    9 ar
     9    4    5 ar
    10    5    6 ar
    11    5   28 1
    12    6    7 ar
    13    6   29 1
    14    7    8 ar
    15    7   30 1
    16    8    9 ar
    17    8   31 1
    18    9   10 1
    19   10   11 1
    20   10   12 1
    21   10   13 1
    22   14   15 1
    23   15   20 1
    24   15   16 2
    25   16   17 1
    26   17   18 2
    27   17   19 1
    28   19   20 1
    29   19   21 1
    30   19   22 1
    31   21   32 1
    32   21   33 1
    33   21   34 1
    34   22   23 1
    35   22   24 1
    36   22   35 1
    37   23   36 1
    38   23   37 1
    39   23   38 1
    40   24   39 1
    41   24   40 1
    42   24   41 1
@<TRIPOS>MOLECULE
CHEMBL430215
   56    58     0     0     0
SMALL
USER_CHARGES

@<TRIPOS>ATOM
      1 C1          0.6793    2.4159    0.0865 C.3       1 <0>        -0.1398
      2 C2          0.6763    0.8909    0.2098 C.3       1 <0>        -0.0385
      3 C3          1.4935    0.4767    1.4351 C.3       1 <0>        -0.1411
      4 C4         -0.7627    0.3946    0.3650 C.3       1 <0>        -0.1477
      5 C5          1.2856    0.2856   -1.0285 C.ar      1 <0>        -0.0139
      6 C6          0.5402   -0.5695   -1.8185 C.ar      1 <0>        -0.1425
      7 C7          1.0991   -1.1247   -2.9544 C.ar      1 <0>        -0.0193
      8 C8          2.4034   -0.8245   -3.3005 C.ar      1 <0>        -0.6868
      9 C9          3.1485    0.0312   -2.5109 C.ar      1 <0>        -0.0181
     10 C10         2.5882    0.5898   -1.3774 C.ar      1 <0>        -0.1369
     11 S1          3.1162   -1.5332   -4.7476 S.o2      1 <0>         2.6888
     12 O1          4.5238   -1.5235   -4.5535 O.2       1 <0>        -0.9478
     13 O2          2.3921   -2.7264   -5.0145 O.2       1 <0>        -0.9553
     14 N1          2.8046   -0.4996   -6.0034 N.pl3     1 <0>        -0.9791
     15 C11         1.5965   -0.6690   -6.7585 C.3       1 <0>         0.1330
     16 C12         1.8715   -1.6967   -7.8691 C.3       1 <0>        -0.1701
     17 C13         2.6047   -1.1008   -8.9971 C.3       1 <0>         0.1515
     18 N2          3.8916   -0.5314   -8.5319 N.pl3     1 <0>        -0.6550
     19 C14         3.9143    0.7311   -7.8477 C.3       1 <0>         0.1410
     20 C15         3.7840    0.5791   -6.3085 C.3       1 <0>         0.0906
     21 C16         5.0777   -1.2202   -8.7577 C.ar      1 <0>         0.4271
     22 C17         5.7931   -0.9955   -9.9297 C.ar      1 <0>        -0.2424
     23 C18         6.9716   -1.6877  -10.1414 C.ar      1 <0>        -0.0235
     24 C19         7.3969   -2.5849   -9.1704 C.ar      1 <0>        -0.1795
     25 C20         6.6374   -2.7585   -8.0311 C.ar      1 <0>         0.1458
     26 N3          5.5193   -2.0802   -7.8531 N.ar      1 <0>        -0.4825
     27 C21         5.2905   -0.0117  -10.9546 C.3       1 <0>         0.5236
     28 F1          6.1512   -0.0066  -12.0575 F         1 <0>        -0.1797
     29 F2          4.0063   -0.3832  -11.3671 F         1 <0>        -0.1717
     30 F3          5.2473    1.2679  -10.3909 F         1 <0>        -0.1732
     31 H1          1.7044    2.7695   -0.0241 H         1 <0>         0.0591
     32 H2          0.0971    2.7110   -0.7864 H         1 <0>         0.0579
     33 H3          0.2386    2.8537    0.9821 H         1 <0>         0.0636
     34 H4          1.0528    0.9145    2.3308 H         1 <0>         0.0638
     35 H5          1.4914   -0.6098    1.5230 H         1 <0>         0.0585
     36 H6          2.5187    0.8302    1.3246 H         1 <0>         0.0593
     37 H7         -1.3449    0.6897   -0.5080 H         1 <0>         0.0607
     38 H8         -0.7648   -0.6918    0.4528 H         1 <0>         0.0609
     39 H9         -1.2034    0.8324    1.2606 H         1 <0>         0.0630
     40 H10        -0.4788   -0.8040   -1.5481 H         1 <0>         0.1369
     41 H11         0.5170   -1.7933   -3.5712 H         1 <0>         0.1375
     42 H12         4.1676    0.2655   -2.7812 H         1 <0>         0.1376
     43 H13         3.1691    1.2613   -0.7626 H         1 <0>         0.1313
     44 H14         0.8027   -1.0340   -6.1068 H         1 <0>         0.0762
     45 H15         1.3023    0.2825   -7.2015 H         1 <0>         0.0834
     46 H16         2.4600   -2.5163   -7.4566 H         1 <0>         0.0788
     47 H17         0.9219   -2.0906   -8.2314 H         1 <0>         0.0812
     48 H18         2.7996   -1.8680   -9.7463 H         1 <0>         0.0718
     49 H19         2.0007   -0.3104   -9.4426 H         1 <0>         0.0728
     50 H20         4.8522    1.2381   -8.0740 H         1 <0>         0.0765
     51 H21         3.0884    1.3433   -8.2099 H         1 <0>         0.0792
     52 H22         3.4378    1.5175   -5.8753 H         1 <0>         0.0738
     53 H23         4.7543    0.3194   -5.8854 H         1 <0>         0.0935
     54 H24         7.5479   -1.5342  -11.0418 H         1 <0>         0.1500
     55 H25         8.3126   -3.1414   -9.3055 H         1 <0>         0.1490
     56 H26         6.9643   -3.4555   -7.2736 H         1 <0>         0.1667
@<TRIPOS>BOND
     1    1    2 1
     2    1   31 1
     3    1   32 1
     4    1   33 1
     5    2    3 1
     6    2    4 1
     7    2    5 1
     8    3   34 1
     9    3   35 1
    10    3   36 1
    11    4   37 1
    12    4   38 1
    13    4   39 1
    14    5   10 ar
    15    5    6 ar
    16    6    7 ar
    17    6   40 1
    18    7    8 ar
    19    7   41 1
    20    8    9 ar
    21    8   11 1
    22    9   10 ar
    23    9   42 1
    24   10   43 1
    25   11   12 2
    26   11   13 2
    27   11   14 1
    28   14   20 1
    29   14   15 1
    30   15   16 1
    31   15   44 1
    32   15   45 1
    33   16   17 1
    34   16   46 1
    35   16   47 1
    36   17   18 1
    37   17   48 1
    38   17   49 1
    39   18   19 1
    40   18   21 1
    41   19   20 1
    42   19   50 1
    43   19   51 1
    44   20   52 1
    45   20   53 1
    46   21   26 ar
    47   21   22 ar
    48   22   23 ar
    49   22   27 1
    50   23   24 ar
    51   23   54 1
    52   24   25 ar
    53   24   55 1
    54   25   26 ar
    55   25   56 1
    56   27   28 1
    57   27   29 1
    58   27   30 1
@<TRIPOS>MOLECULE
CHEMBL476142
   48    51     0     0     0
SMALL
USER_CHARGES

@<TRIPOS>ATOM
      1 C1          0.0098    0.2142   -0.8359 C.3       1 <0>        -0.1954
      2 C2         -1.2368    0.6942   -0.0900 C.3       1 <0>         0.1222
      3 C3         -1.7458    1.9886   -0.7274 C.3       1 <0>        -0.1786
      4 N1         -2.2791   -0.3322   -0.1700 N.pl3     1 <0>        -0.4584
      5 C4         -3.3861   -0.4489    0.6266 C.2       1 <0>         0.2168
      6 N2         -4.0490   -1.5052    0.2102 N.2       1 <0>        -0.2723
      7 N3         -3.4308   -2.0427   -0.7804 N.2       1 <0>        -0.2761
      8 C5         -2.3500   -1.3638   -1.0559 C.2       1 <0>         0.2227
      9 C6         -1.3608   -1.6681   -2.1514 C.3       1 <0>        -0.0191
     10 C7         -1.1279   -3.1384   -2.5046 C.3       1 <0>        -0.1324
     11 C8         -0.0523   -2.3529   -1.7516 C.3       1 <0>        -0.1552
     12 C9         -1.3062   -0.6651   -3.2748 C.ar      1 <0>        -0.0474
     13 C10        -0.2842   -0.7236   -4.2039 C.ar      1 <0>        -0.0889
     14 C11        -0.2334    0.1954   -5.2348 C.ar      1 <0>        -0.1433
     15 C12        -1.2065    1.1750   -5.3369 C.ar      1 <0>         0.0998
     16 C13        -2.2297    1.2326   -4.4057 C.ar      1 <0>        -0.1458
     17 C14        -2.2814    0.3093   -3.3787 C.ar      1 <0>        -0.0840
     18 F1         -1.1576    2.0742   -6.3440 F         1 <0>        -0.1364
     19 C15        -3.7644    0.4434    1.7436 C.ar      1 <0>        -0.0311
     20 C16        -2.7910    1.2076    2.3889 C.ar      1 <0>        -0.0797
     21 C17        -3.1475    2.0385    3.4294 C.ar      1 <0>        -0.1176
     22 C18        -4.4732    2.1158    3.8357 C.ar      1 <0>         0.1203
     23 C19        -5.4445    1.3566    3.1963 C.ar      1 <0>        -0.1860
     24 C20        -5.0966    0.5277    2.1513 C.ar      1 <0>        -0.0321
     25 O1         -4.8207    2.9358    4.8615 O.3       1 <0>        -0.3086
     26 C21        -6.2016    2.9669    5.2279 C.3       1 <0>         0.6041
     27 F2         -6.6102    1.6862    5.6154 F         1 <0>        -0.1621
     28 F3         -6.3815    3.8560    6.2930 F         1 <0>        -0.1281
     29 F4         -6.9649    3.3889    4.1341 F         1 <0>        -0.1628
     30 H1          0.8606    0.8374   -0.5603 H         1 <0>         0.0799
     31 H2          0.2168   -0.8220   -0.5686 H         1 <0>         0.0861
     32 H3         -0.1597    0.2854   -1.9103 H         1 <0>         0.0863
     33 H4         -0.9869    0.8775    0.9550 H         1 <0>         0.1063
     34 H5         -2.0514    1.7919   -1.7551 H         1 <0>         0.0752
     35 H6         -2.5982    2.3623   -0.1601 H         1 <0>         0.0671
     36 H7         -0.9504    2.7339   -0.7212 H         1 <0>         0.0841
     37 H8         -1.6901   -3.8857   -1.9446 H         1 <0>         0.1131
     38 H9         -0.9352   -3.3806   -3.5497 H         1 <0>         0.1114
     39 H10         0.8479   -2.0782   -2.3013 H         1 <0>         0.1141
     40 H11         0.0930   -2.5833   -0.6962 H         1 <0>         0.1065
     41 H12         0.4749   -1.4876   -4.1239 H         1 <0>         0.1387
     42 H13         0.5653    0.1497   -5.9603 H         1 <0>         0.1409
     43 H14        -2.9891    1.9965   -4.4842 H         1 <0>         0.1377
     44 H15        -3.0818    0.3514   -2.6549 H         1 <0>         0.1259
     45 H16        -1.7597    1.1478    2.0737 H         1 <0>         0.1438
     46 H17        -2.3948    2.6299    3.9295 H         1 <0>         0.1475
     47 H18        -6.4744    1.4190    3.5153 H         1 <0>         0.1428
     48 H19        -5.8532   -0.0588    1.6514 H         1 <0>         0.1481
@<TRIPOS>BOND
     1    1    2 1
     2    1   30 1
     3    1   31 1
     4    1   32 1
     5    2    3 1
     6    2    4 1
     7    2   33 1
     8    3   34 1
     9    3   35 1
    10    3   36 1
    11    4    8 1
    12    4    5 1
    13    5    6 2
    14    5   19 1
    15    6    7 1
    16    7    8 2
    17    8    9 1
    18    9   11 1
    19    9   10 1
    20    9   12 1
    21   10   11 1
    22   10   37 1
    23   10   38 1
    24   11   39 1
    25   11   40 1
    26   12   17 ar
    27   12   13 ar
    28   13   14 ar
    29   13   41 1
    30   14   15 ar
    31   14   42 1
    32   15   16 ar
    33   15   18 1
    34   16   17 ar
    35   16   43 1
    36   17   44 1
    37   19   24 ar
    38   19   20 ar
    39   20   21 ar
    40   20   45 1
    41   21   22 ar
    42   21   46 1
    43   22   23 ar
    44   22   25 1
    45   23   24 ar
    46   23   47 1
    47   24   48 1
    48   25   26 1
    49   26   27 1
    50   26   28 1
    51   26   29 1
@<TRIPOS>MOLECULE
CHEMBL460393
   40    42     0     0     0
SMALL
USER_CHARGES

@<TRIPOS>ATOM
      1 C1         -0.0187    1.5258    0.0104 C.3       1 <0>        -0.1593
      2 C2          0.0021   -0.0041    0.0020 C.3       1 <0>         0.1888
      3 H1          0.5293   -0.3651    0.8851 H         1 <0>         0.1088
      4 C3         -1.4117   -0.5257    0.0127 C.ar      1 <0>        -0.1003
      5 C4         -2.1410   -0.5687   -1.1610 C.ar      1 <0>        -0.0858
      6 C5         -3.4374   -1.0472   -1.1525 C.ar      1 <0>        -0.1474
      7 C6         -4.0059   -1.4838    0.0322 C.ar      1 <0>         0.0975
      8 C7         -3.2746   -1.4402    1.2071 C.ar      1 <0>        -0.1488
      9 C8         -1.9765   -0.9662    1.1952 C.ar      1 <0>        -0.0743
     10 F1         -5.2733   -1.9514    0.0418 F         1 <0>        -0.1400
     11 N1          0.6878   -0.4765   -1.2033 N.pl3     1 <0>        -0.6565
     12 C9          2.0470   -0.5883   -1.2151 C.2       1 <0>         0.4563
     13 N2          2.8767   -0.3166   -0.2247 N.2       1 <0>        -0.7043
     14 C10         4.1773   -0.4449   -0.2986 C.2       1 <0>         0.5416
     15 O1          4.9316   -0.1919    0.6205 O.2       1 <0>        -0.4767
     16 C11         4.6447   -0.9460   -1.6605 C.3       1 <0>        -0.0831
     17 S1          3.0116   -1.1080   -2.4928 S.3       1 <0>        -0.0943
     18 C12         5.3459   -2.3011   -1.5473 C.3       1 <0>        -0.0960
     19 C13         5.5349    0.0833   -2.3598 C.3       1 <0>         0.2241
     20 C14         6.5681    0.7385   -1.4280 C.3       1 <0>        -0.1855
     21 C15         6.2676    2.0606   -2.1537 C.3       1 <0>        -0.1190
     22 C16         4.8869    1.4720   -2.4884 C.3       1 <0>        -0.1765
     23 O2          6.0918   -0.4040   -3.5822 O.3       1 <0>        -0.8495
     24 H2          1.0039    1.9031    0.0027 H         1 <0>         0.0738
     25 H3         -0.5459    1.8868   -0.8726 H         1 <0>         0.0593
     26 H4         -0.5289    1.8773    0.9072 H         1 <0>         0.0701
     27 H5         -1.6975   -0.2278   -2.0848 H         1 <0>         0.1327
     28 H6         -4.0070   -1.0804   -2.0694 H         1 <0>         0.1380
     29 H7         -3.7171   -1.7802    2.1317 H         1 <0>         0.1380
     30 H8         -1.4043   -0.9363    2.1107 H         1 <0>         0.1382
     31 H9          0.1751   -0.7099   -1.9930 H         1 <0>         0.4176
     32 H10         4.6598   -3.0303   -1.1164 H         1 <0>         0.0386
     33 H11         5.6549   -2.6342   -2.5381 H         1 <0>         0.0830
     34 H12         6.2225   -2.2043   -0.9067 H         1 <0>         0.0712
     35 H13         6.2717    0.7390   -0.3791 H         1 <0>         0.0791
     36 H14         7.5851    0.3776   -1.5813 H         1 <0>         0.0476
     37 H15         6.2250    2.9235   -1.4892 H         1 <0>         0.0366
     38 H16         6.8940    2.2300   -3.0295 H         1 <0>         0.0683
     39 H17         4.5467    1.7032   -3.4978 H         1 <0>         0.0511
     40 H18         4.1309    1.6731   -1.7294 H         1 <0>         0.0368
@<TRIPOS>BOND
     1    1    2 1
     2    1   24 1
     3    1   25 1
     4    1   26 1
     5    2    3 1
     6    2    4 1
     7    2   11 1
     8    4    9 ar
     9    4    5 ar
    10    5    6 ar
    11    5   27 1
    12    6    7 ar
    13    6   28 1
    14    7    8 ar
    15    7   10 1
    16    8    9 ar
    17    8   29 1
    18    9   30 1
    19   11   12 1
    20   11   31 1
    21   12   17 1
    22   12   13 2
    23   13   14 1
    24   14   15 2
    25   14   16 1
    26   16   17 1
    27   16   18 1
    28   16   19 1
    29   18   32 1
    30   18   33 1
    31   18   34 1
    32   19   22 1
    33   19   20 1
    34   19   23 1
    35   20   21 1
    36   20   35 1
    37   20   36 1
    38   21   22 1
    39   21   37 1
    40   21   38 1
    41   22   39 1
    42   22   40 1
@<TRIPOS>MOLECULE
CHEMBL460393__1
   40    42     0     0     0
SMALL
USER_CHARGES

@<TRIPOS>ATOM
      1 C1         -0.0187    1.5258    0.0104 C.3       1 <0>        -0.1577
      2 C2          0.0021   -0.0041    0.0020 C.3       1 <0>         0.1885
      3 H1          0.5293   -0.3651    0.8851 H         1 <0>         0.1091
      4 C3         -1.4117   -0.5257    0.0127 C.ar      1 <0>        -0.1000
      5 C4         -2.1410   -0.5687   -1.1610 C.ar      1 <0>        -0.0861
      6 C5         -3.4374   -1.0472   -1.1525 C.ar      1 <0>        -0.1482
      7 C6         -4.0059   -1.4838    0.0322 C.ar      1 <0>         0.0974
      8 C7         -3.2746   -1.4402    1.2071 C.ar      1 <0>        -0.1483
      9 C8         -1.9765   -0.9662    1.1952 C.ar      1 <0>        -0.0737
     10 F1         -5.2733   -1.9514    0.0418 F         1 <0>        -0.1401
     11 N1          0.6878   -0.4765   -1.2033 N.pl3     1 <0>        -0.6587
     12 C9          2.0470   -0.5883   -1.2151 C.2       1 <0>         0.4641
     13 N2          2.8767   -0.3166   -0.2247 N.2       1 <0>        -0.6968
     14 C10         4.1773   -0.4449   -0.2986 C.2       1 <0>         0.5466
     15 O1          4.9316   -0.1919    0.6205 O.2       1 <0>        -0.4506
     16 C11         4.6447   -0.9460   -1.6605 C.3       1 <0>        -0.0746
     17 S1          3.0116   -1.1080   -2.4928 S.3       1 <0>        -0.1541
     18 C12         5.5349    0.0833   -2.3598 C.3       1 <0>        -0.0937
     19 C13         5.3459   -2.3011   -1.5473 C.3       1 <0>         0.2263
     20 C14         5.3353   -3.1113   -2.8543 C.3       1 <0>        -0.1765
     21 C15         5.0742   -4.3554   -1.9889 C.3       1 <0>        -0.1139
     22 C16         4.4592   -3.4053   -0.9478 C.3       1 <0>        -0.1849
     23 O2          6.6357   -2.2095   -0.9390 O.3       1 <0>        -0.8300
     24 H2          1.0039    1.9031    0.0027 H         1 <0>         0.0729
     25 H3         -0.5459    1.8868   -0.8726 H         1 <0>         0.0583
     26 H4         -0.5289    1.8773    0.9072 H         1 <0>         0.0702
     27 H5         -1.6975   -0.2278   -2.0848 H         1 <0>         0.1318
     28 H6         -4.0070   -1.0804   -2.0694 H         1 <0>         0.1375
     29 H7         -3.7171   -1.7802    2.1317 H         1 <0>         0.1382
     30 H8         -1.4043   -0.9363    2.1107 H         1 <0>         0.1388
     31 H9          0.1751   -0.7099   -1.9930 H         1 <0>         0.4164
     32 H10         6.4188    0.2727   -1.7507 H         1 <0>         0.0891
     33 H11         5.8398   -0.3015   -3.3329 H         1 <0>         0.0614
     34 H12         4.9802    1.0120   -2.4938 H         1 <0>         0.0393
     35 H13         4.5078   -2.8593   -3.5175 H         1 <0>         0.0515
     36 H14         6.2981   -3.1289   -3.3650 H         1 <0>         0.0496
     37 H15         4.3553   -5.0484   -2.4261 H         1 <0>         0.0385
     38 H16         5.9843   -4.8480   -1.6467 H         1 <0>         0.0690
     39 H17         4.7147   -3.6603    0.0807 H         1 <0>         0.0459
     40 H18         3.3922   -3.2337   -1.0898 H         1 <0>         0.0474
@<TRIPOS>BOND
     1    1    2 1
     2    1   24 1
     3    1   25 1
     4    1   26 1
     5    2    3 1
     6    2    4 1
     7    2   11 1
     8    4    9 ar
     9    4    5 ar
    10    5    6 ar
    11    5   27 1
    12    6    7 ar
    13    6   28 1
    14    7    8 ar
    15    7   10 1
    16    8    9 ar
    17    8   29 1
    18    9   30 1
    19   11   12 1
    20   11   31 1
    21   12   17 1
    22   12   13 2
    23   13   14 1
    24   14   15 2
    25   14   16 1
    26   16   17 1
    27   16   18 1
    28   16   19 1
    29   18   32 1
    30   18   33 1
    31   18   34 1
    32   19   22 1
    33   19   20 1
    34   19   23 1
    35   20   21 1
    36   20   35 1
    37   20   36 1
    38   21   22 1
    39   21   37 1
    40   21   38 1
    41   22   39 1
    42   22   40 1
@<TRIPOS>MOLECULE
CHEMBL462304
   53    56     0     0     0
SMALL
USER_CHARGES

@<TRIPOS>ATOM
      1 C1         -0.4850   -0.4321    2.8025 C.ar      1 <0>        -0.0889
      2 C2         -0.7091   -1.6723    2.2315 C.ar      1 <0>        -0.1258
      3 C3          0.3305   -2.3622    1.6429 C.ar      1 <0>        -0.0555
      4 C4          1.6107   -1.8061    1.6239 C.ar      1 <0>        -0.1396
      5 C5          1.8299   -0.5543    2.2014 C.ar      1 <0>        -0.0862
      6 C6          0.7815    0.1248    2.7871 C.ar      1 <0>        -0.1266
      7 C7          2.7295   -2.5398    0.9955 C.2       1 <0>         0.5570
      8 O1          2.5357   -3.6300    0.4937 O.2       1 <0>        -0.5032
      9 N1          3.9644   -2.0001    0.9788 N.am      1 <0>        -0.6686
     10 C8          5.0440   -2.7392    0.4839 C.ar      1 <0>         0.1452
     11 C9          6.1495   -2.0845   -0.0466 C.ar      1 <0>        -0.1280
     12 C10         7.2185   -2.8101   -0.5373 C.ar      1 <0>        -0.1018
     13 C11         7.1956   -4.1898   -0.5039 C.ar      1 <0>        -0.1251
     14 C12         6.0904   -4.8567    0.0272 C.ar      1 <0>        -0.1084
     15 C13         5.0139   -4.1243    0.5277 C.ar      1 <0>        -0.0748
     16 C14         6.0633   -6.3346    0.0643 C.2       1 <0>         0.5600
     17 O2          5.0092   -6.9265   -0.0624 O.2       1 <0>        -0.5177
     18 N2          7.2073   -7.0255    0.2385 N.am      1 <0>        -0.6022
     19 C15         8.4997   -6.3316    0.3491 C.3       1 <0>         0.0725
     20 C16         9.2052   -6.7866    1.6296 C.3       1 <0>        -0.1355
     21 C17         9.3013   -8.3152    1.6508 C.3       1 <0>        -0.1163
     22 C18         7.8931   -8.9071    1.6237 C.3       1 <0>        -0.1000
     23 H1          7.3257   -8.5301    2.4745 H         1 <0>         0.0732
     24 C19         7.1971   -8.4895    0.3292 C.3       1 <0>         0.1532
     25 H2          7.7332   -8.9105   -0.5213 H         1 <0>         0.0718
     26 C20         5.7631   -9.0167    0.3433 C.3       1 <0>        -0.1091
     27 C21         5.7942  -10.5453    0.4318 C.3       1 <0>        -0.1273
     28 C22         6.5188  -10.9771    1.7073 C.3       1 <0>        -0.1220
     29 C23         7.9471  -10.4329    1.6860 C.3       1 <0>        -0.1102
     30 H3         -1.3032    0.1057    3.2583 H         1 <0>         0.1302
     31 H4         -1.7001   -2.1014    2.2469 H         1 <0>         0.1332
     32 H5          0.1544   -3.3305    1.1982 H         1 <0>         0.1388
     33 H6          2.8180   -0.1186    2.1903 H         1 <0>         0.1254
     34 H7          0.9497    1.0934    3.2343 H         1 <0>         0.1316
     35 H8          4.1045   -1.0992    1.3100 H         1 <0>         0.4122
     36 H9          6.1730   -1.0051   -0.0758 H         1 <0>         0.1312
     37 H10         8.0745   -2.2960   -0.9487 H         1 <0>         0.1355
     38 H11         8.0326   -4.7533   -0.8889 H         1 <0>         0.1457
     39 H12         4.1578   -4.6348    0.9436 H         1 <0>         0.1535
     40 H13         9.1189   -6.5749   -0.5143 H         1 <0>         0.0725
     41 H14         8.3331   -5.2551    0.3877 H         1 <0>         0.1158
     42 H15        10.2076   -6.3597    1.6626 H         1 <0>         0.0773
     43 H16         8.6383   -6.4468    2.4963 H         1 <0>         0.0668
     44 H17         9.8571   -8.6573    0.7779 H         1 <0>         0.0651
     45 H18         9.8135   -8.6353    2.5582 H         1 <0>         0.0673
     46 H19         5.2343   -8.6121    1.2064 H         1 <0>         0.0695
     47 H20         5.2544   -8.7146   -0.5722 H         1 <0>         0.0909
     48 H21         4.7737  -10.9280    0.4478 H         1 <0>         0.0645
     49 H22         6.3171  -10.9477   -0.4357 H         1 <0>         0.0592
     50 H23         5.9840  -10.5922    2.5756 H         1 <0>         0.0621
     51 H24         6.5494  -12.0656    1.7555 H         1 <0>         0.0617
     52 H25         8.4868  -10.8144    0.8193 H         1 <0>         0.0656
     53 H26         8.4554  -10.7427    2.5992 H         1 <0>         0.0644
@<TRIPOS>BOND
     1    1    6 ar
     2    1    2 ar
     3    1   30 1
     4    2    3 ar
     5    2   31 1
     6    3    4 ar
     7    3   32 1
     8    4    5 ar
     9    4    7 1
    10    5    6 ar
    11    5   33 1
    12    6   34 1
    13    7    8 2
    14    7    9 am
    15    9   10 1
    16    9   35 1
    17   10   15 ar
    18   10   11 ar
    19   11   12 ar
    20   11   36 1
    21   12   13 ar
    22   12   37 1
    23   13   14 ar
    24   13   38 1
    25   14   15 ar
    26   14   16 1
    27   15   39 1
    28   16   17 2
    29   16   18 am
    30   18   24 1
    31   18   19 1
    32   19   20 1
    33   19   40 1
    34   19   41 1
    35   20   21 1
    36   20   42 1
    37   20   43 1
    38   21   22 1
    39   21   44 1
    40   21   45 1
    41   22   23 1
    42   22   29 1
    43   22   24 1
    44   24   25 1
    45   24   26 1
    46   26   27 1
    47   26   46 1
    48   26   47 1
    49   27   28 1
    50   27   48 1
    51   27   49 1
    52   28   29 1
    53   28   50 1
    54   28   51 1
    55   29   52 1
    56   29   53 1
@<TRIPOS>MOLECULE
CHEMBL462305
   53    56     0     0     0
SMALL
USER_CHARGES

@<TRIPOS>ATOM
      1 C1         -2.3834   -1.4089   -1.6400 C.3       1 <0>        -0.1150
      2 C2         -1.1410   -1.3970   -0.7873 C.ar      1 <0>        -0.0857
      3 C3         -0.0275   -0.6877   -1.1979 C.ar      1 <0>        -0.1202
      4 C4          1.1120   -0.6768   -0.4158 C.ar      1 <0>        -0.1166
      5 C5          1.1383   -1.3748    0.7773 C.ar      1 <0>        -0.1205
      6 C6          0.0249   -2.0832    1.1882 C.ar      1 <0>        -0.0574
      7 C7         -1.1164   -2.0906    0.4080 C.ar      1 <0>        -0.0929
      8 C8          0.0538   -2.8445    2.4885 C.3       1 <0>        -0.0407
      9 C9          1.3672   -2.5570    3.2187 C.3       1 <0>        -0.1436
     10 C10        -1.1225   -2.4054    3.3627 C.3       1 <0>        -0.1398
     11 C11        -0.0524   -4.3214    2.2083 C.2       1 <0>         0.5245
     12 O1         -0.0420   -4.7239    1.0643 O.2       1 <0>        -0.5240
     13 N1         -0.1588   -5.1950    3.2291 N.am      1 <0>        -0.7230
     14 C12        -0.2620   -6.6308    2.9567 C.3       1 <0>         0.1564
     15 C13        -1.7232   -6.9947    2.6858 C.3       1 <0>        -0.0918
     16 C14        -2.5712   -6.6457    3.9105 C.3       1 <0>        -0.1090
     17 C15        -2.0658   -7.4322    5.1217 C.3       1 <0>        -0.0841
     18 C16        -0.6047   -7.0682    5.3926 C.3       1 <0>        -0.1122
     19 C17         0.2434   -7.4172    4.1679 C.3       1 <0>        -0.0902
     20 C18         0.1356   -8.9167    3.8835 C.3       1 <0>        -0.0955
     21 C19        -1.3256   -9.2807    3.6126 C.3       1 <0>         0.1349
     22 C20        -2.1736   -8.9316    4.8373 C.3       1 <0>        -0.1372
     23 C21        -1.8310   -8.4942    2.4014 C.3       1 <0>        -0.1358
     24 O2         -1.4263  -10.6811    3.3469 O.3       1 <0>        -0.5600
     25 H1         -3.0281   -0.5776   -1.3544 H         1 <0>         0.0696
     26 H2         -2.1051   -1.3091   -2.6891 H         1 <0>         0.0665
     27 H3         -2.9159   -2.3486   -1.4932 H         1 <0>         0.0651
     28 H4         -0.0481   -0.1424   -2.1299 H         1 <0>         0.1203
     29 H5          1.9820   -0.1232   -0.7369 H         1 <0>         0.1218
     30 H6          2.0290   -1.3669    1.3881 H         1 <0>         0.1245
     31 H7         -1.9877   -2.6411    0.7309 H         1 <0>         0.1151
     32 H8          1.4439   -1.4888    3.4214 H         1 <0>         0.0743
     33 H9          1.3880   -3.1077    4.1592 H         1 <0>         0.0634
     34 H10         2.2052   -2.8699    2.5959 H         1 <0>         0.0663
     35 H11        -2.0582   -2.6102    2.8425 H         1 <0>         0.0637
     36 H12        -1.1017   -2.9560    4.3032 H         1 <0>         0.0625
     37 H13        -1.0458   -1.3371    3.5654 H         1 <0>         0.0724
     38 H14        -0.1671   -4.8731    4.1441 H         1 <0>         0.3981
     39 H15         0.3421   -6.8794    2.0842 H         1 <0>         0.0898
     40 H16        -2.0832   -6.4344    1.8230 H         1 <0>         0.0784
     41 H17        -2.4944   -5.5775    4.1132 H         1 <0>         0.0649
     42 H18        -3.6122   -6.9050    3.7175 H         1 <0>         0.0641
     43 H19        -2.6700   -7.1835    5.9942 H         1 <0>         0.0756
     44 H20        -0.5279   -5.9999    5.5953 H         1 <0>         0.0629
     45 H21        -0.2446   -7.6285    6.2555 H         1 <0>         0.0713
     46 H22         1.2843   -7.1579    4.3609 H         1 <0>         0.0843
     47 H23         0.7397   -9.1653    3.0110 H         1 <0>         0.0732
     48 H24         0.4956   -9.4770    4.7464 H         1 <0>         0.0762
     49 H25        -1.8136   -9.4919    5.7002 H         1 <0>         0.0715
     50 H26        -3.2146   -9.1909    4.6443 H         1 <0>         0.0654
     51 H27        -2.8719   -8.7535    2.2084 H         1 <0>         0.0682
     52 H28        -1.2268   -8.7428    1.5289 H         1 <0>         0.0730
     53 H29        -2.3268  -10.9834    3.1660 H         1 <0>         0.3768
@<TRIPOS>BOND
     1    1    2 1
     2    1   25 1
     3    1   26 1
     4    1   27 1
     5    2    7 ar
     6    2    3 ar
     7    3    4 ar
     8    3   28 1
     9    4    5 ar
    10    4   29 1
    11    5    6 ar
    12    5   30 1
    13    6    7 ar
    14    6    8 1
    15    7   31 1
    16    8    9 1
    17    8   10 1
    18    8   11 1
    19    9   32 1
    20    9   33 1
    21    9   34 1
    22   10   35 1
    23   10   36 1
    24   10   37 1
    25   11   12 2
    26   11   13 am
    27   13   14 1
    28   13   38 1
    29   14   19 1
    30   14   15 1
    31   14   39 1
    32   15   23 1
    33   15   16 1
    34   15   40 1
    35   16   17 1
    36   16   41 1
    37   16   42 1
    38   17   22 1
    39   17   18 1
    40   17   43 1
    41   18   19 1
    42   18   44 1
    43   18   45 1
    44   19   20 1
    45   19   46 1
    46   20   21 1
    47   20   47 1
    48   20   48 1
    49   21   22 1
    50   21   23 1
    51   21   24 1
    52   22   49 1
    53   22   50 1
    54   23   51 1
    55   23   52 1
    56   24   53 1
@<TRIPOS>MOLECULE
CHEMBL516457
   65    68     0     0     0
SMALL
USER_CHARGES

@<TRIPOS>ATOM
      1 C1         -0.0464    1.2816   -0.8697 C.3       1 <0>        -0.1599
      2 C2          0.0166   -0.2336   -0.6666 C.3       1 <0>         0.1286
      3 H1          0.4985   -0.6982   -1.5269 H         1 <0>         0.1089
      4 C3         -1.4034   -0.7912   -0.5087 C.3       1 <0>         0.1376
      5 N1         -1.9386   -0.3527    0.7879 N.pl3     1 <0>        -0.6785
      6 C4         -1.1768   -0.6557    2.0076 C.3       1 <0>         0.1336
      7 C5          0.2432   -0.0981    1.8497 C.3       1 <0>         0.1027
      8 N2          0.7819   -0.5367    0.5508 N.pl3     1 <0>        -0.9888
      9 S1          2.2168   -1.3585    0.4615 S.o2      1 <0>         2.6862
     10 O1          2.4140   -1.9704    1.7288 O.2       1 <0>        -0.9531
     11 O2          2.1831   -2.1044   -0.7475 O.2       1 <0>        -0.9510
     12 C6          3.4939   -0.1586    0.2775 C.ar      1 <0>        -0.6243
     13 C7          3.8796    0.2516   -0.9858 C.ar      1 <0>        -0.0781
     14 C8          4.8816    1.1926   -1.1347 C.ar      1 <0>        -0.0870
     15 C9          5.5006    1.7267   -0.0213 C.ar      1 <0>        -0.1447
     16 C10         5.1154    1.3174    1.2488 C.ar      1 <0>         0.2028
     17 C11         4.1046    0.3754    1.3949 C.ar      1 <0>        -0.1010
     18 N3          5.7392    1.8554    2.3767 N.pl3     1 <0>        -0.6298
     19 C12         5.4335    1.3391    3.7183 C.3       1 <0>         0.1035
     20 C13         6.7445    0.9111    4.3892 C.3       1 <0>         0.1108
     21 N4          7.7188    2.0033    4.2557 N.am      1 <0>        -0.5945
     22 C14         8.0245    2.5196    2.9141 C.3       1 <0>         0.0957
     23 C15         6.7176    2.9438    2.2427 C.3       1 <0>         0.1059
     24 C16         8.3207    2.5225    5.3441 C.2       1 <0>         0.6492
     25 O3          8.0595    2.0876    6.4483 O.2       1 <0>        -0.5662
     26 O4          9.2114    3.5229    5.2079 O.3       1 <0>        -0.3655
     27 C17         9.8109    4.0250    6.4040 C.3       1 <0>         0.0533
     28 C18        -3.1506    0.3407    0.8597 C.ar      1 <0>         0.2166
     29 C19        -3.1571    1.7294    0.8838 C.ar      1 <0>        -0.0990
     30 C20        -4.3554    2.4122    0.9543 C.ar      1 <0>        -0.1133
     31 C21        -5.5500    1.7134    1.0010 C.ar      1 <0>         0.0967
     32 C22        -5.5460    0.3291    0.9772 C.ar      1 <0>        -0.1021
     33 C23        -4.3499   -0.3579    0.9014 C.ar      1 <0>        -0.1665
     34 C24        -4.3465   -1.8646    0.8691 C.3       1 <0>         0.5172
     35 F1         -5.6511   -2.3378    1.0463 F         1 <0>        -0.1787
     36 F2         -3.8548   -2.3035   -0.3649 F         1 <0>        -0.1722
     37 F3         -3.5304   -2.3511    1.8960 F         1 <0>        -0.1692
     38 F4         -6.7212    2.3834    1.0704 F         1 <0>        -0.1299
     39 H2          0.9606    1.6699   -1.0224 H         1 <0>         0.0591
     40 H3         -0.6586    1.5060   -1.7431 H         1 <0>         0.0678
     41 H4         -0.4859    1.7484    0.0118 H         1 <0>         0.0642
     42 H5         -2.0361   -0.4138   -1.3121 H         1 <0>         0.0865
     43 H6         -1.3747   -1.8802   -0.5432 H         1 <0>         0.0672
     44 H7         -1.6597   -0.1888    2.8660 H         1 <0>         0.0857
     45 H8         -1.1319   -1.7351    2.1522 H         1 <0>         0.0689
     46 H9          0.2145    0.9910    1.8842 H         1 <0>         0.0746
     47 H10         0.8759   -0.4755    2.6531 H         1 <0>         0.0999
     48 H11         3.3973   -0.1645   -1.8579 H         1 <0>         0.1357
     49 H12         5.1808    1.5101   -2.1226 H         1 <0>         0.1328
     50 H13         6.2834    2.4614   -0.1383 H         1 <0>         0.1313
     51 H14         3.7999    0.0580    2.3812 H         1 <0>         0.1380
     52 H15         4.9571    2.1200    4.3110 H         1 <0>         0.0739
     53 H16         4.7670    0.4805    3.6367 H         1 <0>         0.1014
     54 H17         6.5657    0.7074    5.4450 H         1 <0>         0.1105
     55 H18         7.1297    0.0157    3.9015 H         1 <0>         0.0803
     56 H19         8.6909    3.3783    2.9957 H         1 <0>         0.1054
     57 H20         8.5008    1.7387    2.3214 H         1 <0>         0.0775
     58 H21         6.8989    3.1447    1.1868 H         1 <0>         0.0983
     59 H22         6.3348    3.8417    2.7280 H         1 <0>         0.0720
     60 H23        10.5066    4.8257    6.1532 H         1 <0>         0.1052
     61 H24         9.0349    4.4116    7.0647 H         1 <0>         0.0618
     62 H25        10.3483    3.2208    6.9063 H         1 <0>         0.0620
     63 H26        -2.2256    2.2749    0.8477 H         1 <0>         0.1457
     64 H27        -4.3608    3.4921    0.9733 H         1 <0>         0.1465
     65 H28        -6.4789   -0.2139    1.0137 H         1 <0>         0.1516
@<TRIPOS>BOND
     1    1    2 1
     2    1   39 1
     3    1   40 1
     4    1   41 1
     5    2    3 1
     6    2    8 1
     7    2    4 1
     8    4    5 1
     9    4   42 1
    10    4   43 1
    11    5    6 1
    12    5   28 1
    13    6    7 1
    14    6   44 1
    15    6   45 1
    16    7    8 1
    17    7   46 1
    18    7   47 1
    19    8    9 1
    20    9   10 2
    21    9   11 2
    22    9   12 1
    23   12   17 ar
    24   12   13 ar
    25   13   14 ar
    26   13   48 1
    27   14   15 ar
    28   14   49 1
    29   15   16 ar
    30   15   50 1
    31   16   17 ar
    32   16   18 1
    33   17   51 1
    34   18   23 1
    35   18   19 1
    36   19   20 1
    37   19   52 1
    38   19   53 1
    39   20   21 1
    40   20   54 1
    41   20   55 1
    42   21   22 1
    43   21   24 am
    44   22   23 1
    45   22   56 1
    46   22   57 1
    47   23   58 1
    48   23   59 1
    49   24   25 2
    50   24   26 1
    51   26   27 1
    52   27   60 1
    53   27   61 1
    54   27   62 1
    55   28   33 ar
    56   28   29 ar
    57   29   30 ar
    58   29   63 1
    59   30   31 ar
    60   30   64 1
    61   31   32 ar
    62   31   38 1
    63   32   33 ar
    64   32   65 1
    65   33   34 1
    66   34   35 1
    67   34   36 1
    68   34   37 1
@<TRIPOS>MOLECULE
CHEMBL562113
   67    71     0     0     0
SMALL
USER_CHARGES

@<TRIPOS>ATOM
      1 C1         -1.7851   -0.2215   -5.1330 C.3       1 <0>         0.0293
      2 O1         -1.2548   -1.2849   -4.3393 O.3       1 <0>        -0.3209
      3 C2         -0.2735   -2.0423   -4.8982 C.ar      1 <0>         0.0967
      4 C3          0.1731   -1.7645   -6.1800 C.ar      1 <0>        -0.1902
      5 C4          1.1709   -2.5355   -6.7468 C.ar      1 <0>        -0.0982
      6 C5          1.7262   -3.5847   -6.0377 C.ar      1 <0>        -0.1368
      7 C6          1.2866   -3.8681   -4.7586 C.ar      1 <0>        -0.0947
      8 C7          0.2891   -3.0958   -4.1813 C.ar      1 <0>         0.1192
      9 N1         -0.1549   -3.3781   -2.8826 N.am      1 <0>        -0.6643
     10 C8         -0.0821   -4.6360   -2.4041 C.2       1 <0>         0.5139
     11 O2          0.4280   -5.5104   -3.0721 O.2       1 <0>        -0.5192
     12 C9         -0.6347   -4.9560   -1.0390 C.3       1 <0>        -0.1354
     13 C10        -0.4368   -6.4443   -0.7448 C.3       1 <0>        -0.0208
     14 C11        -1.1703   -6.8277    0.5570 C.3       1 <0>        -0.1029
     15 C12        -2.5344   -7.3814    0.0755 C.3       1 <0>        -0.1300
     16 C13        -2.1534   -8.1596   -1.2083 C.3       1 <0>        -0.1297
     17 C14        -1.0618   -7.2912   -1.8672 C.3       1 <0>        -0.1027
     18 C15         1.0551   -6.7595   -0.6193 C.3       1 <0>        -0.1390
     19 C16         1.6334   -5.9971    0.5449 C.2       1 <0>         0.5128
     20 O3          0.9041   -5.3593    1.2745 O.2       1 <0>        -0.5361
     21 N2          2.9611   -6.0239    0.7753 N.am      1 <0>        -0.7265
     22 C17         3.5232   -5.2827    1.9070 C.3       1 <0>         0.1585
     23 C18         3.7728   -3.8312    1.4926 C.3       1 <0>        -0.0928
     24 C19         4.7567   -3.7971    0.3214 C.3       1 <0>        -0.1059
     25 C20         6.0781   -4.4405    0.7465 C.3       1 <0>        -0.0869
     26 C21         6.6652   -3.6664    1.9285 C.3       1 <0>        -0.1081
     27 C22         5.6814   -3.7005    3.0997 C.3       1 <0>        -0.0881
     28 C23         4.3599   -3.0571    2.6745 C.3       1 <0>        -0.1066
     29 C24         5.4318   -5.1520    3.5141 C.3       1 <0>        -0.1053
     30 C25         4.8447   -5.9261    2.3322 C.3       1 <0>        -0.0930
     31 C26         5.8285   -5.8920    1.1610 C.3       1 <0>        -0.1091
     32 H1         -2.2155   -0.6303   -6.0472 H         1 <0>         0.0562
     33 H2         -2.5579    0.3017   -4.5699 H         1 <0>         0.1013
     34 H3         -0.9863    0.4752   -5.3874 H         1 <0>         0.0562
     35 H4         -0.2585   -0.9458   -6.7365 H         1 <0>         0.1310
     36 H5          1.5173   -2.3179   -7.7464 H         1 <0>         0.1255
     37 H6          2.5052   -4.1845   -6.4848 H         1 <0>         0.1270
     38 H7          1.7220   -4.6882   -4.2071 H         1 <0>         0.1553
     39 H8         -0.5146   -2.6683   -2.3280 H         1 <0>         0.4139
     40 H9         -0.1118   -4.3644   -0.2876 H         1 <0>         0.1122
     41 H10        -1.6982   -4.7187   -1.0128 H         1 <0>         0.0967
     42 H11        -0.6154   -7.5959    1.0955 H         1 <0>         0.0630
     43 H12        -1.3157   -5.9493    1.1859 H         1 <0>         0.0797
     44 H13        -2.9639   -8.0515    0.8203 H         1 <0>         0.0642
     45 H14        -3.2217   -6.5677   -0.1557 H         1 <0>         0.0641
     46 H15        -1.7572   -9.1430   -0.9549 H         1 <0>         0.0631
     47 H16        -3.0161   -8.2533   -1.8678 H         1 <0>         0.0620
     48 H17        -1.5062   -6.6418   -2.6216 H         1 <0>         0.0646
     49 H18        -0.3025   -7.9273   -2.3220 H         1 <0>         0.0693
     50 H19         1.1880   -7.8289   -0.4553 H         1 <0>         0.0942
     51 H20         1.5668   -6.4662   -1.5359 H         1 <0>         0.1063
     52 H21         3.5444   -6.5339    0.1918 H         1 <0>         0.3980
     53 H22         2.8223   -5.3069    2.7414 H         1 <0>         0.0871
     54 H23         2.8314   -3.3728    1.1897 H         1 <0>         0.0724
     55 H24         4.3384   -4.3486   -0.5206 H         1 <0>         0.0600
     56 H25         4.9345   -2.7630    0.0262 H         1 <0>         0.0611
     57 H26         6.7790   -4.4163   -0.0879 H         1 <0>         0.0700
     58 H27         7.6066   -4.1248    2.2314 H         1 <0>         0.0622
     59 H28         6.8430   -2.6324    1.6332 H         1 <0>         0.0620
     60 H29         6.0996   -3.1490    3.9417 H         1 <0>         0.0718
     61 H30         4.5377   -2.0230    2.3793 H         1 <0>         0.0646
     62 H31         3.6590   -3.0813    3.5089 H         1 <0>         0.0639
     63 H32         6.3732   -5.6103    3.8170 H         1 <0>         0.0677
     64 H33         4.7309   -5.1762    4.3485 H         1 <0>         0.0650
     65 H34         4.6669   -6.9601    2.6274 H         1 <0>         0.0753
     66 H35         5.4103   -6.4435    0.3189 H         1 <0>         0.0591
     67 H36         6.7700   -6.3504    1.4638 H         1 <0>         0.0671
@<TRIPOS>BOND
     1    1    2 1
     2    1   32 1
     3    1   33 1
     4    1   34 1
     5    2    3 1
     6    3    8 ar
     7    3    4 ar
     8    4    5 ar
     9    4   35 1
    10    5    6 ar
    11    5   36 1
    12    6    7 ar
    13    6   37 1
    14    7    8 ar
    15    7   38 1
    16    8    9 1
    17    9   10 am
    18    9   39 1
    19   10   11 2
    20   10   12 1
    21   12   13 1
    22   12   40 1
    23   12   41 1
    24   13   17 1
    25   13   14 1
    26   13   18 1
    27   14   15 1
    28   14   42 1
    29   14   43 1
    30   15   16 1
    31   15   44 1
    32   15   45 1
    33   16   17 1
    34   16   46 1
    35   16   47 1
    36   17   48 1
    37   17   49 1
    38   18   19 1
    39   18   50 1
    40   18   51 1
    41   19   20 2
    42   19   21 am
    43   21   22 1
    44   21   52 1
    45   22   30 1
    46   22   23 1
    47   22   53 1
    48   23   28 1
    49   23   24 1
    50   23   54 1
    51   24   25 1
    52   24   55 1
    53   24   56 1
    54   25   31 1
    55   25   26 1
    56   25   57 1
    57   26   27 1
    58   26   58 1
    59   26   59 1
    60   27   28 1
    61   27   29 1
    62   27   60 1
    63   28   61 1
    64   28   62 1
    65   29   30 1
    66   29   63 1
    67   29   64 1
    68   30   31 1
    69   30   65 1
    70   31   66 1
    71   31   67 1
@<TRIPOS>MOLECULE
CHEMBL497960
   49    53     0     0     0
SMALL
USER_CHARGES

@<TRIPOS>ATOM
      1 C1          0.4082    1.3176    0.5464 C.3       1 <0>         0.0627
      2 N1          0.2041   -0.1248    0.3912 N.pl3     1 <0>        -0.4688
      3 C2          0.0898   -0.8212   -0.7817 C.2       1 <0>         0.2249
      4 N2         -0.0826   -2.0849   -0.4624 N.2       1 <0>        -0.2789
      5 N3         -0.0822   -2.2133    0.8166 N.2       1 <0>        -0.2801
      6 C3          0.0948   -1.0505    1.3837 C.2       1 <0>         0.2000
      7 C4          0.1625   -0.7819    2.8651 C.3       1 <0>         0.0356
      8 C5         -0.4095   -1.9216    3.7245 C.3       1 <0>        -0.1060
      9 C6         -1.0241   -0.8326    4.6196 C.3       1 <0>        -0.1381
     10 C7         -0.9942    0.0866    3.3871 C.3       1 <0>        -0.1323
     11 C8          1.5217   -0.3096    3.3126 C.ar      1 <0>        -0.0603
     12 C9          2.6117   -1.1550    3.2211 C.ar      1 <0>        -0.0883
     13 C10         3.8586   -0.7223    3.6314 C.ar      1 <0>        -0.1052
     14 C11         4.0158    0.5571    4.1339 C.ar      1 <0>        -0.0316
     15 C12         2.9246    1.4027    4.2253 C.ar      1 <0>        -0.1070
     16 C13         1.6792    0.9709    3.8094 C.ar      1 <0>        -0.1058
     17 Cl1         5.5815    1.1010    4.6500 Cl        1 <0>        -0.0652
     18 C14         0.1484   -0.2590   -2.1482 C.ar      1 <0>        -0.0570
     19 C15         0.0317    1.1181   -2.3437 C.ar      1 <0>        -0.0770
     20 C16         0.0873    1.6385   -3.6189 C.ar      1 <0>        -0.2060
     21 C17         0.2593    0.7945   -4.7083 C.ar      1 <0>         0.1492
     22 C18         0.3754   -0.5762   -4.5177 C.ar      1 <0>        -0.1482
     23 C19         0.3264   -1.1034   -3.2451 C.ar      1 <0>        -0.0319
     24 O1          0.3136    1.3111   -5.9636 O.3       1 <0>        -0.2795
     25 C20         0.3245    2.7353   -6.0791 C.3       1 <0>        -0.0047
     26 C21        -0.5877    3.3656   -7.1334 C.3       1 <0>        -0.1812
     27 C22         0.9265    3.3364   -7.3508 C.3       1 <0>        -0.1682
     28 H1          1.4157    1.5789    0.2226 H         1 <0>         0.0874
     29 H2         -0.3196    1.8550   -0.0615 H         1 <0>         0.0944
     30 H3          0.2805    1.5920    1.5935 H         1 <0>         0.0958
     31 H4         -1.1505   -2.5300    3.2059 H         1 <0>         0.0999
     32 H5          0.3544   -2.5176    4.2240 H         1 <0>         0.0796
     33 H6         -2.0310   -1.0678    4.9646 H         1 <0>         0.0787
     34 H7         -0.3654   -0.5056    5.4242 H         1 <0>         0.0869
     35 H8         -0.7024    1.1120    3.6141 H         1 <0>         0.0800
     36 H9         -1.8950    0.0273    2.7762 H         1 <0>         0.0902
     37 H10         2.4888   -2.1538    2.8291 H         1 <0>         0.1344
     38 H11         4.7099   -1.3830    3.5601 H         1 <0>         0.1366
     39 H12         3.0466    2.4015    4.6178 H         1 <0>         0.1369
     40 H13         0.8282    1.6325    3.8763 H         1 <0>         0.1371
     41 H14        -0.1024    1.7750   -1.4970 H         1 <0>         0.1339
     42 H15        -0.0033    2.7039   -3.7710 H         1 <0>         0.1373
     43 H16         0.5086   -1.2294   -5.3674 H         1 <0>         0.1408
     44 H17         0.4216   -2.1690   -3.0973 H         1 <0>         0.1455
     45 H18         0.4692    3.2815   -5.1470 H         1 <0>         0.1262
     46 H19        -1.1962    2.6938   -7.7389 H         1 <0>         0.1056
     47 H20        -1.0435    4.3266   -6.8949 H         1 <0>         0.1067
     48 H21         1.4669    4.2781   -7.2555 H         1 <0>         0.1089
     49 H22         1.3142    2.6454   -8.0994 H         1 <0>         0.1060
@<TRIPOS>BOND
     1    1    2 1
     2    1   28 1
     3    1   29 1
     4    1   30 1
     5    2    6 1
     6    2    3 1
     7    3    4 2
     8    3   18 1
     9    4    5 1
    10    5    6 2
    11    6    7 1
    12    7   10 1
    13    7    8 1
    14    7   11 1
    15    8    9 1
    16    8   31 1
    17    8   32 1
    18    9   10 1
    19    9   33 1
    20    9   34 1
    21   10   35 1
    22   10   36 1
    23   11   16 ar
    24   11   12 ar
    25   12   13 ar
    26   12   37 1
    27   13   14 ar
    28   13   38 1
    29   14   15 ar
    30   14   17 1
    31   15   16 ar
    32   15   39 1
    33   16   40 1
    34   18   23 ar
    35   18   19 ar
    36   19   20 ar
    37   19   41 1
    38   20   21 ar
    39   20   42 1
    40   21   22 ar
    41   21   24 1
    42   22   23 ar
    43   22   43 1
    44   23   44 1
    45   24   25 1
    46   25   27 1
    47   25   26 1
    48   25   45 1
    49   26   27 1
    50   26   46 1
    51   26   47 1
    52   27   48 1
    53   27   49 1
@<TRIPOS>MOLECULE
CHEMBL222510
   58    61     0     0     0
SMALL
USER_CHARGES

@<TRIPOS>ATOM
      1 C1         10.8938   -0.7335   -3.0664 C.ar      1 <0>        -0.1110
      2 C2         11.8642   -1.2786   -2.2467 C.ar      1 <0>        -0.1211
      3 C3         11.5520   -2.3389   -1.4166 C.ar      1 <0>        -0.1007
      4 C4         10.2691   -2.8538   -1.4058 C.ar      1 <0>        -0.1115
      5 C5          9.2984   -2.3081   -2.2249 C.ar      1 <0>        -0.1011
      6 C6          9.6111   -1.2487   -3.0561 C.ar      1 <0>        -0.1211
      7 C7          9.9289   -4.0104   -0.5016 C.3       1 <0>         0.1608
      8 N1          9.4717   -3.4998    0.7933 N.am      1 <0>        -0.7273
      9 C8          9.1108   -4.3589    1.7670 C.2       1 <0>         0.5181
     10 O1          9.1644   -5.5546    1.5713 O.2       1 <0>        -0.5349
     11 C9          8.6405   -3.8337    3.0989 C.3       1 <0>        -0.1080
     12 C10         9.7503   -2.9963    3.7376 C.3       1 <0>        -0.1063
     13 C11         9.2728   -2.4631    5.0899 C.3       1 <0>        -0.1312
     14 C12         8.9275   -3.6373    6.0079 C.3       1 <0>         0.1629
     15 C13         7.8177   -4.4747    5.3693 C.3       1 <0>        -0.1650
     16 C14         8.2951   -5.0079    4.0170 C.3       1 <0>        -0.0932
     17 N2          8.4703   -3.1267    7.3028 N.am      1 <0>        -0.6335
     18 C15         9.2797   -3.3464    8.5039 C.3       1 <0>         0.0913
     19 C16         8.6443   -3.0117    9.8549 C.3       1 <0>        -0.1917
     20 C17         9.7403   -2.1115    9.2810 C.3       1 <0>        -0.1916
     21 C18         7.3051   -2.4550    7.3889 C.2       1 <0>         0.6068
     22 O2          7.2796   -1.3420    7.8781 O.2       1 <0>        -0.4766
     23 C19         6.0605   -3.0699    6.8898 C.ar      1 <0>        -0.1752
     24 C20         5.6451   -2.8417    5.5747 C.ar      1 <0>        -0.0109
     25 C21         4.4827   -3.4170    5.1114 C.ar      1 <0>        -0.1180
     26 C22         3.7213   -4.2256    5.9517 C.ar      1 <0>         0.2638
     27 C23         4.1325   -4.4544    7.2625 C.ar      1 <0>        -0.1139
     28 C24         5.2973   -3.8866    7.7293 C.ar      1 <0>        -0.0130
     29 Cl1         3.1798   -5.4620    8.3068 Cl        1 <0>        -0.0508
     30 N3          2.5471   -4.8057    5.4808 N.pl3     1 <0>        -0.8523
     31 Cl2         3.9657   -3.1337    3.4786 Cl        1 <0>        -0.0503
     32 H1         11.1366    0.0978   -3.7117 H         1 <0>         0.1240
     33 H2         12.8665   -0.8764   -2.2551 H         1 <0>         0.1248
     34 H3         12.3103   -2.7653   -0.7767 H         1 <0>         0.1239
     35 H4          8.2963   -2.7106   -2.2168 H         1 <0>         0.1235
     36 H5          8.8528   -0.8226   -3.6963 H         1 <0>         0.1247
     37 H6          9.1383   -4.6070   -0.9566 H         1 <0>         0.0762
     38 H7         10.8137   -4.6301   -0.3559 H         1 <0>         0.0766
     39 H8          9.4288   -2.5435    0.9498 H         1 <0>         0.4015
     40 H9          7.7557   -3.2140    2.9533 H         1 <0>         0.0970
     41 H10        10.6350   -3.6160    3.8833 H         1 <0>         0.0742
     42 H11         9.9963   -2.1597    3.0836 H         1 <0>         0.0719
     43 H12        10.0635   -1.8665    5.5449 H         1 <0>         0.0771
     44 H13         8.3881   -1.8433    4.9442 H         1 <0>         0.0628
     45 H14         9.8122   -4.2571    6.1536 H         1 <0>         0.0941
     46 H15         7.5716   -5.3113    6.0233 H         1 <0>         0.0763
     47 H16         6.9329   -3.8550    5.2236 H         1 <0>         0.0948
     48 H17         7.5045   -5.6045    3.5620 H         1 <0>         0.0747
     49 H18         9.1799   -5.6277    4.1627 H         1 <0>         0.0727
     50 H19         9.9588   -4.1981    8.4640 H         1 <0>         0.1327
     51 H20         7.6241   -2.6280    9.8500 H         1 <0>         0.0949
     52 H21         8.9052   -3.6433   10.7041 H         1 <0>         0.1041
     53 H22        10.7222   -2.1509    9.7526 H         1 <0>         0.0974
     54 H23         9.4411   -1.1357    8.8985 H         1 <0>         0.1055
     55 H24         6.2349   -2.2144    4.9227 H         1 <0>         0.1427
     56 H25         5.6182   -4.0683    8.7444 H         1 <0>         0.1421
     57 H26         2.2597   -4.6467    4.5681 H         1 <0>         0.4082
     58 H27         2.0162   -5.3690    6.0653 H         1 <0>         0.4084
@<TRIPOS>BOND
     1    1    6 ar
     2    1    2 ar
     3    1   32 1
     4    2    3 ar
     5    2   33 1
     6    3    4 ar
     7    3   34 1
     8    4    5 ar
     9    4    7 1
    10    5    6 ar
    11    5   35 1
    12    6   36 1
    13    7    8 1
    14    7   37 1
    15    7   38 1
    16    8    9 am
    17    8   39 1
    18    9   10 2
    19    9   11 1
    20   11   16 1
    21   11   12 1
    22   11   40 1
    23   12   13 1
    24   12   41 1
    25   12   42 1
    26   13   14 1
    27   13   43 1
    28   13   44 1
    29   14   15 1
    30   14   17 1
    31   14   45 1
    32   15   16 1
    33   15   46 1
    34   15   47 1
    35   16   48 1
    36   16   49 1
    37   17   18 1
    38   17   21 am
    39   18   20 1
    40   18   19 1
    41   18   50 1
    42   19   20 1
    43   19   51 1
    44   19   52 1
    45   20   53 1
    46   20   54 1
    47   21   22 2
    48   21   23 1
    49   23   28 ar
    50   23   24 ar
    51   24   25 ar
    52   24   55 1
    53   25   26 ar
    54   25   31 1
    55   26   27 ar
    56   26   30 1
    57   27   28 ar
    58   27   29 1
    59   28   56 1
    60   30   57 1
    61   30   58 1
@<TRIPOS>MOLECULE
CHEMBL551949
   62    64     0     0     0
SMALL
USER_CHARGES

@<TRIPOS>ATOM
      1 C1         -0.7292    1.6252    0.5402 C.3       1 <0>        -0.1540
      2 C2         -0.5855    0.1027    0.5846 C.3       1 <0>        -0.1487
      3 C3         -1.8181   -0.5447   -0.0498 C.3       1 <0>         0.0901
      4 N1         -1.6160   -1.9927   -0.1426 N.am      1 <0>        -0.6071
      5 C4         -1.6997   -2.8227    1.0618 C.3       1 <0>         0.1626
      6 C5         -0.3278   -3.4824    1.3100 C.3       1 <0>        -0.1265
      7 C6         -0.2502   -3.8945    2.7551 C.3       1 <0>        -0.1158
      8 C7         -0.6738   -5.3596    2.9737 C.3       1 <0>        -0.1170
      9 C8         -1.9122   -5.7533    2.1460 C.3       1 <0>        -0.1225
     10 C9         -2.9656   -4.6788    2.1390 C.3       1 <0>        -0.1087
     11 C10        -2.7625   -3.8014    0.8867 C.3       1 <0>        -0.1472
     12 C11        -1.3531   -2.5613   -1.3359 C.2       1 <0>         0.5592
     13 O1         -1.2507   -3.7693   -1.4241 O.2       1 <0>        -0.5231
     14 C12        -1.1894   -1.7158   -2.5376 C.ar      1 <0>        -0.1232
     15 C13        -0.5889   -0.4600   -2.4346 C.ar      1 <0>        -0.1080
     16 C14        -0.4387    0.3238   -3.5599 C.ar      1 <0>        -0.1097
     17 C15        -0.8822   -0.1323   -4.7885 C.ar      1 <0>        -0.0806
     18 C16        -1.4787   -1.3760   -4.8975 C.ar      1 <0>        -0.1044
     19 C17        -1.6293   -2.1723   -3.7811 C.ar      1 <0>        -0.0645
     20 C18        -0.7152    0.7295   -6.0135 C.3       1 <0>         0.1538
     21 N2          0.5743    0.4372   -6.6441 N.pl3     1 <0>        -1.1116
     22 S1          0.8741    0.9471   -8.1909 S.o2      1 <0>         2.6953
     23 O2          2.1991    0.5398   -8.5032 O.2       1 <0>        -0.9491
     24 O3         -0.2471    0.5564   -8.9718 O.2       1 <0>        -0.9473
     25 C19         0.8814    2.7089   -8.1665 C.ar      1 <0>        -0.6680
     26 C20        -0.2929    3.4080   -8.3765 C.ar      1 <0>        -0.0190
     27 C21        -0.2879    4.7900   -8.3575 C.ar      1 <0>        -0.1245
     28 C22         0.8913    5.4742   -8.1289 C.ar      1 <0>        -0.0536
     29 C23         2.0665    4.7753   -7.9187 C.ar      1 <0>        -0.0571
     30 C24         2.0597    3.3917   -7.9318 C.ar      1 <0>        -0.0101
     31 Cl1         3.5478    5.6338   -7.6314 Cl        1 <0>        -0.0538
     32 H1          0.1489    2.0864    0.9921 H         1 <0>         0.0610
     33 H2         -0.8184    1.9517   -0.4959 H         1 <0>         0.0575
     34 H3         -1.6206    1.9223    1.0928 H         1 <0>         0.0593
     35 H4          0.3059   -0.1944    0.0320 H         1 <0>         0.0705
     36 H5         -0.4963   -0.2238    1.6207 H         1 <0>         0.0720
     37 H6         -2.6939   -0.3388    0.5656 H         1 <0>         0.0766
     38 H7         -1.9708   -0.1344   -1.0480 H         1 <0>         0.0972
     39 H8         -1.9427   -2.1860    1.9125 H         1 <0>         0.0809
     40 H9         -0.2231   -4.3605    0.6727 H         1 <0>         0.0823
     41 H10         0.4666   -2.7695    1.0894 H         1 <0>         0.0621
     42 H11         0.7749   -3.7681    3.1033 H         1 <0>         0.0609
     43 H12        -0.9023   -3.2476    3.3419 H         1 <0>         0.0594
     44 H13         0.1556   -6.0104    2.6968 H         1 <0>         0.0587
     45 H14        -0.8959   -5.5073    4.0306 H         1 <0>         0.0583
     46 H15        -1.6024   -5.9501    1.1197 H         1 <0>         0.0656
     47 H16        -2.3406   -6.6643    2.5639 H         1 <0>         0.0580
     48 H17        -3.9546   -5.1359    2.1093 H         1 <0>         0.0647
     49 H18        -2.8692   -4.0657    3.0351 H         1 <0>         0.0634
     50 H19        -3.6928   -3.2771    0.6684 H         1 <0>         0.0573
     51 H20        -2.5150   -4.4441    0.0418 H         1 <0>         0.0928
     52 H21        -0.2430   -0.1026   -1.4759 H         1 <0>         0.1480
     53 H22         0.0257    1.2956   -3.4815 H         1 <0>         0.1315
     54 H23        -1.8230   -1.7260   -5.8595 H         1 <0>         0.1351
     55 H24        -2.0907   -3.1449   -3.8683 H         1 <0>         0.1352
     56 H25        -1.5201    0.5195   -6.7179 H         1 <0>         0.0942
     57 H26        -0.7491    1.7803   -5.7257 H         1 <0>         0.0783
     58 H27         1.2526   -0.0550   -6.1557 H         1 <0>         0.4235
     59 H28        -1.2143    2.8739   -8.5559 H         1 <0>         0.1486
     60 H29        -1.2054    5.3355   -8.5217 H         1 <0>         0.1455
     61 H30         0.8952    6.5541   -8.1147 H         1 <0>         0.1439
     62 H31         2.9761    2.8454   -7.7633 H         1 <0>         0.1515
@<TRIPOS>BOND
     1    1    2 1
     2    1   32 1
     3    1   33 1
     4    1   34 1
     5    2    3 1
     6    2   35 1
     7    2   36 1
     8    3    4 1
     9    3   37 1
    10    3   38 1
    11    4    5 1
    12    4   12 am
    13    5   11 1
    14    5    6 1
    15    5   39 1
    16    6    7 1
    17    6   40 1
    18    6   41 1
    19    7    8 1
    20    7   42 1
    21    7   43 1
    22    8    9 1
    23    8   44 1
    24    8   45 1
    25    9   10 1
    26    9   46 1
    27    9   47 1
    28   10   11 1
    29   10   48 1
    30   10   49 1
    31   11   50 1
    32   11   51 1
    33   12   13 2
    34   12   14 1
    35   14   19 ar
    36   14   15 ar
    37   15   16 ar
    38   15   52 1
    39   16   17 ar
    40   16   53 1
    41   17   18 ar
    42   17   20 1
    43   18   19 ar
    44   18   54 1
    45   19   55 1
    46   20   21 1
    47   20   56 1
    48   20   57 1
    49   21   22 1
    50   21   58 1
    51   22   23 2
    52   22   24 2
    53   22   25 1
    54   25   30 ar
    55   25   26 ar
    56   26   27 ar
    57   26   59 1
    58   27   28 ar
    59   27   60 1
    60   28   29 ar
    61   28   61 1
    62   29   30 ar
    63   29   31 1
    64   30   62 1
@<TRIPOS>MOLECULE
CHEMBL459966
   51    54     0     0     0
SMALL
USER_CHARGES

@<TRIPOS>ATOM
      1 C1         -0.0725    1.1119   -0.0313 C.3       1 <0>        -0.1605
      2 C2         -0.1732   -0.4139    0.0221 C.3       1 <0>         0.1868
      3 H1          0.2946   -0.8402   -0.8653 H         1 <0>         0.1138
      4 C3          0.5312   -0.9210    1.2541 C.ar      1 <0>        -0.1123
      5 C4         -0.1043   -0.8758    2.4810 C.ar      1 <0>        -0.0870
      6 C5          0.5406   -1.3409    3.6113 C.ar      1 <0>        -0.1469
      7 C6          1.8236   -1.8525    3.5147 C.ar      1 <0>         0.1066
      8 C7          2.4590   -1.8973    2.2854 C.ar      1 <0>        -0.1466
      9 C8          1.8102   -1.4364    1.1555 C.ar      1 <0>        -0.0709
     10 F1          2.4551   -2.3071    4.6191 F         1 <0>        -0.1351
     11 N1         -1.5832   -0.8089    0.0684 N.pl3     1 <0>        -0.6375
     12 C9         -2.2949   -0.9330   -1.0884 C.2       1 <0>         0.4769
     13 N2         -1.8556   -0.7385   -2.3181 N.2       1 <0>        -0.6878
     14 C10        -2.5914   -0.8742   -3.3921 C.2       1 <0>         0.5502
     15 O1         -2.1757   -0.6926   -4.5199 O.2       1 <0>        -0.4500
     16 C11        -4.0255   -1.2848   -3.0772 C.3       1 <0>        -0.0577
     17 S1         -3.9122   -1.3729   -1.2427 S.3       1 <0>        -0.0855
     18 C12        -4.3607   -2.6514   -3.6780 C.3       1 <0>        -0.1240
     19 C13        -5.0099   -0.2346   -3.5236 C.ar      1 <0>        -0.0617
     20 C14        -5.9967   -0.5559   -4.4368 C.ar      1 <0>        -0.0884
     21 C15        -6.8996    0.4074   -4.8462 C.ar      1 <0>        -0.1043
     22 C16        -6.8160    1.6919   -4.3421 C.ar      1 <0>        -0.0355
     23 C17        -5.8298    2.0129   -3.4282 C.ar      1 <0>        -0.1081
     24 C18        -4.9295    1.0485   -3.0155 C.ar      1 <0>        -0.0918
     25 C19        -7.7997    2.7423   -4.7892 C.3       1 <0>        -0.1311
     26 C20        -8.9038    3.1397   -3.8074 C.3       1 <0>        -0.1301
     27 C21        -7.7482    4.1019   -4.0894 C.3       1 <0>        -0.1531
     28 C22        -8.1447    2.7273   -6.2561 C.2       1 <0>         0.5598
     29 O2         -9.2938    2.5627   -6.6072 O.2       1 <0>        -0.5352
     30 N3         -7.1762    2.8970   -7.1779 N.am      1 <0>        -0.8469
     31 H2          0.9766    1.4057   -0.0657 H         1 <0>         0.0784
     32 H3         -0.5820    1.4786   -0.9223 H         1 <0>         0.0719
     33 H4         -0.5403    1.5381    0.8562 H         1 <0>         0.0631
     34 H5         -1.1049   -0.4764    2.5562 H         1 <0>         0.1304
     35 H6          0.0440   -1.3052    4.5698 H         1 <0>         0.1405
     36 H7          3.4599   -2.2958    2.2088 H         1 <0>         0.1416
     37 H8          2.3040   -1.4753    0.1958 H         1 <0>         0.1394
     38 H9         -2.0105   -0.9822    0.9218 H         1 <0>         0.4239
     39 H10        -3.6796   -3.4018   -3.2764 H         1 <0>         0.0747
     40 H11        -5.3864   -2.9185   -3.4237 H         1 <0>         0.0821
     41 H12        -4.2548   -2.6076   -4.7620 H         1 <0>         0.0906
     42 H13        -6.0620   -1.5594   -4.8306 H         1 <0>         0.1348
     43 H14        -7.6701    0.1566   -5.5602 H         1 <0>         0.1275
     44 H15        -5.7643    3.0165   -3.0346 H         1 <0>         0.1318
     45 H16        -4.1613    1.2983   -2.2987 H         1 <0>         0.1203
     46 H17        -9.8801    3.3903   -4.2224 H         1 <0>         0.1112
     47 H18        -8.9187    2.6413   -2.8381 H         1 <0>         0.1074
     48 H19        -7.0028    4.2366   -3.3057 H         1 <0>         0.1102
     49 H20        -7.9642    4.9855   -4.6900 H         1 <0>         0.1047
     50 H21        -6.2476    2.9481   -6.9020 H         1 <0>         0.4045
     51 H22        -7.4076    2.9678   -8.1172 H         1 <0>         0.4048
@<TRIPOS>BOND
     1    1    2 1
     2    1   31 1
     3    1   32 1
     4    1   33 1
     5    2    3 1
     6    2    4 1
     7    2   11 1
     8    4    9 ar
     9    4    5 ar
    10    5    6 ar
    11    5   34 1
    12    6    7 ar
    13    6   35 1
    14    7    8 ar
    15    7   10 1
    16    8    9 ar
    17    8   36 1
    18    9   37 1
    19   11   12 1
    20   11   38 1
    21   12   17 1
    22   12   13 2
    23   13   14 1
    24   14   15 2
    25   14   16 1
    26   16   17 1
    27   16   18 1
    28   16   19 1
    29   18   39 1
    30   18   40 1
    31   18   41 1
    32   19   24 ar
    33   19   20 ar
    34   20   21 ar
    35   20   42 1
    36   21   22 ar
    37   21   43 1
    38   22   23 ar
    39   22   25 1
    40   23   24 ar
    41   23   44 1
    42   24   45 1
    43   25   27 1
    44   25   26 1
    45   25   28 1
    46   26   27 1
    47   26   46 1
    48   26   47 1
    49   27   48 1
    50   27   49 1
    51   28   29 2
    52   28   30 am
    53   30   50 1
    54   30   51 1
@<TRIPOS>MOLECULE
CHEMBL459966__1
   50    53     0     0     0
SMALL
USER_CHARGES

@<TRIPOS>ATOM
      1 C1         -0.1104    1.1338   -0.1868 C.3       1 <0>        -0.1528
      2 C2         -0.1820   -0.3929   -0.1164 C.3       1 <0>         0.1426
      3 H1          0.2665   -0.8194   -1.0136 H         1 <0>         0.0518
      4 C3          0.5682   -0.8755    1.0982 C.ar      1 <0>        -0.0505
      5 C4         -0.0308   -0.8296    2.3433 C.ar      1 <0>        -0.0598
      6 C5          0.6561   -1.2723    3.4579 C.ar      1 <0>        -0.1593
      7 C6          1.9446   -1.7619    3.3271 C.ar      1 <0>         0.0768
      8 C7          2.5435   -1.8074    2.0796 C.ar      1 <0>        -0.1575
      9 C8          1.8528   -1.3690    0.9657 C.ar      1 <0>        -0.0953
     10 F1          2.6171   -2.1946    4.4160 F         1 <0>        -0.1496
     11 N1         -1.5826   -0.8123   -0.0239 N.2       1 <0>        -0.6005
     12 C9         -2.4590   -0.4868   -1.0169 C.2       1 <0>         0.3994
     13 N2         -2.1972    0.1916   -2.1189 N.2       1 <0>        -0.7446
     14 C10        -3.0858    0.4730   -3.0379 C.2       1 <0>         0.5332
     15 O1         -2.8329    1.0983   -4.0492 O.2       1 <0>        -0.5545
     16 C11        -4.4716   -0.0681   -2.7046 C.3       1 <0>        -0.0747
     17 S1         -4.0953   -0.8735   -1.0935 S.3       1 <0>        -0.1651
     18 C12        -4.9362   -1.0928   -3.7414 C.3       1 <0>        -0.1102
     19 C13        -5.4748    1.0456   -2.5484 C.ar      1 <0>        -0.0250
     20 C14        -6.5943    1.0860   -3.3583 C.ar      1 <0>        -0.1050
     21 C15        -7.5145    2.1076   -3.2151 C.ar      1 <0>        -0.1086
     22 C16        -7.3155    3.0884   -2.2615 C.ar      1 <0>        -0.0600
     23 C17        -6.1965    3.0474   -1.4509 C.ar      1 <0>        -0.1102
     24 C18        -5.2785    2.0235   -1.5913 C.ar      1 <0>        -0.0903
     25 C19        -8.3182    4.2026   -2.1060 C.3       1 <0>        -0.1206
     26 C20        -9.2536    4.1474   -0.8965 C.3       1 <0>        -0.1343
     27 C21        -8.1199    5.1739   -0.9405 C.3       1 <0>        -0.1559
     28 C22        -8.8735    4.7614   -3.3907 C.2       1 <0>         0.5630
     29 O2        -10.0663    4.7180   -3.6053 O.2       1 <0>        -0.5435
     30 N3         -8.0444    5.3092   -4.3012 N.am      1 <0>        -0.8468
     31 H2          0.9317    1.4459   -0.2556 H         1 <0>         0.0384
     32 H3         -0.6530    1.4829   -1.0653 H         1 <0>         0.0833
     33 H4         -0.5589    1.5603    0.7105 H         1 <0>         0.0426
     34 H5         -1.0357   -0.4473    2.4452 H         1 <0>         0.1363
     35 H6          0.1881   -1.2361    4.4305 H         1 <0>         0.1283
     36 H7          3.5486   -2.1888    1.9764 H         1 <0>         0.1280
     37 H8          2.3180   -1.4086   -0.0081 H         1 <0>         0.1270
     38 H9         -4.2294   -1.9219   -3.7748 H         1 <0>         0.0645
     39 H10        -5.9223   -1.4669   -3.4660 H         1 <0>         0.0630
     40 H11        -4.9879   -0.6197   -4.7220 H         1 <0>         0.0711
     41 H12        -6.7498    0.3197   -4.1033 H         1 <0>         0.1276
     42 H13        -8.3888    2.1396   -3.8483 H         1 <0>         0.1176
     43 H14        -6.0409    3.8139   -0.7061 H         1 <0>         0.1240
     44 H15        -4.4061    1.9894   -0.9555 H         1 <0>         0.1240
     45 H16       -10.2710    4.5152   -1.0299 H         1 <0>         0.1065
     46 H17        -9.1438    3.3053   -0.2133 H         1 <0>         0.1067
     47 H18        -7.2642    5.0070   -0.2863 H         1 <0>         0.1105
     48 H19        -8.3914    6.2170   -1.1030 H         1 <0>         0.1002
     49 H20        -7.0844    5.2722   -4.1672 H         1 <0>         0.4065
     50 H21        -8.4077    5.7406   -5.0904 H         1 <0>         0.4015
@<TRIPOS>BOND
     1    1    2 1
     2    1   31 1
     3    1   32 1
     4    1   33 1
     5    2    3 1
     6    2    4 1
     7    2   11 1
     8    4    9 ar
     9    4    5 ar
    10    5    6 ar
    11    5   34 1
    12    6    7 ar
    13    6   35 1
    14    7    8 ar
    15    7   10 1
    16    8    9 ar
    17    8   36 1
    18    9   37 1
    19   11   12 1
    20   12   17 1
    21   12   13 2
    22   13   14 1
    23   14   15 2
    24   14   16 1
    25   16   17 1
    26   16   18 1
    27   16   19 1
    28   18   38 1
    29   18   39 1
    30   18   40 1
    31   19   24 ar
    32   19   20 ar
    33   20   21 ar
    34   20   41 1
    35   21   22 ar
    36   21   42 1
    37   22   23 ar
    38   22   25 1
    39   23   24 ar
    40   23   43 1
    41   24   44 1
    42   25   27 1
    43   25   26 1
    44   25   28 1
    45   26   27 1
    46   26   45 1
    47   26   46 1
    48   27   47 1
    49   27   48 1
    50   28   29 2
    51   28   30 am
    52   30   49 1
    53   30   50 1
@<TRIPOS>MOLECULE
CHEMBL459966__2
   51    54     0     0     0
SMALL
USER_CHARGES

@<TRIPOS>ATOM
      1 C1         -0.1268    1.5869    0.0143 C.3       1 <0>        -0.1608
      2 C2         -0.0710    0.0581   -0.0064 C.3       1 <0>         0.1869
      3 H1          0.4358   -0.2748   -0.9122 H         1 <0>         0.1136
      4 C3          0.6846   -0.4334    1.2013 C.ar      1 <0>        -0.1121
      5 C4          0.0508   -0.5127    2.4274 C.ar      1 <0>        -0.0869
      6 C5          0.7425   -0.9637    3.5355 C.ar      1 <0>        -0.1468
      7 C6          2.0708   -1.3362    3.4175 C.ar      1 <0>         0.1065
      8 C7          2.7045   -1.2564    2.1891 C.ar      1 <0>        -0.1467
      9 C8          2.0093   -0.8100    1.0812 C.ar      1 <0>        -0.0710
     10 F1          2.7481   -1.7768    4.5002 F         1 <0>        -0.1351
     11 N1         -1.4331   -0.4807    0.0171 N.pl3     1 <0>        -0.6375
     12 C9         -2.1312   -0.6208   -1.1461 C.2       1 <0>         0.4768
     13 N2         -1.7171   -0.3231   -2.3639 N.2       1 <0>        -0.6879
     14 C10        -2.4378   -0.4812   -3.4450 C.2       1 <0>         0.5501
     15 O1         -2.0456   -0.2038   -4.5617 O.2       1 <0>        -0.4501
     16 C11        -3.8217   -1.0509   -3.1540 C.3       1 <0>        -0.0573
     17 S1         -3.6955   -1.2156   -1.3256 S.3       1 <0>        -0.0854
     18 C12        -4.9259   -0.0717   -3.5576 C.3       1 <0>        -0.1235
     19 C13        -4.0140   -2.3935   -3.8110 C.ar      1 <0>        -0.0633
     20 C14        -5.0324   -2.5746   -4.7280 C.ar      1 <0>        -0.0875
     21 C15        -5.2088   -3.8061   -5.3307 C.ar      1 <0>        -0.1056
     22 C16        -4.3666   -4.8563   -5.0166 C.ar      1 <0>        -0.0309
     23 C17        -3.3477   -4.6749   -4.1002 C.ar      1 <0>        -0.1096
     24 C18        -3.1686   -3.4422   -3.5008 C.ar      1 <0>        -0.0907
     25 C19        -4.5596   -6.1991   -5.6729 C.3       1 <0>        -0.1300
     26 C20        -4.9499   -7.3748   -4.7748 C.3       1 <0>        -0.1304
     27 C21        -3.5374   -7.2930   -5.3573 C.3       1 <0>        -0.1558
     28 C22        -5.1352   -6.1654   -7.0652 C.2       1 <0>         0.5594
     29 O2         -6.2351   -6.6301   -7.2780 O.2       1 <0>        -0.5344
     30 N3         -4.4279   -5.6188   -8.0738 N.am      1 <0>        -0.8469
     31 H2          0.8867    1.9877   -0.0032 H         1 <0>         0.0783
     32 H3         -0.6732    1.9424   -0.8593 H         1 <0>         0.0722
     33 H4         -0.6335    1.9197    0.9201 H         1 <0>         0.0631
     34 H5         -0.9852   -0.2218    2.5193 H         1 <0>         0.1305
     35 H6          0.2472   -1.0252    4.4933 H         1 <0>         0.1405
     36 H7          3.7407   -1.5463    2.0959 H         1 <0>         0.1415
     37 H8          2.5021   -0.7519    0.1220 H         1 <0>         0.1393
     38 H9         -1.8385   -0.7378    0.8600 H         1 <0>         0.4239
     39 H10        -4.8629    0.1259   -4.6276 H         1 <0>         0.0907
     40 H11        -5.8986   -0.5049   -3.3247 H         1 <0>         0.0820
     41 H12        -4.8027    0.8614   -3.0079 H         1 <0>         0.0745
     42 H13        -5.6904   -1.7541   -4.9734 H         1 <0>         0.1346
     43 H14        -6.0049   -3.9479   -6.0466 H         1 <0>         0.1264
     44 H15        -2.6899   -5.4955   -3.8546 H         1 <0>         0.1315
     45 H16        -2.3702   -3.2995   -2.7876 H         1 <0>         0.1204
     46 H17        -5.0671   -7.1770   -3.7094 H         1 <0>         0.1080
     47 H18        -5.6233   -8.1241   -5.1910 H         1 <0>         0.1104
     48 H19        -3.2817   -7.9886   -6.1567 H         1 <0>         0.1051
     49 H20        -2.7254   -7.0415   -4.6751 H         1 <0>         0.1104
     50 H21        -3.5199   -5.3140   -7.9200 H         1 <0>         0.4047
     51 H22        -4.8267   -5.5302   -8.9536 H         1 <0>         0.4049
@<TRIPOS>BOND
     1    1    2 1
     2    1   31 1
     3    1   32 1
     4    1   33 1
     5    2    3 1
     6    2    4 1
     7    2   11 1
     8    4    9 ar
     9    4    5 ar
    10    5    6 ar
    11    5   34 1
    12    6    7 ar
    13    6   35 1
    14    7    8 ar
    15    7   10 1
    16    8    9 ar
    17    8   36 1
    18    9   37 1
    19   11   12 1
    20   11   38 1
    21   12   17 1
    22   12   13 2
    23   13   14 1
    24   14   15 2
    25   14   16 1
    26   16   17 1
    27   16   18 1
    28   16   19 1
    29   18   39 1
    30   18   40 1
    31   18   41 1
    32   19   24 ar
    33   19   20 ar
    34   20   21 ar
    35   20   42 1
    36   21   22 ar
    37   21   43 1
    38   22   23 ar
    39   22   25 1
    40   23   24 ar
    41   23   44 1
    42   24   45 1
    43   25   27 1
    44   25   26 1
    45   25   28 1
    46   26   27 1
    47   26   46 1
    48   26   47 1
    49   27   48 1
    50   27   49 1
    51   28   29 2
    52   28   30 am
    53   30   50 1
    54   30   51 1
@<TRIPOS>MOLECULE
CHEMBL459966__3
   50    53     0     0     0
SMALL
USER_CHARGES

@<TRIPOS>ATOM
      1 C1         -0.1278    1.5829    0.0557 C.3       1 <0>        -0.1531
      2 C2         -0.0693    0.0543    0.0297 C.3       1 <0>         0.1429
      3 H1          0.4470   -0.2743   -0.8723 H         1 <0>         0.0517
      4 C3          0.6750   -0.4406    1.2430 C.ar      1 <0>        -0.0505
      5 C4          0.0292   -0.5256    2.4624 C.ar      1 <0>        -0.0598
      6 C5          0.7106   -0.9797    3.5757 C.ar      1 <0>        -0.1592
      7 C6          2.0407   -1.3496    3.4694 C.ar      1 <0>         0.0767
      8 C7          2.6864   -1.2641    2.2476 C.ar      1 <0>        -0.1575
      9 C8          2.0015   -0.8146    1.1346 C.ar      1 <0>        -0.0954
     10 F1          2.7079   -1.7933    4.5571 F         1 <0>        -0.1496
     11 N1         -1.4307   -0.4867    0.0377 N.2       1 <0>        -0.6006
     12 C9         -2.2951   -0.1730   -0.9695 C.2       1 <0>         0.3996
     13 N2         -2.0531    0.5946   -2.0161 N.2       1 <0>        -0.7447
     14 C10        -2.9285    0.8587   -2.9527 C.2       1 <0>         0.5332
     15 O1         -2.6940    1.5670   -3.9124 O.2       1 <0>        -0.5545
     16 C11        -4.2734    0.1826   -2.7114 C.3       1 <0>        -0.0743
     17 S1         -3.8879   -0.6904   -1.1381 S.3       1 <0>        -0.1653
     18 C12        -5.3913    1.2108   -2.5269 C.3       1 <0>        -0.1097
     19 C13        -4.6042   -0.7939   -3.8106 C.ar      1 <0>        -0.0267
     20 C14        -5.7507   -0.6242   -4.5639 C.ar      1 <0>        -0.1042
     21 C15        -6.0541   -1.5199   -5.5721 C.ar      1 <0>        -0.1099
     22 C16        -5.2107   -2.5850   -5.8274 C.ar      1 <0>        -0.0556
     23 C17        -4.0637   -2.7542   -5.0746 C.ar      1 <0>        -0.1116
     24 C18        -3.7581   -1.8561   -4.0692 C.ar      1 <0>        -0.0890
     25 C19        -5.5420   -3.5620   -6.9259 C.3       1 <0>        -0.1193
     26 C20        -5.8364   -5.0077   -6.5205 C.3       1 <0>        -0.1347
     27 C21        -4.5220   -4.6629   -7.2235 C.3       1 <0>        -0.1590
     28 C22        -6.3129   -2.9945   -8.0898 C.2       1 <0>         0.5628
     29 O2         -7.4469   -3.3667   -8.3053 O.2       1 <0>        -0.5419
     30 N3         -5.7421   -2.0735   -8.8913 N.am      1 <0>        -0.8469
     31 H2          0.8851    1.9855    0.0498 H         1 <0>         0.0384
     32 H3         -0.6662    1.9409   -0.8219 H         1 <0>         0.0835
     33 H4         -0.6441    1.9115    0.9577 H         1 <0>         0.0427
     34 H5         -1.0081   -0.2367    2.5451 H         1 <0>         0.1363
     35 H6          0.2060   -1.0457    4.5282 H         1 <0>         0.1283
     36 H7          3.7239   -1.5520    2.1636 H         1 <0>         0.1280
     37 H8          2.5037   -0.7521    0.1806 H         1 <0>         0.1270
     38 H9         -5.4783    1.8184   -3.4277 H         1 <0>         0.0712
     39 H10        -6.3336    0.6943   -2.3447 H         1 <0>         0.0629
     40 H11        -5.1582    1.8523   -1.6771 H         1 <0>         0.0644
     41 H12        -6.4097    0.2079   -4.3645 H         1 <0>         0.1275
     42 H13        -6.9503   -1.3878   -6.1602 H         1 <0>         0.1165
     43 H14        -3.4049   -3.5865   -5.2738 H         1 <0>         0.1237
     44 H15        -2.8600   -1.9861   -3.4836 H         1 <0>         0.1241
     45 H16        -5.7905   -5.2521   -5.4593 H         1 <0>         0.1074
     46 H17        -6.5879   -5.5486   -7.0956 H         1 <0>         0.1056
     47 H18        -4.4087   -4.9769   -8.2612 H         1 <0>         0.1005
     48 H19        -3.6113   -4.6804   -6.6248 H         1 <0>         0.1107
     49 H20        -4.8118   -1.8300   -8.7645 H         1 <0>         0.4058
     50 H21        -6.2616   -1.6541   -9.5949 H         1 <0>         0.4017
@<TRIPOS>BOND
     1    1    2 1
     2    1   31 1
     3    1   32 1
     4    1   33 1
     5    2    3 1
     6    2    4 1
     7    2   11 1
     8    4    9 ar
     9    4    5 ar
    10    5    6 ar
    11    5   34 1
    12    6    7 ar
    13    6   35 1
    14    7    8 ar
    15    7   10 1
    16    8    9 ar
    17    8   36 1
    18    9   37 1
    19   11   12 1
    20   12   17 1
    21   12   13 2
    22   13   14 1
    23   14   15 2
    24   14   16 1
    25   16   17 1
    26   16   18 1
    27   16   19 1
    28   18   38 1
    29   18   39 1
    30   18   40 1
    31   19   24 ar
    32   19   20 ar
    33   20   21 ar
    34   20   41 1
    35   21   22 ar
    36   21   42 1
    37   22   23 ar
    38   22   25 1
    39   23   24 ar
    40   23   43 1
    41   24   44 1
    42   25   27 1
    43   25   26 1
    44   25   28 1
    45   26   27 1
    46   26   45 1
    47   26   46 1
    48   27   47 1
    49   27   48 1
    50   28   29 2
    51   28   30 am
    52   30   49 1
    53   30   50 1
@<TRIPOS>MOLECULE
CHEMBL458086
   40    42     0     0     0
SMALL
USER_CHARGES

@<TRIPOS>ATOM
      1 C1         -0.0187    1.5258    0.0104 C.3       1 <0>        -0.1608
      2 C2          0.0021   -0.0041    0.0020 C.3       1 <0>         0.1866
      3 H1         -1.0205   -0.3814    0.0098 H         1 <0>         0.1140
      4 C3          0.7074   -0.4901   -1.2379 C.ar      1 <0>        -0.1123
      5 C4          2.0890   -0.5106   -1.2833 C.ar      1 <0>        -0.0870
      6 C5          2.7369   -0.9565   -2.4196 C.ar      1 <0>        -0.1469
      7 C6          2.0019   -1.3828   -3.5128 C.ar      1 <0>         0.1065
      8 C7          0.6182   -1.3618   -3.4661 C.ar      1 <0>        -0.1466
      9 C8         -0.0275   -0.9204   -2.3268 C.ar      1 <0>        -0.0709
     10 F1          2.6342   -1.8185   -4.6244 F         1 <0>        -0.1351
     11 N1          0.7106   -0.4894    1.1889 N.pl3     1 <0>        -0.6370
     12 C9          0.0433   -0.6352    2.3694 C.2       1 <0>         0.4769
     13 N2         -1.2333   -0.3879    2.5981 N.2       1 <0>        -0.6873
     14 C10        -1.8172   -0.5485    3.7585 C.2       1 <0>         0.5492
     15 O1         -2.9940   -0.3177    3.9572 O.2       1 <0>        -0.4483
     16 C11        -0.8635   -1.0564    4.8340 C.3       1 <0>        -0.0569
     17 S1          0.6760   -1.1744    3.8329 S.3       1 <0>        -0.0849
     18 C12        -1.2908   -2.4291    5.3574 C.3       1 <0>        -0.1246
     19 C13        -0.7209   -0.0625    5.9578 C.ar      1 <0>        -0.0761
     20 C14        -1.0516   -0.4282    7.2494 C.ar      1 <0>        -0.0659
     21 C15        -0.9208    0.4823    8.2808 C.ar      1 <0>        -0.1492
     22 C16        -0.4585    1.7611    8.0202 C.ar      1 <0>         0.1116
     23 C17        -0.1276    2.1262    6.7263 C.ar      1 <0>        -0.1477
     24 C18        -0.2542    1.2124    5.6973 C.ar      1 <0>        -0.0687
     25 F2         -0.3307    2.6521    9.0277 F         1 <0>        -0.1346
     26 H2          1.0039    1.9031    0.0027 H         1 <0>         0.0633
     27 H3         -0.5459    1.8868   -0.8726 H         1 <0>         0.0786
     28 H4         -0.5289    1.8773    0.9072 H         1 <0>         0.0720
     29 H5          2.6621   -0.1777   -0.4306 H         1 <0>         0.1305
     30 H6          3.8163   -0.9721   -2.4550 H         1 <0>         0.1406
     31 H7          0.0439   -1.6937   -4.3184 H         1 <0>         0.1417
     32 H8         -1.1068   -0.9081   -2.2885 H         1 <0>         0.1395
     33 H9          1.6544   -0.7070    1.1351 H         1 <0>         0.4241
     34 H10        -1.3098   -3.1424    4.5334 H         1 <0>         0.0759
     35 H11        -0.5820   -2.7664    6.1137 H         1 <0>         0.0827
     36 H12        -2.2851   -2.3566    5.7981 H         1 <0>         0.0915
     37 H13        -1.4125   -1.4256    7.4524 H         1 <0>         0.1431
     38 H14        -1.1795    0.1965    9.2897 H         1 <0>         0.1433
     39 H15         0.2328    3.1235    6.5218 H         1 <0>         0.1413
     40 H16         0.0080    1.4956    4.6886 H         1 <0>         0.1277
@<TRIPOS>BOND
     1    1    2 1
     2    1   26 1
     3    1   27 1
     4    1   28 1
     5    2    3 1
     6    2    4 1
     7    2   11 1
     8    4    9 ar
     9    4    5 ar
    10    5    6 ar
    11    5   29 1
    12    6    7 ar
    13    6   30 1
    14    7    8 ar
    15    7   10 1
    16    8    9 ar
    17    8   31 1
    18    9   32 1
    19   11   12 1
    20   11   33 1
    21   12   17 1
    22   12   13 2
    23   13   14 1
    24   14   15 2
    25   14   16 1
    26   16   17 1
    27   16   18 1
    28   16   19 1
    29   18   34 1
    30   18   35 1
    31   18   36 1
    32   19   24 ar
    33   19   20 ar
    34   20   21 ar
    35   20   37 1
    36   21   22 ar
    37   21   38 1
    38   22   23 ar
    39   22   25 1
    40   23   24 ar
    41   23   39 1
    42   24   40 1
@<TRIPOS>MOLECULE
CHEMBL458086__1
   39    41     0     0     0
SMALL
USER_CHARGES

@<TRIPOS>ATOM
      1 C1         -0.0187    1.5258    0.0104 C.3       1 <0>        -0.1532
      2 C2          0.0021   -0.0041    0.0020 C.3       1 <0>         0.1424
      3 H1         -1.0205   -0.3814    0.0098 H         1 <0>         0.0523
      4 C3          0.7074   -0.4901   -1.2379 C.ar      1 <0>        -0.0506
      5 C4          2.0890   -0.5106   -1.2833 C.ar      1 <0>        -0.0599
      6 C5          2.7369   -0.9565   -2.4196 C.ar      1 <0>        -0.1592
      7 C6          2.0019   -1.3828   -3.5128 C.ar      1 <0>         0.0768
      8 C7          0.6182   -1.3618   -3.4661 C.ar      1 <0>        -0.1574
      9 C8         -0.0275   -0.9204   -2.3268 C.ar      1 <0>        -0.0952
     10 F1          2.6342   -1.8185   -4.6244 F         1 <0>        -0.1496
     11 N1          0.7106   -0.4894    1.1889 N.2       1 <0>        -0.5995
     12 C9          0.2521   -0.1729    2.4338 C.2       1 <0>         0.3988
     13 N2         -0.8115    0.5510    2.7302 N.2       1 <0>        -0.7442
     14 C10        -1.2010    0.8205    3.9504 C.2       1 <0>         0.5322
     15 O1         -2.1828    1.4882    4.2113 O.2       1 <0>        -0.5530
     16 C11        -0.2920    0.2069    5.0094 C.3       1 <0>        -0.0742
     17 S1          0.9214   -0.6309    3.9086 S.3       1 <0>        -0.1642
     18 C12        -1.0456   -0.8048    5.8752 C.3       1 <0>        -0.1107
     19 C13         0.3643    1.2684    5.8542 C.ar      1 <0>        -0.0396
     20 C14         0.1659    1.2829    7.2222 C.ar      1 <0>        -0.0829
     21 C15         0.7676    2.2556    7.9979 C.ar      1 <0>        -0.1535
     22 C16         1.5694    3.2158    7.4044 C.ar      1 <0>         0.0867
     23 C17         1.7673    3.2003    6.0342 C.ar      1 <0>        -0.1497
     24 C18         1.1688    2.2235    5.2611 C.ar      1 <0>        -0.0676
     25 F2          2.1577    4.1674    8.1617 F         1 <0>        -0.1457
     26 H2          1.0039    1.9031    0.0027 H         1 <0>         0.0428
     27 H3         -0.5459    1.8868   -0.8726 H         1 <0>         0.0388
     28 H4         -0.5289    1.8773    0.9072 H         1 <0>         0.0834
     29 H5          2.6621   -0.1777   -0.4306 H         1 <0>         0.1364
     30 H6          3.8163   -0.9721   -2.4550 H         1 <0>         0.1284
     31 H7          0.0439   -1.6937   -4.3184 H         1 <0>         0.1281
     32 H8         -1.1068   -0.9081   -2.2885 H         1 <0>         0.1271
     33 H9         -1.4423   -1.5995    5.2434 H         1 <0>         0.0658
     34 H10        -0.3644   -1.2317    6.6113 H         1 <0>         0.0637
     35 H11        -1.8669   -0.3039    6.3877 H         1 <0>         0.0720
     36 H12        -0.4598    0.5340    7.6849 H         1 <0>         0.1362
     37 H13         0.6122    2.2669    9.0666 H         1 <0>         0.1332
     38 H14         2.3922    3.9489    5.5701 H         1 <0>         0.1334
     39 H15         1.3267    2.2085    4.1928 H         1 <0>         0.1315
@<TRIPOS>BOND
     1    1    2 1
     2    1   26 1
     3    1   27 1
     4    1   28 1
     5    2    3 1
     6    2    4 1
     7    2   11 1
     8    4    9 ar
     9    4    5 ar
    10    5    6 ar
    11    5   29 1
    12    6    7 ar
    13    6   30 1
    14    7    8 ar
    15    7   10 1
    16    8    9 ar
    17    8   31 1
    18    9   32 1
    19   11   12 1
    20   12   17 1
    21   12   13 2
    22   13   14 1
    23   14   15 2
    24   14   16 1
    25   16   17 1
    26   16   18 1
    27   16   19 1
    28   18   33 1
    29   18   34 1
    30   18   35 1
    31   19   24 ar
    32   19   20 ar
    33   20   21 ar
    34   20   36 1
    35   21   22 ar
    36   21   37 1
    37   22   23 ar
    38   22   25 1
    39   23   24 ar
    40   23   38 1
    41   24   39 1
@<TRIPOS>MOLECULE
CHEMBL458086__2
   40    42     0     0     0
SMALL
USER_CHARGES

@<TRIPOS>ATOM
      1 C1         -0.0187    1.5258    0.0104 C.3       1 <0>        -0.1607
      2 C2          0.0021   -0.0041    0.0020 C.3       1 <0>         0.1866
      3 H1         -1.0205   -0.3814    0.0098 H         1 <0>         0.1139
      4 C3          0.7074   -0.4901   -1.2379 C.ar      1 <0>        -0.1123
      5 C4          2.0890   -0.5106   -1.2833 C.ar      1 <0>        -0.0870
      6 C5          2.7369   -0.9565   -2.4196 C.ar      1 <0>        -0.1469
      7 C6          2.0019   -1.3828   -3.5128 C.ar      1 <0>         0.1065
      8 C7          0.6182   -1.3618   -3.4661 C.ar      1 <0>        -0.1466
      9 C8         -0.0275   -0.9204   -2.3268 C.ar      1 <0>        -0.0709
     10 F1          2.6342   -1.8185   -4.6244 F         1 <0>        -0.1351
     11 N1          0.7106   -0.4894    1.1889 N.pl3     1 <0>        -0.6370
     12 C9          0.0433   -0.6352    2.3694 C.2       1 <0>         0.4769
     13 N2         -1.2333   -0.3879    2.5981 N.2       1 <0>        -0.6874
     14 C10        -1.8172   -0.5485    3.7585 C.2       1 <0>         0.5492
     15 O1         -2.9940   -0.3177    3.9572 O.2       1 <0>        -0.4483
     16 C11        -0.8635   -1.0564    4.8340 C.3       1 <0>        -0.0568
     17 S1          0.6760   -1.1744    3.8329 S.3       1 <0>        -0.0848
     18 C12        -0.7188   -0.0473    5.9750 C.3       1 <0>        -0.1241
     19 C13        -1.2844   -2.4085    5.3496 C.ar      1 <0>        -0.0767
     20 C14        -1.5790   -2.5756    6.6899 C.ar      1 <0>        -0.0657
     21 C15        -1.9655   -3.8149    7.1637 C.ar      1 <0>        -0.1494
     22 C16        -2.0577   -4.8895    6.2955 C.ar      1 <0>         0.1117
     23 C17        -1.7623   -4.7210    4.9533 C.ar      1 <0>        -0.1478
     24 C18        -1.3811   -3.4795    4.4808 C.ar      1 <0>        -0.0685
     25 F2         -2.4350   -6.1016    6.7576 F         1 <0>        -0.1345
     26 H2          1.0039    1.9031    0.0027 H         1 <0>         0.0632
     27 H3         -0.5459    1.8868   -0.8726 H         1 <0>         0.0785
     28 H4         -0.5289    1.8773    0.9072 H         1 <0>         0.0723
     29 H5          2.6621   -0.1777   -0.4306 H         1 <0>         0.1305
     30 H6          3.8163   -0.9721   -2.4550 H         1 <0>         0.1406
     31 H7          0.0439   -1.6937   -4.3184 H         1 <0>         0.1416
     32 H8         -1.1068   -0.9081   -2.2885 H         1 <0>         0.1395
     33 H9          1.6544   -0.7070    1.1351 H         1 <0>         0.4241
     34 H10        -1.6909    0.1177    6.4396 H         1 <0>         0.0916
     35 H11        -0.0223   -0.4363    6.7178 H         1 <0>         0.0826
     36 H12        -0.3400    0.8955    5.5803 H         1 <0>         0.0758
     37 H13        -1.5067   -1.7373    7.3670 H         1 <0>         0.1431
     38 H14        -2.1953   -3.9453    8.2109 H         1 <0>         0.1433
     39 H15        -1.8336   -5.5585    4.2752 H         1 <0>         0.1412
     40 H16        -1.1550   -3.3467    3.4331 H         1 <0>         0.1278
@<TRIPOS>BOND
     1    1    2 1
     2    1   26 1
     3    1   27 1
     4    1   28 1
     5    2    3 1
     6    2    4 1
     7    2   11 1
     8    4    9 ar
     9    4    5 ar
    10    5    6 ar
    11    5   29 1
    12    6    7 ar
    13    6   30 1
    14    7    8 ar
    15    7   10 1
    16    8    9 ar
    17    8   31 1
    18    9   32 1
    19   11   12 1
    20   11   33 1
    21   12   17 1
    22   12   13 2
    23   13   14 1
    24   14   15 2
    25   14   16 1
    26   16   17 1
    27   16   18 1
    28   16   19 1
    29   18   34 1
    30   18   35 1
    31   18   36 1
    32   19   24 ar
    33   19   20 ar
    34   20   21 ar
    35   20   37 1
    36   21   22 ar
    37   21   38 1
    38   22   23 ar
    39   22   25 1
    40   23   24 ar
    41   23   39 1
    42   24   40 1
@<TRIPOS>MOLECULE
CHEMBL458086__3
   39    41     0     0     0
SMALL
USER_CHARGES

@<TRIPOS>ATOM
      1 C1         -0.0187    1.5258    0.0104 C.3       1 <0>        -0.1531
      2 C2          0.0021   -0.0041    0.0020 C.3       1 <0>         0.1424
      3 H1         -1.0205   -0.3814    0.0098 H         1 <0>         0.0522
      4 C3          0.7074   -0.4901   -1.2379 C.ar      1 <0>        -0.0506
      5 C4          2.0890   -0.5106   -1.2833 C.ar      1 <0>        -0.0598
      6 C5          2.7369   -0.9565   -2.4196 C.ar      1 <0>        -0.1592
      7 C6          2.0019   -1.3828   -3.5128 C.ar      1 <0>         0.0768
      8 C7          0.6182   -1.3618   -3.4661 C.ar      1 <0>        -0.1574
      9 C8         -0.0275   -0.9204   -2.3268 C.ar      1 <0>        -0.0952
     10 F1          2.6342   -1.8185   -4.6244 F         1 <0>        -0.1496
     11 N1          0.7106   -0.4894    1.1889 N.2       1 <0>        -0.5996
     12 C9          0.2521   -0.1729    2.4338 C.2       1 <0>         0.3988
     13 N2         -0.8115    0.5510    2.7302 N.2       1 <0>        -0.7442
     14 C10        -1.2010    0.8205    3.9504 C.2       1 <0>         0.5321
     15 O1         -2.1828    1.4882    4.2113 O.2       1 <0>        -0.5530
     16 C11        -0.2920    0.2069    5.0094 C.3       1 <0>        -0.0740
     17 S1          0.9214   -0.6309    3.9086 S.3       1 <0>        -0.1642
     18 C12         0.3743    1.2846    5.8670 C.3       1 <0>        -0.1102
     19 C13        -1.0342   -0.7896    5.8622 C.ar      1 <0>        -0.0402
     20 C14        -1.1255   -0.5972    7.2281 C.ar      1 <0>        -0.0829
     21 C15        -1.8063   -1.5100    8.0111 C.ar      1 <0>        -0.1537
     22 C16        -2.3971   -2.6177    7.4270 C.ar      1 <0>         0.0867
     23 C17        -2.3049   -2.8094    6.0588 C.ar      1 <0>        -0.1498
     24 C18        -1.6281   -1.8924    5.2772 C.ar      1 <0>        -0.0672
     25 F2         -3.0624   -3.5110    8.1915 F         1 <0>        -0.1457
     26 H2          1.0039    1.9031    0.0027 H         1 <0>         0.0428
     27 H3         -0.5459    1.8868   -0.8726 H         1 <0>         0.0386
     28 H4         -0.5289    1.8773    0.9072 H         1 <0>         0.0836
     29 H5          2.6621   -0.1777   -0.4306 H         1 <0>         0.1364
     30 H6          3.8163   -0.9721   -2.4550 H         1 <0>         0.1284
     31 H7          0.0439   -1.6937   -4.3184 H         1 <0>         0.1281
     32 H8         -1.1068   -0.9081   -2.2885 H         1 <0>         0.1271
     33 H9         -0.3919    1.8666    6.3792 H         1 <0>         0.0722
     34 H10         1.0247    0.8124    6.6033 H         1 <0>         0.0636
     35 H11         0.9648    1.9426    5.2296 H         1 <0>         0.0656
     36 H12        -0.6644    0.2667    7.6836 H         1 <0>         0.1361
     37 H13        -1.8772   -1.3597    9.0782 H         1 <0>         0.1332
     38 H14        -2.7651   -3.6732    5.6022 H         1 <0>         0.1334
     39 H15        -1.5600   -2.0393    4.2094 H         1 <0>         0.1316
@<TRIPOS>BOND
     1    1    2 1
     2    1   26 1
     3    1   27 1
     4    1   28 1
     5    2    3 1
     6    2    4 1
     7    2   11 1
     8    4    9 ar
     9    4    5 ar
    10    5    6 ar
    11    5   29 1
    12    6    7 ar
    13    6   30 1
    14    7    8 ar
    15    7   10 1
    16    8    9 ar
    17    8   31 1
    18    9   32 1
    19   11   12 1
    20   12   17 1
    21   12   13 2
    22   13   14 1
    23   14   15 2
    24   14   16 1
    25   16   17 1
    26   16   18 1
    27   16   19 1
    28   18   33 1
    29   18   34 1
    30   18   35 1
    31   19   24 ar
    32   19   20 ar
    33   20   21 ar
    34   20   36 1
    35   21   22 ar
    36   21   37 1
    37   22   23 ar
    38   22   25 1
    39   23   24 ar
    40   23   38 1
    41   24   39 1
@<TRIPOS>MOLECULE
CHEMBL260384
   47    49     0     0     0
SMALL
USER_CHARGES

@<TRIPOS>ATOM
      1 C1          0.0624   -5.1309   -3.1171 C.3       1 <0>        -0.1481
      2 C2          0.0428   -4.1438   -1.9483 C.3       1 <0>        -0.0938
      3 C3          0.8006   -4.7435   -0.7616 C.3       1 <0>        -0.1313
      4 C4          0.8086   -3.7385    0.3945 C.3       1 <0>         0.0927
      5 N1         -0.5768   -3.3533    0.6958 N.am      1 <0>        -0.6024
      6 C5         -1.4228   -2.8488   -0.3944 C.3       1 <0>         0.1102
      7 C6         -1.4058   -3.8637   -1.5417 C.3       1 <0>        -0.1307
      8 C7         -1.0626   -3.4610    1.9484 C.2       1 <0>         0.5603
      9 O1         -2.1871   -3.0747    2.1992 O.2       1 <0>        -0.5167
     10 C8         -0.2257   -4.0504    3.0193 C.ar      1 <0>        -0.0735
     11 C9          1.0841   -3.6094    3.2325 C.ar      1 <0>        -0.1375
     12 C10         1.8289   -4.1863    4.2426 C.ar      1 <0>         0.1100
     13 N2          1.3207   -5.1388    4.9990 N.ar      1 <0>        -0.4507
     14 C11         0.0913   -5.5835    4.8319 C.ar      1 <0>         0.1264
     15 C12        -0.7254   -5.0588    3.8487 C.ar      1 <0>        -0.1072
     16 C13        -0.4328   -6.6749    5.7293 C.3       1 <0>        -0.5578
     17 S1         -1.2185   -5.9342    7.1869 S.o2      1 <0>         2.4845
     18 O2         -0.2410   -5.3013    8.0013 O.2       1 <0>        -0.8964
     19 O3         -2.4019   -5.2450    6.8078 O.2       1 <0>        -0.9024
     20 C14        -1.7819   -7.3032    8.1424 C.ar      1 <0>        -0.6623
     21 C15        -3.0493   -7.8170    7.9347 C.ar      1 <0>         0.0562
     22 C16        -3.4912   -8.8920    8.6854 C.ar      1 <0>        -0.1271
     23 C17        -2.6667   -9.4522    9.6430 C.ar      1 <0>        -0.0378
     24 C18        -1.4002   -8.9391    9.8509 C.ar      1 <0>        -0.1271
     25 C19        -0.9549   -7.8681    9.0966 C.ar      1 <0>         0.0570
     26 Cl1         0.6387   -7.2288    9.3525 Cl        1 <0>        -0.0066
     27 Cl2        -4.0855   -7.1129    6.7329 Cl        1 <0>        -0.0099
     28 H1         -0.4763   -4.7035   -3.9628 H         1 <0>         0.0572
     29 H2          1.0941   -5.3305   -3.4068 H         1 <0>         0.0566
     30 H3         -0.4166   -6.0621   -2.8143 H         1 <0>         0.0546
     31 H4          0.5214   -3.2126   -2.2514 H         1 <0>         0.0741
     32 H5          0.3081   -5.6619   -0.4420 H         1 <0>         0.0681
     33 H6          1.8258   -4.9644   -1.0588 H         1 <0>         0.0791
     34 H7          1.2599   -4.1973    1.2743 H         1 <0>         0.0927
     35 H8          1.3792   -2.8554    0.1071 H         1 <0>         0.0771
     36 H9         -2.4439   -2.7205   -0.0352 H         1 <0>         0.0960
     37 H10        -1.0342   -1.8931   -0.7462 H         1 <0>         0.0729
     38 H11        -1.9510   -3.4584   -2.3941 H         1 <0>         0.0794
     39 H12        -1.8775   -4.7904   -1.2148 H         1 <0>         0.0679
     40 H13         1.5070   -2.8297    2.6164 H         1 <0>         0.1508
     41 H14         2.8416   -3.8527    4.4147 H         1 <0>         0.1744
     42 H15        -1.7333   -5.4250    3.7201 H         1 <0>         0.1521
     43 H16        -1.1651   -7.2719    5.1857 H         1 <0>         0.1524
     44 H17         0.3926   -7.3125    6.0460 H         1 <0>         0.1590
     45 H18        -4.4807   -9.2933    8.5234 H         1 <0>         0.1522
     46 H19        -3.0123  -10.2908   10.2291 H         1 <0>         0.1533
     47 H20        -0.7565   -9.3770   10.5995 H         1 <0>         0.1523
@<TRIPOS>BOND
     1    1    2 1
     2    1   28 1
     3    1   29 1
     4    1   30 1
     5    2    7 1
     6    2    3 1
     7    2   31 1
     8    3    4 1
     9    3   32 1
    10    3   33 1
    11    4    5 1
    12    4   34 1
    13    4   35 1
    14    5    6 1
    15    5    8 am
    16    6    7 1
    17    6   36 1
    18    6   37 1
    19    7   38 1
    20    7   39 1
    21    8    9 2
    22    8   10 1
    23   10   15 ar
    24   10   11 ar
    25   11   12 ar
    26   11   40 1
    27   12   13 ar
    28   12   41 1
    29   13   14 ar
    30   14   15 ar
    31   14   16 1
    32   15   42 1
    33   16   17 1
    34   16   43 1
    35   16   44 1
    36   17   18 2
    37   17   19 2
    38   17   20 1
    39   20   25 ar
    40   20   21 ar
    41   21   22 ar
    42   21   27 1
    43   22   23 ar
    44   22   45 1
    45   23   24 ar
    46   23   46 1
    47   24   25 ar
    48   24   47 1
    49   25   26 1
@<TRIPOS>MOLECULE
CHEMBL565064
   60    64     0     0     0
SMALL
USER_CHARGES

@<TRIPOS>ATOM
      1 C1         -0.0187    1.5258    0.0104 C.3       1 <0>        -0.1551
      2 C2          0.0021   -0.0041    0.0020 C.3       1 <0>        -0.0390
      3 C3          0.7421   -0.5109    1.2415 C.3       1 <0>        -0.1603
      4 C4         -1.4333   -0.5336    0.0129 C.3       1 <0>        -0.0359
      5 C5         -2.1387   -0.0476    1.2528 C.2       1 <0>         0.3091
      6 N1         -2.8211    1.0569    1.3566 N.2       1 <0>        -0.5334
      7 C6         -3.3152    1.1776    2.6019 C.2       1 <0>         0.2949
      8 N2         -2.9429    0.1352    3.3029 N.2       1 <0>        -0.3341
      9 O1         -2.1744   -0.6814    2.4320 O.3       1 <0>        -0.0978
     10 C7         -4.1437    2.3041    3.0990 C.ar      1 <0>        -0.0342
     11 C8         -4.4767    3.3557    2.2477 C.ar      1 <0>        -0.0517
     12 C9         -5.2472    4.4009    2.7145 C.ar      1 <0>        -0.1156
     13 C10        -5.6889    4.4060    4.0267 C.ar      1 <0>        -0.0111
     14 C11        -5.3602    3.3636    4.8765 C.ar      1 <0>        -0.1141
     15 C12        -4.5958    2.3107    4.4170 C.ar      1 <0>        -0.0640
     16 Cl1        -6.6574    5.7240    4.6084 Cl        1 <0>        -0.0573
     17 C13         0.7182   -0.4975   -1.2568 C.3       1 <0>        -0.1326
     18 C14         2.1320    0.0241   -1.2675 C.2       1 <0>         0.5161
     19 O2          2.5279    0.7218   -0.3579 O.2       1 <0>        -0.5261
     20 N3          2.9565   -0.2847   -2.2879 N.am      1 <0>        -0.7249
     21 C15         4.3309    0.2224   -2.2983 C.3       1 <0>         0.1583
     22 C16         4.3512    1.6287   -2.9006 C.3       1 <0>        -0.0942
     23 C17         3.8155    1.5778   -4.3329 C.3       1 <0>        -0.1061
     24 C18         4.6950    0.6502   -5.1737 C.3       1 <0>        -0.0872
     25 C19         6.1303    1.1798   -5.1845 C.3       1 <0>        -0.1085
     26 C20         6.6660    1.2307   -3.7523 C.3       1 <0>        -0.0885
     27 C21         5.7865    2.1583   -2.9115 C.3       1 <0>        -0.1072
     28 C22         6.6458   -0.1756   -3.1500 C.3       1 <0>        -0.1058
     29 C23         5.2104   -0.7052   -3.1391 C.3       1 <0>        -0.0929
     30 C24         4.6747   -0.7561   -4.5714 C.3       1 <0>        -0.1089
     31 H1          1.0039    1.9031    0.0027 H         1 <0>         0.0884
     32 H2         -0.5459    1.8868   -0.8726 H         1 <0>         0.0543
     33 H3         -0.5289    1.8773    0.9072 H         1 <0>         0.0526
     34 H4          0.2319   -0.1594    2.1383 H         1 <0>         0.0493
     35 H5          0.7568   -1.6008    1.2356 H         1 <0>         0.0543
     36 H6          1.7647   -0.1336    1.2338 H         1 <0>         0.0922
     37 H7         -1.9605   -0.1726   -0.8702 H         1 <0>         0.1166
     38 H8         -1.4185   -1.6235    0.0069 H         1 <0>         0.1070
     39 H9         -4.1320    3.3529    1.2241 H         1 <0>         0.1492
     40 H10        -5.5058    5.2164    2.0555 H         1 <0>         0.1447
     41 H11        -5.7068    3.3722    5.8994 H         1 <0>         0.1443
     42 H12        -4.3440    1.4956    5.0793 H         1 <0>         0.1422
     43 H13         0.7330   -1.5874   -1.2628 H         1 <0>         0.0988
     44 H14         0.1910   -0.1364   -2.1398 H         1 <0>         0.0994
     45 H15         2.6400   -0.8427   -3.0154 H         1 <0>         0.3985
     46 H16         4.7126    0.2586   -1.2779 H         1 <0>         0.0878
     47 H17         3.7246    2.2895   -2.3016 H         1 <0>         0.0745
     48 H18         2.7929    1.2006   -4.3251 H         1 <0>         0.0604
     49 H19         3.8299    2.5797   -4.7619 H         1 <0>         0.0622
     50 H20         4.3133    0.6140   -6.1940 H         1 <0>         0.0703
     51 H21         6.7569    0.5190   -5.7835 H         1 <0>         0.0622
     52 H22         6.1447    2.1817   -5.6136 H         1 <0>         0.0625
     53 H23         7.6886    1.6080   -3.7600 H         1 <0>         0.0720
     54 H24         5.8009    3.1602   -3.3406 H         1 <0>         0.0654
     55 H25         6.1682    2.1945   -1.8911 H         1 <0>         0.0641
     56 H26         7.2724   -0.8365   -3.7490 H         1 <0>         0.0680
     57 H27         7.0275   -0.1394   -2.1296 H         1 <0>         0.0652
     58 H28         5.1960   -1.7071   -2.7100 H         1 <0>         0.0756
     59 H29         3.6522   -1.1334   -4.5636 H         1 <0>         0.0590
     60 H30         5.3013   -1.4169   -5.1704 H         1 <0>         0.0673
@<TRIPOS>BOND
     1    1    2 1
     2    1   31 1
     3    1   32 1
     4    1   33 1
     5    2    3 1
     6    2    4 1
     7    2   17 1
     8    3   34 1
     9    3   35 1
    10    3   36 1
    11    4    5 1
    12    4   37 1
    13    4   38 1
    14    5    9 1
    15    5    6 2
    16    6    7 1
    17    7    8 2
    18    7   10 1
    19    8    9 1
    20   10   15 ar
    21   10   11 ar
    22   11   12 ar
    23   11   39 1
    24   12   13 ar
    25   12   40 1
    26   13   14 ar
    27   13   16 1
    28   14   15 ar
    29   14   41 1
    30   15   42 1
    31   17   18 1
    32   17   43 1
    33   17   44 1
    34   18   19 2
    35   18   20 am
    36   20   21 1
    37   20   45 1
    38   21   29 1
    39   21   22 1
    40   21   46 1
    41   22   27 1
    42   22   23 1
    43   22   47 1
    44   23   24 1
    45   23   48 1
    46   23   49 1
    47   24   30 1
    48   24   25 1
    49   24   50 1
    50   25   26 1
    51   25   51 1
    52   25   52 1
    53   26   27 1
    54   26   28 1
    55   26   53 1
    56   27   54 1
    57   27   55 1
    58   28   29 1
    59   28   56 1
    60   28   57 1
    61   29   30 1
    62   29   58 1
    63   30   59 1
    64   30   60 1
@<TRIPOS>MOLECULE
CHEMBL392489
   55    58     0     0     0
SMALL
USER_CHARGES

@<TRIPOS>ATOM
      1 C1         -0.1309    1.5691   -0.0896 C.3       1 <0>        -0.1605
      2 C2         -0.1198    0.0392   -0.0747 C.3       1 <0>         0.1360
      3 H1         -1.1437   -0.3311   -0.0253 H         1 <0>         0.0631
      4 C3          0.5387   -0.4705   -1.3308 C.ar      1 <0>         0.0099
      5 C4          1.3251    0.3750   -2.0911 C.ar      1 <0>        -0.1175
      6 C5          1.9290   -0.0925   -3.2430 C.ar      1 <0>        -0.0915
      7 C6          1.7470   -1.4059   -3.6348 C.ar      1 <0>        -0.1333
      8 C7          0.9616   -2.2514   -2.8743 C.ar      1 <0>        -0.0788
      9 C8          0.3610   -1.7849   -1.7196 C.ar      1 <0>        -0.1720
     10 C9         -0.4911   -2.7082   -0.8875 C.3       1 <0>         0.5059
     11 F1         -0.4913   -3.9849   -1.4598 F         1 <0>        -0.1886
     12 F2          0.0275   -2.7788    0.4099 F         1 <0>        -0.1549
     13 F3         -1.8007   -2.2182   -0.8403 F         1 <0>        -0.1803
     14 N1          0.6271   -0.4323    1.0941 N.2       1 <0>        -0.6101
     15 C10         0.2157   -0.0947    2.3454 C.2       1 <0>         0.5024
     16 N2         -0.8435    0.6455    2.5903 N.2       1 <0>        -0.7004
     17 C11        -1.0217    0.8251    3.9011 C.2       1 <0>         0.4833
     18 O1         -1.9055    1.4567    4.4457 O.2       1 <0>        -0.5462
     19 C12         0.1102    0.0742    4.5626 C.3       1 <0>        -0.0025
     20 O2          0.8438   -0.4856    3.4679 O.3       1 <0>        -0.3205
     21 C13        -0.4352   -1.0335    5.4588 C.3       1 <0>        -0.1235
     22 C14         0.7313   -1.7453    6.1498 C.3       1 <0>        -0.0009
     23 N3          1.4958   -0.7768    6.9451 N.4       1 <0>        -0.3795
     24 C15         2.0940    0.2336    6.0642 C.3       1 <0>        -0.0055
     25 C16         0.9851    1.0288    5.3694 C.3       1 <0>        -0.1207
     26 C17         2.5597   -1.4778    7.6762 C.3       1 <0>         0.0437
     27 C18         3.2672   -0.5073    8.5865 C.ar      1 <0>        -0.1546
     28 C19         4.3612    0.2008    8.1255 C.ar      1 <0>        -0.0959
     29 C20         5.0102    1.0911    8.9605 C.ar      1 <0>        -0.1145
     30 C21         4.5648    1.2735   10.2564 C.ar      1 <0>        -0.0889
     31 C22         3.4702    0.5661   10.7171 C.ar      1 <0>        -0.1152
     32 C23         2.8186   -0.3210    9.8807 C.ar      1 <0>        -0.0945
     33 H2          0.8906    1.9407   -0.0084 H         1 <0>         0.0467
     34 H3         -0.5723    1.9202   -1.0224 H         1 <0>         0.0441
     35 H4         -0.7190    1.9363    0.7515 H         1 <0>         0.0837
     36 H5          1.4673    1.4009   -1.7850 H         1 <0>         0.1334
     37 H6          2.5427    0.5682   -3.8373 H         1 <0>         0.1273
     38 H7          2.2183   -1.7710   -4.5353 H         1 <0>         0.1289
     39 H8          0.8192   -3.2773   -3.1805 H         1 <0>         0.1326
     40 H9         -1.0948   -0.6011    6.2111 H         1 <0>         0.1020
     41 H10        -0.9918   -1.7496    4.8543 H         1 <0>         0.1147
     42 H11         0.3438   -2.5266    6.8036 H         1 <0>         0.1292
     43 H12         1.3817   -2.1912    5.3973 H         1 <0>         0.1350
     44 H13         2.7109    0.9108    6.6549 H         1 <0>         0.1279
     45 H14         2.7122   -0.2592    5.3138 H         1 <0>         0.1335
     46 H15         1.4300    1.7667    4.7018 H         1 <0>         0.1127
     47 H16         0.3763    1.5351    6.1184 H         1 <0>         0.1013
     48 H17         2.1239   -2.2813    8.2701 H         1 <0>         0.1348
     49 H18         3.2733   -1.8965    6.9665 H         1 <0>         0.1350
     50 H19         4.7092    0.0583    7.1131 H         1 <0>         0.1326
     51 H20         5.8654    1.6438    8.6006 H         1 <0>         0.1345
     52 H21         5.0722    1.9685   10.9090 H         1 <0>         0.1330
     53 H22         3.1224    0.7084   11.7296 H         1 <0>         0.1337
     54 H23         1.9611   -0.8709   10.2395 H         1 <0>         0.1309
     55 H24         0.8802   -0.3244    7.6042 H         1 <0>         0.4189
@<TRIPOS>BOND
     1    1    2 1
     2    1   33 1
     3    1   34 1
     4    1   35 1
     5    2    3 1
     6    2    4 1
     7    2   14 1
     8    4    9 ar
     9    4    5 ar
    10    5    6 ar
    11    5   36 1
    12    6    7 ar
    13    6   37 1
    14    7    8 ar
    15    7   38 1
    16    8    9 ar
    17    8   39 1
    18    9   10 1
    19   10   11 1
    20   10   12 1
    21   10   13 1
    22   14   15 1
    23   15   20 1
    24   15   16 2
    25   16   17 1
    26   17   18 2
    27   17   19 1
    28   19   25 1
    29   19   20 1
    30   19   21 1
    31   21   22 1
    32   21   40 1
    33   21   41 1
    34   22   23 1
    35   22   42 1
    36   22   43 1
    37   23   24 1
    38   23   26 1
    39   23   55 1
    40   24   25 1
    41   24   44 1
    42   24   45 1
    43   25   46 1
    44   25   47 1
    45   26   27 1
    46   26   48 1
    47   26   49 1
    48   27   32 ar
    49   27   28 ar
    50   28   29 ar
    51   28   50 1
    52   29   30 ar
    53   29   51 1
    54   30   31 ar
    55   30   52 1
    56   31   32 ar
    57   31   53 1
    58   32   54 1
@<TRIPOS>MOLECULE
CHEMBL392489__1
   56    59     0     0     0
SMALL
USER_CHARGES

@<TRIPOS>ATOM
      1 C1         -0.1913    1.5625   -0.0443 C.3       1 <0>        -0.1679
      2 C2         -0.1228    0.0379    0.0645 C.3       1 <0>         0.1765
      3 H1          0.3122   -0.3722   -0.8469 H         1 <0>         0.1265
      4 C3          0.7327   -0.3435    1.2451 C.ar      1 <0>        -0.0727
      5 C4          1.0161    0.5908    2.2240 C.ar      1 <0>        -0.0990
      6 C5          1.8006    0.2410    3.3068 C.ar      1 <0>        -0.0843
      7 C6          2.3016   -1.0434    3.4112 C.ar      1 <0>        -0.1013
      8 C7          2.0175   -1.9777    2.4331 C.ar      1 <0>        -0.0715
      9 C8          1.2292   -1.6289    1.3522 C.ar      1 <0>        -0.1649
     10 C9          0.9151   -2.6491    0.2884 C.3       1 <0>         0.5058
     11 F1          1.5662   -3.8506    0.5877 F         1 <0>        -0.1710
     12 F2         -0.4663   -2.8658    0.2435 F         1 <0>        -0.1823
     13 F3          1.3538   -2.1778   -0.9537 F         1 <0>        -0.1681
     14 N1         -1.4733   -0.4999    0.2460 N.pl3     1 <0>        -0.6369
     15 C10        -2.2653   -0.7282   -0.8356 C.2       1 <0>         0.6153
     16 N2         -1.8913   -0.4982   -2.0753 N.2       1 <0>        -0.6298
     17 C11        -2.8575   -0.8083   -2.9428 C.2       1 <0>         0.5080
     18 O1         -2.8212   -0.7105   -4.1535 O.2       1 <0>        -0.4398
     19 C12        -4.0055   -1.3078   -2.0970 C.3       1 <0>         0.0006
     20 O2         -3.5142   -1.2192   -0.7552 O.3       1 <0>        -0.3159
     21 C13        -4.3368   -2.7552   -2.4474 C.3       1 <0>        -0.1305
     22 C14        -5.5316   -3.2178   -1.6086 C.3       1 <0>        -0.0028
     23 N3         -6.6856   -2.3515   -1.8781 N.4       1 <0>        -0.3833
     24 C15        -6.3911   -0.9779   -1.4524 C.3       1 <0>        -0.0083
     25 C16        -5.2325   -0.4209   -2.2845 C.3       1 <0>        -0.1276
     26 C17        -7.8533   -2.8510   -1.1400 C.3       1 <0>         0.0452
     27 C18        -9.0670   -2.0379   -1.5101 C.ar      1 <0>        -0.1629
     28 C19        -9.3822   -0.9002   -0.7910 C.ar      1 <0>        -0.0987
     29 C20       -10.4955   -0.1544   -1.1304 C.ar      1 <0>        -0.1133
     30 C21       -11.2933   -0.5460   -2.1892 C.ar      1 <0>        -0.0832
     31 C22       -10.9775   -1.6832   -2.9089 C.ar      1 <0>        -0.1121
     32 C23        -9.8618   -2.4267   -2.5721 C.ar      1 <0>        -0.0927
     33 H2          0.8190    1.9713   -0.0622 H         1 <0>         0.0865
     34 H3         -0.7112    1.8383   -0.9617 H         1 <0>         0.0775
     35 H4         -0.7305    1.9641    0.8137 H         1 <0>         0.0685
     36 H5          0.6247    1.5941    2.1424 H         1 <0>         0.1451
     37 H6          2.0226    0.9710    4.0711 H         1 <0>         0.1413
     38 H7          2.9153   -1.3166    4.2569 H         1 <0>         0.1427
     39 H8          2.4092   -2.9809    2.5145 H         1 <0>         0.1446
     40 H9         -1.8026   -0.6932    1.1377 H         1 <0>         0.4242
     41 H10        -4.5866   -2.8253   -3.5061 H         1 <0>         0.1206
     42 H11        -3.4753   -3.3878   -2.2335 H         1 <0>         0.1244
     43 H12        -5.7812   -4.2465   -1.8685 H         1 <0>         0.1420
     44 H13        -5.2754   -3.1628   -0.5505 H         1 <0>         0.1359
     45 H14        -7.2742   -0.3557   -1.5973 H         1 <0>         0.1408
     46 H15        -6.1148   -0.9759   -0.3980 H         1 <0>         0.1347
     47 H16        -5.0026    0.5926   -1.9556 H         1 <0>         0.1227
     48 H17        -5.5143   -0.4072   -3.3373 H         1 <0>         0.1199
     49 H18        -8.0247   -3.8966   -1.3957 H         1 <0>         0.1394
     50 H19        -7.6706   -2.7642   -0.0689 H         1 <0>         0.1362
     51 H20        -8.7590   -0.5942    0.0363 H         1 <0>         0.1306
     52 H21       -10.7422    0.7341   -0.5681 H         1 <0>         0.1363
     53 H22       -12.1634    0.0364   -2.4540 H         1 <0>         0.1363
     54 H23       -11.6010   -1.9893   -3.7359 H         1 <0>         0.1368
     55 H24        -9.6130   -3.3131   -3.1367 H         1 <0>         0.1320
     56 H25        -6.8871   -2.3599   -2.8667 H         1 <0>         0.4239
@<TRIPOS>BOND
     1    1    2 1
     2    1   33 1
     3    1   34 1
     4    1   35 1
     5    2    3 1
     6    2    4 1
     7    2   14 1
     8    4    9 ar
     9    4    5 ar
    10    5    6 ar
    11    5   36 1
    12    6    7 ar
    13    6   37 1
    14    7    8 ar
    15    7   38 1
    16    8    9 ar
    17    8   39 1
    18    9   10 1
    19   10   11 1
    20   10   12 1
    21   10   13 1
    22   14   15 1
    23   14   40 1
    24   15   20 1
    25   15   16 2
    26   16   17 1
    27   17   18 2
    28   17   19 1
    29   19   25 1
    30   19   20 1
    31   19   21 1
    32   21   22 1
    33   21   41 1
    34   21   42 1
    35   22   23 1
    36   22   43 1
    37   22   44 1
    38   23   24 1
    39   23   26 1
    40   23   56 1
    41   24   25 1
    42   24   45 1
    43   24   46 1
    44   25   47 1
    45   25   48 1
    46   26   27 1
    47   26   49 1
    48   26   50 1
    49   27   32 ar
    50   27   28 ar
    51   28   29 ar
    52   28   51 1
    53   29   30 ar
    54   29   52 1
    55   30   31 ar
    56   30   53 1
    57   31   32 ar
    58   31   54 1
    59   32   55 1
@<TRIPOS>MOLECULE
CHEMBL392489__2
   55    58     0     0     0
SMALL
USER_CHARGES

@<TRIPOS>ATOM
      1 C1         -0.1913    1.5625   -0.0443 C.3       1 <0>        -0.1667
      2 C2         -0.1228    0.0379    0.0645 C.3       1 <0>         0.1783
      3 H1          0.3122   -0.3722   -0.8469 H         1 <0>         0.1242
      4 C3          0.7327   -0.3435    1.2451 C.ar      1 <0>        -0.0653
      5 C4          1.0161    0.5908    2.2240 C.ar      1 <0>        -0.1005
      6 C5          1.8006    0.2410    3.3068 C.ar      1 <0>        -0.0869
      7 C6          2.3016   -1.0434    3.4112 C.ar      1 <0>        -0.1067
      8 C7          2.0176   -1.9777    2.4331 C.ar      1 <0>        -0.0729
      9 C8          1.2292   -1.6289    1.3522 C.ar      1 <0>        -0.1631
     10 C9          0.9151   -2.6491    0.2884 C.3       1 <0>         0.5042
     11 F1          1.5662   -3.8506    0.5877 F         1 <0>        -0.1745
     12 F2         -0.4663   -2.8658    0.2435 F         1 <0>        -0.1750
     13 F3          1.3538   -2.1778   -0.9537 F         1 <0>        -0.1686
     14 N1         -1.4733   -0.4999    0.2460 N.pl3     1 <0>        -0.6491
     15 C10        -2.2653   -0.7282   -0.8356 C.2       1 <0>         0.6111
     16 N2         -1.8913   -0.4982   -2.0753 N.2       1 <0>        -0.6450
     17 C11        -2.8575   -0.8082   -2.9427 C.2       1 <0>         0.5059
     18 O1         -2.8211   -0.7103   -4.1534 O.2       1 <0>        -0.4537
     19 C12        -4.0057   -1.3077   -2.0970 C.3       1 <0>         0.0182
     20 O2         -3.5142   -1.2192   -0.7552 O.3       1 <0>        -0.3106
     21 C13        -4.3365   -2.7550   -2.4475 C.3       1 <0>        -0.0997
     22 C14        -5.5200   -3.2246   -1.5966 C.3       1 <0>         0.0594
     23 N3         -6.6739   -2.3488   -1.8380 N.3       1 <0>        -0.5325
     24 C15        -6.3864   -0.9652   -1.4387 C.3       1 <0>         0.0549
     25 C16        -5.2320   -0.4197   -2.2842 C.3       1 <0>        -0.0984
     26 C17        -7.8716   -2.8558   -1.1550 C.3       1 <0>         0.0954
     27 C18        -9.0791   -2.0820   -1.6177 C.ar      1 <0>        -0.0803
     28 C19        -9.4610   -0.9330   -0.9506 C.ar      1 <0>        -0.1161
     29 C20       -10.5687   -0.2232   -1.3750 C.ar      1 <0>        -0.1209
     30 C21       -11.2942   -0.6620   -2.4668 C.ar      1 <0>        -0.1189
     31 C22       -10.9117   -1.8105   -3.1345 C.ar      1 <0>        -0.1200
     32 C23        -9.8015   -2.5179   -2.7127 C.ar      1 <0>        -0.0970
     33 H2          0.8190    1.9713   -0.0622 H         1 <0>         0.0810
     34 H3         -0.7112    1.8383   -0.9617 H         1 <0>         0.0783
     35 H4         -0.7305    1.9641    0.8137 H         1 <0>         0.0664
     36 H5          0.6247    1.5941    2.1424 H         1 <0>         0.1445
     37 H6          2.0226    0.9710    4.0711 H         1 <0>         0.1385
     38 H7          2.9153   -1.3166    4.2569 H         1 <0>         0.1396
     39 H8          2.4092   -2.9809    2.5145 H         1 <0>         0.1428
     40 H9         -1.8026   -0.6932    1.1377 H         1 <0>         0.4211
     41 H10        -4.5981   -2.8230   -3.5035 H         1 <0>         0.1045
     42 H11        -3.4705   -3.3853   -2.2455 H         1 <0>         0.0795
     43 H12        -5.7782   -4.2486   -1.8667 H         1 <0>         0.0859
     44 H13        -5.2478   -3.1846   -0.5419 H         1 <0>         0.0421
     45 H14        -7.2729   -0.3504   -1.5943 H         1 <0>         0.0894
     46 H15        -6.1080   -0.9415   -0.3851 H         1 <0>         0.0402
     47 H16        -4.9972    0.5963   -1.9670 H         1 <0>         0.0778
     48 H17        -5.5211   -0.4155   -3.3352 H         1 <0>         0.1040
     49 H18        -8.0046   -3.9117   -1.3906 H         1 <0>         0.0863
     50 H19        -7.7539   -2.7358   -0.0781 H         1 <0>         0.0444
     51 H20        -8.8942   -0.5902   -0.0976 H         1 <0>         0.1173
     52 H21       -10.8675    0.6740   -0.8534 H         1 <0>         0.1211
     53 H22       -12.1600   -0.1079   -2.7980 H         1 <0>         0.1212
     54 H23       -11.4787   -2.1535   -3.9873 H         1 <0>         0.1224
     55 H24        -9.5006   -3.4131   -3.2366 H         1 <0>         0.1228
@<TRIPOS>BOND
     1    1    2 1
     2    1   33 1
     3    1   34 1
     4    1   35 1
     5    2    3 1
     6    2    4 1
     7    2   14 1
     8    4    9 ar
     9    4    5 ar
    10    5    6 ar
    11    5   36 1
    12    6    7 ar
    13    6   37 1
    14    7    8 ar
    15    7   38 1
    16    8    9 ar
    17    8   39 1
    18    9   10 1
    19   10   11 1
    20   10   12 1
    21   10   13 1
    22   14   15 1
    23   14   40 1
    24   15   20 1
    25   15   16 2
    26   16   17 1
    27   17   18 2
    28   17   19 1
    29   19   25 1
    30   19   20 1
    31   19   21 1
    32   21   22 1
    33   21   41 1
    34   21   42 1
    35   22   23 1
    36   22   43 1
    37   22   44 1
    38   23   24 1
    39   23   26 1
    40   24   25 1
    41   24   45 1
    42   24   46 1
    43   25   47 1
    44   25   48 1
    45   26   27 1
    46   26   49 1
    47   26   50 1
    48   27   32 ar
    49   27   28 ar
    50   28   29 ar
    51   28   51 1
    52   29   30 ar
    53   29   52 1
    54   30   31 ar
    55   30   53 1
    56   31   32 ar
    57   31   54 1
    58   32   55 1
@<TRIPOS>MOLECULE
CHEMBL392489__3
   54    57     0     0     0
SMALL
USER_CHARGES

@<TRIPOS>ATOM
      1 C1         -0.0503    1.5688    0.1575 C.3       1 <0>        -0.1594
      2 C2         -0.0046    0.0396    0.1458 C.3       1 <0>         0.1373
      3 H1          0.5592   -0.3137    1.0091 H         1 <0>         0.0568
      4 C3         -1.4083   -0.5054    0.2053 C.ar      1 <0>         0.0192
      5 C4         -2.4808    0.3124   -0.0987 C.ar      1 <0>        -0.1184
      6 C5         -3.7682   -0.1874   -0.0441 C.ar      1 <0>        -0.0941
      7 C6         -3.9836   -1.5053    0.3140 C.ar      1 <0>        -0.1394
      8 C7         -2.9113   -2.3231    0.6169 C.ar      1 <0>        -0.0804
      9 C8         -1.6232   -1.8243    0.5582 C.ar      1 <0>        -0.1714
     10 C9         -0.4538   -2.7175    0.8834 C.3       1 <0>         0.5046
     11 F1         -0.9171   -4.0051    1.1740 F         1 <0>        -0.1924
     12 F2          0.4122   -2.7701   -0.2142 F         1 <0>        -0.1480
     13 F3          0.2292   -2.2063    1.9921 F         1 <0>        -0.1812
     14 N1          0.6460   -0.4201   -1.0837 N.2       1 <0>        -0.6361
     15 C10         1.9266   -0.0511   -1.3542 C.2       1 <0>         0.5144
     16 N2          2.6493    0.7102   -0.5620 N.2       1 <0>        -0.7200
     17 C11         3.8687    0.9188   -1.0637 C.2       1 <0>         0.4847
     18 O1          4.7660    1.5749   -0.5726 O.2       1 <0>        -0.5545
     19 C12         3.8947    0.1638   -2.3722 C.3       1 <0>         0.0146
     20 O2          2.5944   -0.4292   -2.4581 O.3       1 <0>        -0.3187
     21 C13         4.9709   -0.9170   -2.3435 C.3       1 <0>        -0.0930
     22 C14         4.9933   -1.6457   -3.6903 C.3       1 <0>         0.0624
     23 N3          5.2488   -0.6785   -4.7654 N.3       1 <0>        -0.5316
     24 C15         4.1809    0.3264   -4.8441 C.3       1 <0>         0.0587
     25 C16         4.1311    1.1213   -3.5361 C.3       1 <0>        -0.0916
     26 C17         5.4269   -1.3595   -6.0548 C.3       1 <0>         0.0922
     27 C18         5.9260   -0.3732   -7.0791 C.ar      1 <0>        -0.0715
     28 C19         5.0253    0.3477   -7.8406 C.ar      1 <0>        -0.1137
     29 C20         5.4830    1.2524   -8.7802 C.ar      1 <0>        -0.1221
     30 C21         6.8415    1.4366   -8.9579 C.ar      1 <0>        -0.1244
     31 C22         7.7422    0.7163   -8.1958 C.ar      1 <0>        -0.1230
     32 C23         7.2844   -0.1853   -7.2532 C.ar      1 <0>        -0.0986
     33 H2          0.9626    1.9619    0.2450 H         1 <0>         0.0845
     34 H3         -0.4998    1.9260   -0.7690 H         1 <0>         0.0445
     35 H4         -0.6461    1.9080    1.0048 H         1 <0>         0.0365
     36 H5         -2.3126    1.3419   -0.3784 H         1 <0>         0.1330
     37 H6         -4.6061    0.4517   -0.2808 H         1 <0>         0.1243
     38 H7         -4.9896   -1.8957    0.3573 H         1 <0>         0.1255
     39 H8         -3.0796   -3.3526    0.8969 H         1 <0>         0.1302
     40 H9          5.9427   -0.4580   -2.1620 H         1 <0>         0.0856
     41 H10         4.7502   -1.6291   -1.5483 H         1 <0>         0.0695
     42 H11         5.7819   -2.3981   -3.6833 H         1 <0>         0.0728
     43 H12         4.0310   -2.1294   -3.8578 H         1 <0>         0.0423
     44 H13         4.3803    1.0044   -5.6740 H         1 <0>         0.0762
     45 H14         3.2244   -0.1715   -5.0034 H         1 <0>         0.0401
     46 H15         3.3184    1.8462   -3.5816 H         1 <0>         0.0676
     47 H16         5.0770    1.6432   -3.3914 H         1 <0>         0.0849
     48 H17         6.1522   -2.1654   -5.9429 H         1 <0>         0.0815
     49 H18         4.4728   -1.7723   -6.3825 H         1 <0>         0.0421
     50 H19         3.9640    0.2038   -7.7018 H         1 <0>         0.1192
     51 H20         4.7794    1.8151   -9.3757 H         1 <0>         0.1193
     52 H21         7.1991    2.1429   -9.6925 H         1 <0>         0.1178
     53 H22         8.8035    0.8599   -8.3349 H         1 <0>         0.1193
     54 H23         7.9880   -0.7453   -6.6551 H         1 <0>         0.1219
@<TRIPOS>BOND
     1    1    2 1
     2    1   33 1
     3    1   34 1
     4    1   35 1
     5    2    3 1
     6    2    4 1
     7    2   14 1
     8    4    9 ar
     9    4    5 ar
    10    5    6 ar
    11    5   36 1
    12    6    7 ar
    13    6   37 1
    14    7    8 ar
    15    7   38 1
    16    8    9 ar
    17    8   39 1
    18    9   10 1
    19   10   11 1
    20   10   12 1
    21   10   13 1
    22   14   15 1
    23   15   20 1
    24   15   16 2
    25   16   17 1
    26   17   18 2
    27   17   19 1
    28   19   25 1
    29   19   20 1
    30   19   21 1
    31   21   22 1
    32   21   40 1
    33   21   41 1
    34   22   23 1
    35   22   42 1
    36   22   43 1
    37   23   24 1
    38   23   26 1
    39   24   25 1
    40   24   44 1
    41   24   45 1
    42   25   46 1
    43   25   47 1
    44   26   27 1
    45   26   48 1
    46   26   49 1
    47   27   32 ar
    48   27   28 ar
    49   28   29 ar
    50   28   50 1
    51   29   30 ar
    52   29   51 1
    53   30   31 ar
    54   30   52 1
    55   31   32 ar
    56   31   53 1
    57   32   54 1
@<TRIPOS>MOLECULE
CHEMBL260385
   47    49     0     0     0
SMALL
USER_CHARGES

@<TRIPOS>ATOM
      1 C1         -0.8896    1.8664    0.8071 C.3       1 <0>        -0.1475
      2 C2         -0.5412    0.3890    0.6151 C.3       1 <0>        -0.0954
      3 C3         -1.8214   -0.4065    0.3499 C.3       1 <0>        -0.1285
      4 C4         -1.4651   -1.8792    0.1239 C.3       1 <0>         0.1072
      5 N1         -0.6839   -2.3584    1.2722 N.am      1 <0>        -0.5894
      6 C5          0.5179   -1.6124    1.6697 C.3       1 <0>         0.0703
      7 C6          0.1394   -0.1427    1.8785 C.3       1 <0>        -0.1314
      8 C7         -1.0626   -3.4610    1.9484 C.2       1 <0>         0.5704
      9 O1         -2.1291   -3.9886    1.7017 O.2       1 <0>        -0.5285
     10 C8         -0.1786   -4.0299    2.9925 C.ar      1 <0>         0.0869
     11 C9         -0.6527   -5.0443    3.8214 C.ar      1 <0>        -0.0944
     12 C10         0.1858   -5.5664    4.7934 C.ar      1 <0>        -0.0509
     13 C11         1.4699   -5.0557    4.9028 C.ar      1 <0>        -0.1309
     14 C12         1.8747   -4.0462    4.0443 C.ar      1 <0>         0.1009
     15 N2          1.0600   -3.5726    3.1268 N.ar      1 <0>        -0.4405
     16 C13        -0.2877   -6.6641    5.7110 C.3       1 <0>        -0.5694
     17 S1          0.0825   -8.2763    4.9665 S.o2      1 <0>         2.4824
     18 O2         -0.7128   -8.4735    3.8056 O.2       1 <0>        -0.8994
     19 O3          1.4874   -8.4858    4.9263 O.2       1 <0>        -0.9029
     20 C14        -0.5154   -9.4592    6.1275 C.ar      1 <0>        -0.6626
     21 C15         0.3154   -9.9255    7.1304 C.ar      1 <0>         0.0568
     22 C16        -0.1547  -10.8544    8.0417 C.ar      1 <0>        -0.1266
     23 C17        -1.4540  -11.3168    7.9498 C.ar      1 <0>        -0.0371
     24 C18        -2.2846  -10.8513    6.9479 C.ar      1 <0>        -0.1261
     25 C19        -1.8175   -9.9178    6.0397 C.ar      1 <0>         0.0561
     26 Cl1        -2.8633   -9.3274    4.7860 Cl        1 <0>        -0.0072
     27 Cl2         1.9476   -9.3456    7.2453 Cl        1 <0>        -0.0113
     28 H1          0.0222    2.4333    0.9948 H         1 <0>         0.0556
     29 H2         -1.3744    2.2453   -0.0926 H         1 <0>         0.0552
     30 H3         -1.5649    1.9730    1.6560 H         1 <0>         0.0535
     31 H4          0.1346    0.2826   -0.2336 H         1 <0>         0.0721
     32 H5         -2.4873   -0.3210    1.2086 H         1 <0>         0.0667
     33 H6         -2.3178   -0.0120   -0.5367 H         1 <0>         0.0763
     34 H7         -2.3789   -2.4664    0.0330 H         1 <0>         0.0939
     35 H8         -0.8738   -1.9765   -0.7866 H         1 <0>         0.0710
     36 H9          0.9125   -2.0236    2.5989 H         1 <0>         0.1475
     37 H10         1.2710   -1.6879    0.8853 H         1 <0>         0.0666
     38 H11         1.0387    0.4395    2.0798 H         1 <0>         0.0752
     39 H12        -0.5449   -0.0597    2.7228 H         1 <0>         0.0626
     40 H13        -1.6596   -5.4182    3.7083 H         1 <0>         0.1584
     41 H14         2.1480   -5.4405    5.6501 H         1 <0>         0.1530
     42 H15         2.8744   -3.6460    4.1267 H         1 <0>         0.1757
     43 H16         0.2229   -6.5811    6.6705 H         1 <0>         0.1536
     44 H17        -1.3632   -6.5723    5.8626 H         1 <0>         0.1532
     45 H18         0.4938  -11.2185    8.8248 H         1 <0>         0.1525
     46 H19        -1.8203  -12.0424    8.6610 H         1 <0>         0.1538
     47 H20        -3.2996  -11.2133    6.8764 H         1 <0>         0.1528
@<TRIPOS>BOND
     1    1    2 1
     2    1   28 1
     3    1   29 1
     4    1   30 1
     5    2    7 1
     6    2    3 1
     7    2   31 1
     8    3    4 1
     9    3   32 1
    10    3   33 1
    11    4    5 1
    12    4   34 1
    13    4   35 1
    14    5    6 1
    15    5    8 am
    16    6    7 1
    17    6   36 1
    18    6   37 1
    19    7   38 1
    20    7   39 1
    21    8    9 2
    22    8   10 1
    23   10   15 ar
    24   10   11 ar
    25   11   12 ar
    26   11   40 1
    27   12   13 ar
    28   12   16 1
    29   13   14 ar
    30   13   41 1
    31   14   15 ar
    32   14   42 1
    33   16   17 1
    34   16   43 1
    35   16   44 1
    36   17   18 2
    37   17   19 2
    38   17   20 1
    39   20   25 ar
    40   20   21 ar
    41   21   22 ar
    42   21   27 1
    43   22   23 ar
    44   22   45 1
    45   23   24 ar
    46   23   46 1
    47   24   25 ar
    48   24   47 1
    49   25   26 1
@<TRIPOS>MOLECULE
CHEMBL251401
   46    49     0     0     0
SMALL
USER_CHARGES

@<TRIPOS>ATOM
      1 C1         -1.8773   -5.5555    2.6134 C.3       1 <0>         0.0188
      2 O1         -1.4173   -4.6556    1.6032 O.3       1 <0>        -0.2974
      3 C2         -0.5590   -5.1548    0.6775 C.ar      1 <0>         0.1855
      4 C3         -0.0566   -4.3458   -0.3392 C.ar      1 <0>        -0.1373
      5 C4          0.8201   -4.8957   -1.2676 C.ar      1 <0>         0.1350
      6 N1          1.1752   -6.1734   -1.1887 N.ar      1 <0>        -0.4705
      7 C5          0.7172   -6.9628   -0.2394 C.ar      1 <0>         0.2072
      8 C6         -0.1553   -6.4852    0.7246 C.ar      1 <0>        -0.2270
      9 Cl1         1.2198   -8.6238   -0.1912 Cl        1 <0>        -0.0116
     10 C7          1.3631   -4.0488   -2.3555 C.2       1 <0>         0.5776
     11 O2          1.1834   -2.8472   -2.3374 O.2       1 <0>        -0.5206
     12 N2          2.0563   -4.6114   -3.3652 N.am      1 <0>        -0.5906
     13 C8          2.7484   -3.7750   -4.3553 C.3       1 <0>         0.1158
     14 C9          2.2952   -4.1936   -5.7574 C.3       1 <0>        -0.1493
     15 C10         2.5228   -5.6965   -5.9352 C.3       1 <0>         0.1658
     16 C11         1.6885   -6.4655   -4.9083 C.3       1 <0>        -0.1509
     17 C12         2.1395   -6.0727   -3.4933 C.3       1 <0>         0.0781
     18 N3          2.1212   -6.0944   -7.2868 N.am      1 <0>        -0.5344
     19 C13         2.9473   -6.6795   -8.2435 C.ar      1 <0>         0.0918
     20 C14         4.2843   -7.0471   -8.2496 C.ar      1 <0>        -0.1058
     21 C15         4.8341   -7.6215   -9.3788 C.ar      1 <0>        -0.1074
     22 C16         4.0563   -7.8313  -10.5047 C.ar      1 <0>        -0.1101
     23 C17         2.7239   -7.4680  -10.5082 C.ar      1 <0>        -0.1044
     24 C18         2.1627   -6.8915   -9.3789 C.ar      1 <0>         0.0871
     25 N4          0.8842   -6.4287   -9.0768 N.am      1 <0>        -0.6453
     26 H1          0.1194   -6.4437   -9.6732 H         1 <0>         0.4342
     27 C19         0.8894   -5.9622   -7.8138 C.2       1 <0>         0.6818
     28 O3         -0.0725   -5.4896   -7.2373 O.2       1 <0>        -0.5493
     29 H2         -2.4025   -6.3885    2.1462 H         1 <0>         0.0642
     30 H3         -1.0253   -5.9341    3.1781 H         1 <0>         0.0643
     31 H4         -2.5550   -5.0304    3.2866 H         1 <0>         0.1120
     32 H5         -0.3442   -3.3069   -0.4055 H         1 <0>         0.1660
     33 H6         -0.5214   -7.1395    1.5020 H         1 <0>         0.1573
     34 H7          2.4978   -2.7275   -4.1878 H         1 <0>         0.1022
     35 H8          3.8255   -3.9145   -4.2625 H         1 <0>         0.0764
     36 H9          1.2356   -3.9692   -5.8794 H         1 <0>         0.0888
     37 H10         2.8716   -3.6475   -6.5042 H         1 <0>         0.0820
     38 H11         3.5787   -5.9237   -5.7887 H         1 <0>         0.1006
     39 H12         0.6346   -6.2197   -5.0383 H         1 <0>         0.0849
     40 H13         1.8330   -7.5365   -5.0507 H         1 <0>         0.0805
     41 H14         3.1679   -6.3957   -3.3316 H         1 <0>         0.0724
     42 H15         1.4869   -6.5417   -2.7568 H         1 <0>         0.1533
     43 H16         4.8943   -6.8843   -7.3734 H         1 <0>         0.1294
     44 H17         5.8755   -7.9079   -9.3837 H         1 <0>         0.1339
     45 H18         4.4934   -8.2806  -11.3841 H         1 <0>         0.1339
     46 H19         2.1204   -7.6326  -11.3886 H         1 <0>         0.1311
@<TRIPOS>BOND
     1    1    2 1
     2    1   29 1
     3    1   30 1
     4    1   31 1
     5    2    3 1
     6    3    8 ar
     7    3    4 ar
     8    4    5 ar
     9    4   32 1
    10    5    6 ar
    11    5   10 1
    12    6    7 ar
    13    7    8 ar
    14    7    9 1
    15    8   33 1
    16   10   11 2
    17   10   12 am
    18   12   17 1
    19   12   13 1
    20   13   14 1
    21   13   34 1
    22   13   35 1
    23   14   15 1
    24   14   36 1
    25   14   37 1
    26   15   16 1
    27   15   18 1
    28   15   38 1
    29   16   17 1
    30   16   39 1
    31   16   40 1
    32   17   41 1
    33   17   42 1
    34   18   27 am
    35   18   19 1
    36   19   24 ar
    37   19   20 ar
    38   20   21 ar
    39   20   43 1
    40   21   22 ar
    41   21   44 1
    42   22   23 ar
    43   22   45 1
    44   23   24 ar
    45   23   46 1
    46   24   25 1
    47   25   26 1
    48   25   27 am
    49   27   28 2
@<TRIPOS>MOLECULE
CHEMBL396928
   49    52     0     0     0
SMALL
USER_CHARGES

@<TRIPOS>ATOM
      1 C1          0.3624    1.5762    0.0051 C.3       1 <0>        -0.1897
      2 C2          0.3770    0.0465   -0.0178 C.3       1 <0>        -0.0111
      3 N1          0.9894   -0.4559    1.2193 N.4       1 <0>        -0.3841
      4 C3          0.1507   -0.0825    2.3653 C.3       1 <0>        -0.0245
      5 C4          0.8448   -0.5052    3.6642 C.3       1 <0>         0.0879
      6 N2          1.1552   -1.9408    3.5813 N.am      1 <0>        -0.6319
      7 C5          1.8535   -2.4309    2.3829 C.3       1 <0>         0.0568
      8 C6          1.1118   -1.9173    1.1444 C.3       1 <0>        -0.0247
      9 C7          0.8099   -2.7830    4.5752 C.2       1 <0>         0.5337
     10 O1          0.3213   -2.3479    5.5964 O.2       1 <0>        -0.5042
     11 C8          1.0311   -4.2653    4.4177 C.3       1 <0>        -0.0700
     12 C9          0.2510   -4.7711    3.2026 C.3       1 <0>        -0.1089
     13 C10         0.4756   -6.2760    3.0426 C.3       1 <0>        -0.0850
     14 C11        -0.0115   -7.0007    4.2990 C.3       1 <0>        -0.1132
     15 C12         0.7686   -6.4949    5.5142 C.3       1 <0>        -0.0879
     16 C13         0.5440   -4.9900    5.6741 C.3       1 <0>        -0.0890
     17 C14         2.2602   -6.7695    5.3130 C.3       1 <0>        -0.1138
     18 C15         2.7473   -6.0448    4.0566 C.3       1 <0>        -0.0852
     19 C16         1.9672   -6.5506    2.8415 C.3       1 <0>        -0.1124
     20 C17         2.5227   -4.5399    4.2165 C.3       1 <0>        -0.1150
     21 H1          1.3841    1.9482    0.0818 H         1 <0>         0.0815
     22 H2         -0.0920    1.9490   -0.9129 H         1 <0>         0.1079
     23 H3         -0.2153    1.9213    0.8626 H         1 <0>         0.0807
     24 H4         -0.6447   -0.3255   -0.0946 H         1 <0>         0.1292
     25 H5          0.9547   -0.2986   -0.8753 H         1 <0>         0.1327
     26 H6         -0.0004    0.9970    2.3686 H         1 <0>         0.1455
     27 H7         -0.8139   -0.5843    2.2886 H         1 <0>         0.1333
     28 H8          1.7670    0.0624    3.7882 H         1 <0>         0.0943
     29 H9          0.1820   -0.3220    4.5100 H         1 <0>         0.1351
     30 H10         2.8776   -2.0578    2.3774 H         1 <0>         0.0982
     31 H11         1.8577   -3.5209    2.3815 H         1 <0>         0.1567
     32 H12         0.1182   -2.3636    1.1046 H         1 <0>         0.1342
     33 H13         1.6689   -2.1898    0.2480 H         1 <0>         0.1453
     34 H14        -0.8117   -4.5755    3.3459 H         1 <0>         0.0723
     35 H15         0.5980   -4.2548    2.3075 H         1 <0>         0.0653
     36 H16        -0.0802   -6.6363    2.1769 H         1 <0>         0.0788
     37 H17        -1.0742   -6.8051    4.4424 H         1 <0>         0.0655
     38 H18         0.1485   -8.0728    4.1851 H         1 <0>         0.0705
     39 H19         0.4216   -7.0112    6.4093 H         1 <0>         0.0805
     40 H20         1.0998   -4.6297    6.5398 H         1 <0>         0.0732
     41 H21        -0.5186   -4.7944    5.8174 H         1 <0>         0.0719
     42 H22         2.8160   -6.4092    6.1787 H         1 <0>         0.0664
     43 H23         2.4202   -7.8416    5.1991 H         1 <0>         0.0702
     44 H24         3.8100   -6.2404    3.9133 H         1 <0>         0.0801
     45 H25         2.1272   -7.6227    2.7275 H         1 <0>         0.0730
     46 H26         2.3142   -6.0343    1.9464 H         1 <0>         0.0606
     47 H27         2.8697   -4.0236    3.3215 H         1 <0>         0.0718
     48 H28         3.0785   -4.1796    5.0822 H         1 <0>         0.0741
     49 H29         1.9057   -0.0481    1.3293 H         1 <0>         0.4233
@<TRIPOS>BOND
     1    1    2 1
     2    1   21 1
     3    1   22 1
     4    1   23 1
     5    2    3 1
     6    2   24 1
     7    2   25 1
     8    3    8 1
     9    3    4 1
    10    3   49 1
    11    4    5 1
    12    4   26 1
    13    4   27 1
    14    5    6 1
    15    5   28 1
    16    5   29 1
    17    6    7 1
    18    6    9 am
    19    7    8 1
    20    7   30 1
    21    7   31 1
    22    8   32 1
    23    8   33 1
    24    9   10 2
    25    9   11 1
    26   11   16 1
    27   11   20 1
    28   11   12 1
    29   12   13 1
    30   12   34 1
    31   12   35 1
    32   13   19 1
    33   13   14 1
    34   13   36 1
    35   14   15 1
    36   14   37 1
    37   14   38 1
    38   15   16 1
    39   15   17 1
    40   15   39 1
    41   16   40 1
    42   16   41 1
    43   17   18 1
    44   17   42 1
    45   17   43 1
    46   18   19 1
    47   18   20 1
    48   18   44 1
    49   19   45 1
    50   19   46 1
    51   20   47 1
    52   20   48 1
@<TRIPOS>MOLECULE
CHEMBL396928__1
   48    51     0     0     0
SMALL
USER_CHARGES

@<TRIPOS>ATOM
      1 C1         -0.1977    1.5891   -0.2916 C.3       1 <0>        -0.1507
      2 C2         -0.1916    0.0591   -0.2844 C.3       1 <0>         0.0504
      3 N1          0.5772   -0.4328   -1.4355 N.3       1 <0>        -0.5376
      4 C3          1.9956   -0.0700   -1.3151 C.3       1 <0>         0.0385
      5 C4          2.7255   -0.4389   -2.6110 C.3       1 <0>         0.1154
      6 N2          2.4691   -1.8572   -2.9041 N.am      1 <0>        -0.6118
      7 C5          1.0752   -2.3263   -2.9065 C.3       1 <0>         0.0872
      8 C6          0.4102   -1.8831   -1.5989 C.3       1 <0>         0.0376
      9 C7          3.4846   -2.7043   -3.1642 C.2       1 <0>         0.5255
     10 O1          4.6183   -2.2829   -3.2528 O.2       1 <0>        -0.5372
     11 C8          3.2112   -4.1753   -3.3448 C.3       1 <0>        -0.0677
     12 C9          2.5581   -4.7320   -2.0781 C.3       1 <0>        -0.1128
     13 C10         2.2806   -6.2254   -2.2614 C.3       1 <0>        -0.0840
     14 C11         3.5969   -6.9605   -2.5219 C.3       1 <0>        -0.1102
     15 C12         4.2500   -6.4038   -3.7886 C.3       1 <0>        -0.0869
     16 C13         4.5275   -4.9104   -3.6052 C.3       1 <0>        -0.0863
     17 C14         3.3092   -6.6054   -4.9782 C.3       1 <0>        -0.1103
     18 C15         1.9929   -5.8703   -4.7178 C.3       1 <0>        -0.0839
     19 C16         1.3399   -6.4270   -3.4511 C.3       1 <0>        -0.1106
     20 C17         2.2705   -4.3769   -4.5344 C.3       1 <0>        -0.1169
     21 H1          0.8265    1.9568   -0.2284 H         1 <0>         0.0550
     22 H2         -0.6558    1.9463   -1.2139 H         1 <0>         0.0645
     23 H3         -0.7681    1.9542    0.5625 H         1 <0>         0.0607
     24 H4          0.2665   -0.2981    0.6379 H         1 <0>         0.0334
     25 H5         -1.2157   -0.3086   -0.3476 H         1 <0>         0.0765
     26 H6          2.0831    1.0024   -1.1409 H         1 <0>         0.0916
     27 H7          2.4401   -0.6119   -0.4803 H         1 <0>         0.0379
     28 H8          2.3529    0.1773   -3.4292 H         1 <0>         0.0750
     29 H9          3.7964   -0.2785   -2.4864 H         1 <0>         0.0948
     30 H10         0.5439   -1.8916   -3.7531 H         1 <0>         0.0780
     31 H11         1.0550   -3.4138   -2.9773 H         1 <0>         0.1165
     32 H12         0.8768   -2.3998   -0.7602 H         1 <0>         0.0398
     33 H13        -0.6520   -2.1257   -1.6307 H         1 <0>         0.0886
     34 H14         3.2283   -4.5883   -1.2306 H         1 <0>         0.0665
     35 H15         1.6204   -4.2082   -1.8926 H         1 <0>         0.0770
     36 H16         1.8153   -6.6219   -1.3590 H         1 <0>         0.0745
     37 H17         4.2671   -6.8169   -1.6744 H         1 <0>         0.0626
     38 H18         3.3992   -8.0244   -2.6525 H         1 <0>         0.0649
     39 H19         5.1877   -6.9276   -3.9741 H         1 <0>         0.0744
     40 H20         4.9928   -4.5139   -4.5076 H         1 <0>         0.0695
     41 H21         5.1977   -4.7668   -2.7577 H         1 <0>         0.0681
     42 H22         3.7745   -6.2089   -5.8806 H         1 <0>         0.0634
     43 H23         3.1115   -7.6694   -5.1088 H         1 <0>         0.0648
     44 H24         1.3227   -6.0139   -5.5653 H         1 <0>         0.0756
     45 H25         1.1421   -7.4909   -3.5817 H         1 <0>         0.0669
     46 H26         0.4021   -5.9032   -3.2656 H         1 <0>         0.0628
     47 H27         1.3327   -3.8532   -4.3489 H         1 <0>         0.0797
     48 H28         2.7357   -3.9803   -5.4368 H         1 <0>         0.0689
@<TRIPOS>BOND
     1    1    2 1
     2    1   21 1
     3    1   22 1
     4    1   23 1
     5    2    3 1
     6    2   24 1
     7    2   25 1
     8    3    8 1
     9    3    4 1
    10    4    5 1
    11    4   26 1
    12    4   27 1
    13    5    6 1
    14    5   28 1
    15    5   29 1
    16    6    7 1
    17    6    9 am
    18    7    8 1
    19    7   30 1
    20    7   31 1
    21    8   32 1
    22    8   33 1
    23    9   10 2
    24    9   11 1
    25   11   16 1
    26   11   20 1
    27   11   12 1
    28   12   13 1
    29   12   34 1
    30   12   35 1
    31   13   19 1
    32   13   14 1
    33   13   36 1
    34   14   15 1
    35   14   37 1
    36   14   38 1
    37   15   16 1
    38   15   17 1
    39   15   39 1
    40   16   40 1
    41   16   41 1
    42   17   18 1
    43   17   42 1
    44   17   43 1
    45   18   19 1
    46   18   20 1
    47   18   44 1
    48   19   45 1
    49   19   46 1
    50   20   47 1
    51   20   48 1
@<TRIPOS>MOLECULE
CHEMBL256281
   47    50     0     0     0
SMALL
USER_CHARGES

@<TRIPOS>ATOM
      1 C1          0.0663    1.3064   -0.0968 C.ar      1 <0>        -0.0934
      2 C2          1.3153    1.9087   -0.2375 C.ar      1 <0>        -0.1213
      3 C3          2.4545    1.1644   -0.2529 C.ar      1 <0>        -0.0903
      4 C4          2.3739   -0.2328   -0.1245 C.ar      1 <0>        -0.0781
      5 C5          3.5282   -1.0345   -0.1353 C.ar      1 <0>         0.0184
      6 C6          3.4116   -2.3845   -0.0082 C.ar      1 <0>        -0.6726
      7 C7          2.1626   -2.9868    0.1329 C.ar      1 <0>        -0.0444
      8 C8          1.0234   -2.2424    0.1477 C.ar      1 <0>        -0.1155
      9 C9          1.1040   -0.8452    0.0190 C.ar      1 <0>        -0.0118
     10 C10        -0.0503   -0.0436    0.0298 C.ar      1 <0>        -0.1192
     11 S1          4.8612   -3.3859   -0.0229 S.o2      1 <0>         2.6882
     12 O1          4.4541   -4.6838   -0.4341 O.2       1 <0>        -0.9501
     13 O2          5.8590   -2.6461   -0.7131 O.2       1 <0>        -0.9527
     14 N1          5.3755   -3.5258    1.5450 N.pl3     1 <0>        -0.9917
     15 C11         6.3166   -2.5506    2.1134 C.3       1 <0>         0.1043
     16 C12         5.6987   -1.9572    3.3856 C.3       1 <0>         0.1330
     17 N2          5.2218   -3.0586    4.2337 N.pl3     1 <0>        -0.6655
     18 C13         4.2807   -4.0339    3.6654 C.3       1 <0>         0.1328
     19 C14         4.8943   -4.6240    2.3949 C.3       1 <0>         0.1048
     20 C15         5.6535   -3.1760    5.5498 C.ar      1 <0>         0.4318
     21 C16         4.9393   -2.5522    6.5680 C.ar      1 <0>        -0.2404
     22 C17         5.3801   -2.6773    7.8728 C.ar      1 <0>        -0.0223
     23 C18         6.5247   -3.4250    8.1170 C.ar      1 <0>        -0.1784
     24 C19         7.1841   -4.0169    7.0588 C.ar      1 <0>         0.1438
     25 N3          6.7375   -3.8850    5.8240 N.ar      1 <0>        -0.4889
     26 C20         3.7026   -1.7506    6.2530 C.3       1 <0>         0.5222
     27 F1          3.1713   -1.2285    7.4372 F         1 <0>        -0.1792
     28 F2          4.0342   -0.7019    5.3885 F         1 <0>        -0.1722
     29 F3          2.7543   -2.5773    5.6411 F         1 <0>        -0.1719
     30 H1         -0.8220    1.9206   -0.0835 H         1 <0>         0.1285
     31 H2          1.3800    2.9823   -0.3363 H         1 <0>         0.1289
     32 H3          3.4154    1.6448   -0.3634 H         1 <0>         0.1335
     33 H4          4.5026   -0.5817   -0.2443 H         1 <0>         0.1443
     34 H5          2.0979   -4.0603    0.2316 H         1 <0>         0.1383
     35 H6          0.0624   -2.7229    0.2574 H         1 <0>         0.1361
     36 H7         -1.0247   -0.4965    0.1385 H         1 <0>         0.1325
     37 H8          7.2546   -3.0481    2.3599 H         1 <0>         0.0845
     38 H9          6.5003   -1.7555    1.3908 H         1 <0>         0.0983
     39 H10         6.4515   -1.3809    3.9234 H         1 <0>         0.0833
     40 H11         4.8617   -1.3119    3.1191 H         1 <0>         0.0682
     41 H12         4.0970   -4.8290    4.3880 H         1 <0>         0.0836
     42 H13         3.3428   -3.5364    3.4189 H         1 <0>         0.0687
     43 H14         4.1388   -5.1979    1.8582 H         1 <0>         0.0995
     44 H15         5.7286   -5.2726    2.6620 H         1 <0>         0.0837
     45 H16         4.8463   -2.2039    8.6837 H         1 <0>         0.1509
     46 H17         6.8953   -3.5417    9.1247 H         1 <0>         0.1499
     47 H18         8.0748   -4.5989    7.2442 H         1 <0>         0.1678
@<TRIPOS>BOND
     1    1   10 ar
     2    1    2 ar
     3    1   30 1
     4    2    3 ar
     5    2   31 1
     6    3    4 ar
     7    3   32 1
     8    4    9 ar
     9    4    5 ar
    10    5    6 ar
    11    5   33 1
    12    6    7 ar
    13    6   11 1
    14    7    8 ar
    15    7   34 1
    16    8    9 ar
    17    8   35 1
    18    9   10 ar
    19   10   36 1
    20   11   12 2
    21   11   13 2
    22   11   14 1
    23   14   19 1
    24   14   15 1
    25   15   16 1
    26   15   37 1
    27   15   38 1
    28   16   17 1
    29   16   39 1
    30   16   40 1
    31   17   18 1
    32   17   20 1
    33   18   19 1
    34   18   41 1
    35   18   42 1
    36   19   43 1
    37   19   44 1
    38   20   25 ar
    39   20   21 ar
    40   21   22 ar
    41   21   26 1
    42   22   23 ar
    43   22   45 1
    44   23   24 ar
    45   23   46 1
    46   24   25 ar
    47   24   47 1
    48   26   27 1
    49   26   28 1
    50   26   29 1
@<TRIPOS>MOLECULE
CHEMBL240075
   36    38     0     0     0
SMALL
USER_CHARGES

@<TRIPOS>ATOM
      1 C1         -0.0184    1.5028    0.0103 C.3       1 <0>        -0.1311
      2 C2          0.0021   -0.0041    0.0020 C.2       1 <0>         0.0185
      3 C3          0.0053   -0.7012   -1.2175 C.ar      1 <0>        -0.1192
      4 C4         -0.0091   -0.1687   -2.5335 C.ar      1 <0>        -0.0514
      5 C5         -0.0044   -0.9896   -3.6146 C.ar      1 <0>        -0.1291
      6 C6          0.0150   -2.3731   -3.4796 C.ar      1 <0>        -0.0676
      7 C7          0.0299   -2.9332   -2.2187 C.ar      1 <0>        -0.0885
      8 C8          0.0249   -2.1129   -1.1104 C.ar      1 <0>        -0.0887
      9 S1          0.0378   -2.3955    0.6420 S.3       1 <0>         0.0796
     10 C9          0.0231   -0.6937    1.1786 C.2       1 <0>        -0.2523
     11 C10         0.0298   -0.1840    2.5020 C.2       1 <0>         0.4680
     12 O1          0.0159    1.0150    2.6906 O.2       1 <0>        -0.4340
     13 C11         0.0542   -1.1310    3.6740 C.3       1 <0>        -0.6808
     14 S2          0.0574   -0.1807    5.2192 S.o2      1 <0>         2.5238
     15 O2          1.2843    0.5224    5.3589 O.2       1 <0>        -0.9171
     16 O3         -1.1846    0.4898    5.3840 O.2       1 <0>        -0.9172
     17 C12         0.0864   -1.3938    6.4968 C.ar      1 <0>        -0.6656
     18 C13        -1.0992   -1.8896    7.0062 C.ar      1 <0>        -0.0241
     19 C14        -1.0765   -2.8413    8.0085 C.ar      1 <0>        -0.1386
     20 C15         0.1318   -3.2975    8.5011 C.ar      1 <0>        -0.0618
     21 C16         1.3174   -2.8024    7.9911 C.ar      1 <0>        -0.1386
     22 C17         1.2947   -1.8538    6.9858 C.ar      1 <0>        -0.0241
     23 H1          1.0042    1.8801    0.0026 H         1 <0>         0.0887
     24 H2         -0.5455    1.8639   -0.8728 H         1 <0>         0.0744
     25 H3         -0.5286    1.8543    0.9071 H         1 <0>         0.0986
     26 H4         -0.0243    0.9017   -2.6762 H         1 <0>         0.1325
     27 H5         -0.0163   -0.5572   -4.6042 H         1 <0>         0.1339
     28 H6          0.0180   -3.0049   -4.3555 H         1 <0>         0.1409
     29 H7          0.0450   -4.0066   -2.1006 H         1 <0>         0.1377
     30 H8         -0.8278   -1.7707    3.6427 H         1 <0>         0.1704
     31 H9          0.9520   -1.7472    3.6246 H         1 <0>         0.1706
     32 H10        -2.0433   -1.5331    6.6213 H         1 <0>         0.1436
     33 H11        -2.0028   -3.2281    8.4069 H         1 <0>         0.1358
     34 H12         0.1496   -4.0405    9.2847 H         1 <0>         0.1335
     35 H13         2.2614   -3.1586    8.3762 H         1 <0>         0.1358
     36 H14         2.2210   -1.4697    6.5847 H         1 <0>         0.1436
@<TRIPOS>BOND
     1    1    2 1
     2    1   23 1
     3    1   24 1
     4    1   25 1
     5    2   10 2
     6    2    3 1
     7    3    8 ar
     8    3    4 ar
     9    4    5 ar
    10    4   26 1
    11    5    6 ar
    12    5   27 1
    13    6    7 ar
    14    6   28 1
    15    7    8 ar
    16    7   29 1
    17    8    9 1
    18    9   10 1
    19   10   11 1
    20   11   12 2
    21   11   13 1
    22   13   14 1
    23   13   30 1
    24   13   31 1
    25   14   15 2
    26   14   16 2
    27   14   17 1
    28   17   22 ar
    29   17   18 ar
    30   18   19 ar
    31   18   32 1
    32   19   20 ar
    33   19   33 1
    34   20   21 ar
    35   20   34 1
    36   21   22 ar
    37   21   35 1
    38   22   36 1
@<TRIPOS>MOLECULE
CHEMBL245852
   69    73     0     0     0
SMALL
USER_CHARGES

@<TRIPOS>ATOM
      1 C1          0.4531    1.4737    0.0515 C.3       1 <0>        -0.1379
      2 C2          0.2392   -0.0413    0.0486 C.3       1 <0>         0.0971
      3 C3          1.2624   -0.7026    0.9742 C.3       1 <0>        -0.1958
      4 C4         -1.1529   -0.3530    0.5345 C.2       1 <0>         0.4890
      5 O1         -1.9278   -0.9464   -0.1854 O.2       1 <0>        -0.5101
      6 N1         -1.5367    0.0278    1.7691 N.am      1 <0>        -0.7161
      7 C5         -2.8900   -0.2752    2.2414 C.3       1 <0>         0.1561
      8 C6         -3.8523    0.8150    1.7656 C.3       1 <0>        -0.0916
      9 C7         -3.4076    2.1677    2.3254 C.3       1 <0>        -0.1086
     10 C8         -3.4139    2.1137    3.8545 C.3       1 <0>        -0.0838
     11 C9         -2.4517    1.0235    4.3303 C.3       1 <0>        -0.1101
     12 C10        -2.8963   -0.3291    3.7705 C.3       1 <0>        -0.0919
     13 C11        -4.3097   -0.6455    4.2638 C.3       1 <0>        -0.0830
     14 C12        -5.2719    0.4447    3.7879 C.3       1 <0>        -0.0707
     15 C13        -4.8272    1.7973    4.3478 C.3       1 <0>        -0.1016
     16 C14        -5.2656    0.4986    2.2589 C.3       1 <0>        -0.0998
     17 C15        -6.6640    0.1330    4.2738 C.2       1 <0>         0.5212
     18 O2         -6.8665   -0.8630    4.9355 O.2       1 <0>        -0.5429
     19 N2         -7.6839    0.9611    3.9729 N.am      1 <0>        -0.7195
     20 C16        -9.0372    0.6582    4.4453 C.3       1 <0>         0.1680
     21 C17        -9.9850    1.7319    3.9766 C.ar      1 <0>        -0.1286
     22 C18       -10.2031    2.8492    4.7634 C.ar      1 <0>        -0.1184
     23 C19       -11.0695    3.8357    4.3411 C.ar      1 <0>        -0.0885
     24 C20       -11.7272    3.7052    3.1154 C.ar      1 <0>        -0.1213
     25 C21       -11.5017    2.5746    2.3260 C.ar      1 <0>        -0.0882
     26 C22       -10.6286    1.5986    2.7588 C.ar      1 <0>        -0.1181
     27 C23       -12.6559    4.7560    2.6569 C.2       1 <0>         0.5171
     28 O3        -12.8515    5.7442    3.3503 O.co2     1 <0>        -0.6856
     29 O4        -13.2301    4.6389    1.5836 O.co2     1 <0>        -0.6851
     30 O5          0.4037   -0.5431   -1.2792 O.3       1 <0>        -0.2826
     31 C24         0.2659   -1.8840   -1.4536 C.ar      1 <0>         0.1457
     32 C25        -0.1468   -2.6830   -0.3973 C.ar      1 <0>        -0.1704
     33 C26        -0.2863   -4.0456   -0.5765 C.ar      1 <0>        -0.0758
     34 C27        -0.0141   -4.6137   -1.8084 C.ar      1 <0>        -0.0702
     35 C28         0.3982   -3.8186   -2.8631 C.ar      1 <0>        -0.0750
     36 C29         0.5324   -2.4547   -2.6896 C.ar      1 <0>        -0.1396
     37 Cl1        -0.1895   -6.3265   -2.0310 Cl        1 <0>        -0.0747
     38 H1          1.4853    1.6954   -0.2197 H         1 <0>         0.0821
     39 H2         -0.2197    1.9369   -0.6702 H         1 <0>         0.0767
     40 H3          0.2461    1.8680    1.0463 H         1 <0>         0.0829
     41 H4          1.0094   -0.4829    2.0114 H         1 <0>         0.0786
     42 H5          1.2501   -1.7812    0.8178 H         1 <0>         0.0848
     43 H6          2.2567   -0.3147    0.7528 H         1 <0>         0.0835
     44 H7         -0.9170    0.5024    2.3449 H         1 <0>         0.3989
     45 H8         -3.2068   -1.2388    1.8426 H         1 <0>         0.0912
     46 H9         -3.8477    0.8534    0.6763 H         1 <0>         0.0804
     47 H10        -2.4007    2.3931    1.9740 H         1 <0>         0.0625
     48 H11        -4.0931    2.9443    1.9864 H         1 <0>         0.0684
     49 H12        -3.0971    3.0774    4.2533 H         1 <0>         0.0775
     50 H13        -1.4448    1.2490    3.9789 H         1 <0>         0.0594
     51 H14        -2.4562    0.9851    5.4197 H         1 <0>         0.0710
     52 H15        -2.2108   -1.1058    4.1095 H         1 <0>         0.0806
     53 H16        -4.6265   -1.6092    3.8649 H         1 <0>         0.0733
     54 H17        -4.3142   -0.6839    5.3531 H         1 <0>         0.0771
     55 H18        -4.8318    1.7589    5.4371 H         1 <0>         0.0702
     56 H19        -5.5128    2.5740    4.0088 H         1 <0>         0.0709
     57 H20        -5.9511    1.2753    1.9198 H         1 <0>         0.0742
     58 H21        -5.5824   -0.4651    1.8600 H         1 <0>         0.0715
     59 H22        -7.5219    1.7577    3.4437 H         1 <0>         0.4019
     60 H23        -9.3540   -0.3055    4.0464 H         1 <0>         0.0719
     61 H24        -9.0417    0.6197    5.5346 H         1 <0>         0.0720
     62 H25        -9.6940    2.9487    5.7107 H         1 <0>         0.1145
     63 H26       -11.2393    4.7068    4.9565 H         1 <0>         0.1276
     64 H27       -12.0067    2.4672    1.3774 H         1 <0>         0.1278
     65 H28       -10.4500    0.7262    2.1477 H         1 <0>         0.1148
     66 H29        -0.3587   -2.2400    0.5646 H         1 <0>         0.1348
     67 H30        -0.6076   -4.6679    0.2456 H         1 <0>         0.1326
     68 H31         0.6105   -4.2639   -3.8238 H         1 <0>         0.1388
     69 H32         0.8496   -1.8337   -3.5144 H         1 <0>         0.1391
@<TRIPOS>BOND
     1    1    2 1
     2    1   38 1
     3    1   39 1
     4    1   40 1
     5    2    3 1
     6    2    4 1
     7    2   30 1
     8    3   41 1
     9    3   42 1
    10    3   43 1
    11    4    5 2
    12    4    6 am
    13    6    7 1
    14    6   44 1
    15    7   12 1
    16    7    8 1
    17    7   45 1
    18    8   16 1
    19    8    9 1
    20    8   46 1
    21    9   10 1
    22    9   47 1
    23    9   48 1
    24   10   15 1
    25   10   11 1
    26   10   49 1
    27   11   12 1
    28   11   50 1
    29   11   51 1
    30   12   13 1
    31   12   52 1
    32   13   14 1
    33   13   53 1
    34   13   54 1
    35   14   15 1
    36   14   16 1
    37   14   17 1
    38   15   55 1
    39   15   56 1
    40   16   57 1
    41   16   58 1
    42   17   18 2
    43   17   19 am
    44   19   20 1
    45   19   59 1
    46   20   21 1
    47   20   60 1
    48   20   61 1
    49   21   26 ar
    50   21   22 ar
    51   22   23 ar
    52   22   62 1
    53   23   24 ar
    54   23   63 1
    55   24   25 ar
    56   24   27 1
    57   25   26 ar
    58   25   64 1
    59   26   65 1
    60   27   28 2
    61   27   29 1
    62   30   31 1
    63   31   36 ar
    64   31   32 ar
    65   32   33 ar
    66   32   66 1
    67   33   34 ar
    68   33   67 1
    69   34   35 ar
    70   34   37 1
    71   35   36 ar
    72   35   68 1
    73   36   69 1
@<TRIPOS>MOLECULE
CHEMBL495841
   39    41     0     0     0
SMALL
USER_CHARGES

@<TRIPOS>ATOM
      1 C1         -0.0164    1.3593    0.0095 C.2       1 <0>         0.0399
      2 C2          1.1868    2.0698    0.0018 C.2       1 <0>        -0.3047
      3 C3          2.3785    1.4054   -0.0136 C.2       1 <0>         0.4577
      4 N1          2.4113    0.0392   -0.0212 N.pl3     1 <0>        -0.6441
      5 C4          1.2386   -0.6816   -0.0139 C.2       1 <0>         0.5408
      6 C5          0.0021   -0.0041    0.0020 C.2       1 <0>        -0.2232
      7 N2          1.2715   -1.9997   -0.0222 N.2       1 <0>        -1.0109
      8 S1          2.7257   -2.7916   -0.0414 S.o2      1 <0>         2.6120
      9 O1          3.3334   -2.4945   -1.2911 O.2       1 <0>        -0.9928
     10 O2          3.3582   -2.5096    1.1994 O.2       1 <0>        -0.9928
     11 C6          2.3782   -4.5190   -0.0484 C.ar      1 <0>        -0.6272
     12 C7          2.2486   -5.2005    1.1484 C.ar      1 <0>        -0.0148
     13 C8          1.9765   -6.5534    1.1492 C.ar      1 <0>        -0.1277
     14 C9          1.8318   -7.2331   -0.0593 C.ar      1 <0>         0.0019
     15 C10         1.9630   -6.5410   -1.2622 C.ar      1 <0>        -0.1277
     16 C11         2.2304   -5.1872   -1.2505 C.ar      1 <0>        -0.0148
     17 C12         1.5398   -8.6869   -0.0651 C.ar      1 <0>        -0.0279
     18 C13         1.4039   -9.3752    1.1406 C.ar      1 <0>        -0.1044
     19 C14         1.1329  -10.7248    1.1367 C.ar      1 <0>        -0.0671
     20 C15         0.9934  -11.4053   -0.0760 C.ar      1 <0>        -0.0207
     21 C16         1.1294  -10.7144   -1.2833 C.ar      1 <0>        -0.0671
     22 C17         1.3956   -9.3638   -1.2763 C.ar      1 <0>        -0.1044
     23 C18         0.7119  -12.8094   -0.0817 C.1       1 <0>         0.2487
     24 N3          0.4886  -13.9232   -0.0862 N.1       1 <0>        -0.4079
     25 N4          3.5572    2.1170   -0.0219 N.pl3     1 <0>        -0.8485
     26 H1         -0.9579    1.8882    0.0258 H         1 <0>         0.1486
     27 H2          1.1734    3.1497    0.0078 H         1 <0>         0.1508
     28 H3         -0.9233   -0.5608    0.0082 H         1 <0>         0.1622
     29 H4          2.3610   -4.6729    2.0841 H         1 <0>         0.1436
     30 H5          1.8762   -7.0846    2.0841 H         1 <0>         0.1395
     31 H6          1.8522   -7.0626   -2.2014 H         1 <0>         0.1395
     32 H7          2.3283   -4.6491   -2.1818 H         1 <0>         0.1436
     33 H8          1.5117   -8.8491    2.0776 H         1 <0>         0.1400
     34 H9          1.0284  -11.2576    2.0703 H         1 <0>         0.1386
     35 H10         1.0222  -11.2391   -2.2211 H         1 <0>         0.1386
     36 H11         1.4967   -8.8288   -2.2091 H         1 <0>         0.1400
     37 H12         3.5384    3.0868   -0.0168 H         1 <0>         0.4276
     38 H13         4.4065    1.6485   -0.0329 H         1 <0>         0.4078
     39 H14         3.2635   -0.4239   -0.0322 H         1 <0>         0.4073
@<TRIPOS>BOND
     1    1    6 2
     2    1    2 1
     3    1   26 1
     4    2    3 2
     5    2   27 1
     6    3    4 1
     7    3   25 1
     8    4    5 1
     9    4   39 1
    10    5    6 1
    11    5    7 2
    12    6   28 1
    13    7    8 1
    14    8    9 2
    15    8   10 2
    16    8   11 1
    17   11   16 ar
    18   11   12 ar
    19   12   13 ar
    20   12   29 1
    21   13   14 ar
    22   13   30 1
    23   14   15 ar
    24   14   17 1
    25   15   16 ar
    26   15   31 1
    27   16   32 1
    28   17   22 ar
    29   17   18 ar
    30   18   19 ar
    31   18   33 1
    32   19   20 ar
    33   19   34 1
    34   20   21 ar
    35   20   23 1
    36   21   22 ar
    37   21   35 1
    38   22   36 1
    39   23   24 3
    40   25   37 1
    41   25   38 1
@<TRIPOS>MOLECULE
CHEMBL261760
   42    44     0     0     0
SMALL
USER_CHARGES

@<TRIPOS>ATOM
      1 C1         -0.8912    2.2328    1.3321 C.3       1 <0>        -0.1475
      2 C2         -0.5623    0.7675    1.0396 C.3       1 <0>        -0.0941
      3 C3         -1.8531    0.0084    0.7238 C.3       1 <0>        -0.1286
      4 C4         -1.5163   -1.4500    0.3977 C.3       1 <0>         0.1086
      5 N1         -0.7400   -2.0160    1.5092 N.am      1 <0>        -0.5896
      6 C5          0.4719   -1.3144    1.9539 C.3       1 <0>         0.0813
      7 C6          0.1129    0.1426    2.2626 C.3       1 <0>        -0.1315
      8 C7         -1.1323   -3.1570    2.1099 C.2       1 <0>         0.5721
      9 O1         -2.2283   -3.6239    1.8705 O.2       1 <0>        -0.5304
     10 C8         -0.2272   -3.8420    3.0620 C.ar      1 <0>         0.0794
     11 C9         -0.6959   -4.9236    3.8015 C.ar      1 <0>        -0.0900
     12 C10         0.1602   -5.5589    4.6906 C.ar      1 <0>        -0.0741
     13 C11         1.4559   -5.0911    4.8103 C.ar      1 <0>        -0.0970
     14 C12         1.8622   -4.0019    4.0393 C.ar      1 <0>         0.0622
     15 N2          1.0253   -3.4211    3.1976 N.ar      1 <0>        -0.4217
     16 S1          3.5111   -3.3983    4.1844 S.3       1 <0>         0.0786
     17 C13         4.1298   -3.4474    2.5353 C.ar      1 <0>        -0.0999
     18 C14         3.3705   -4.0218    1.5236 C.ar      1 <0>        -0.0982
     19 C15         3.8582   -4.0587    0.2322 C.ar      1 <0>        -0.0988
     20 C16         5.1015   -3.5252   -0.0551 C.ar      1 <0>        -0.1049
     21 C17         5.8607   -2.9524    0.9488 C.ar      1 <0>        -0.0945
     22 C18         5.3765   -2.9063    2.2423 C.ar      1 <0>        -0.0175
     23 Cl1         6.3266   -2.1803    3.5009 Cl        1 <0>        -0.0508
     24 H1          0.0282    2.7739    1.5558 H         1 <0>         0.0559
     25 H2         -1.3720    2.6781    0.4611 H         1 <0>         0.0555
     26 H3         -1.5640    2.2904    2.1877 H         1 <0>         0.0540
     27 H4          0.1110    0.7102    0.1843 H         1 <0>         0.0714
     28 H5         -2.5168    0.0441    1.5877 H         1 <0>         0.0673
     29 H6         -2.3454    0.4685   -0.1330 H         1 <0>         0.0765
     30 H7         -2.4378   -2.0178    0.2691 H         1 <0>         0.0934
     31 H8         -0.9274   -1.4929   -0.5185 H         1 <0>         0.0701
     32 H9          0.8623   -1.7927    2.8522 H         1 <0>         0.1386
     33 H10         1.2230   -1.3462    1.1646 H         1 <0>         0.0649
     34 H11         1.0199    0.6981    2.5010 H         1 <0>         0.0759
     35 H12        -0.5693    0.1770    3.1120 H         1 <0>         0.0634
     36 H13        -1.7140   -5.2647    3.6852 H         1 <0>         0.1557
     37 H14        -0.1787   -6.4003    5.2767 H         1 <0>         0.1544
     38 H15         2.1458   -5.5637    5.4936 H         1 <0>         0.1538
     39 H16         2.3998   -4.4394    1.7469 H         1 <0>         0.1281
     40 H17         3.2682   -4.5052   -0.5545 H         1 <0>         0.1311
     41 H18         5.4805   -3.5562   -1.0660 H         1 <0>         0.1363
     42 H19         6.8311   -2.5367    0.7209 H         1 <0>         0.1404
@<TRIPOS>BOND
     1    1    2 1
     2    1   24 1
     3    1   25 1
     4    1   26 1
     5    2    7 1
     6    2    3 1
     7    2   27 1
     8    3    4 1
     9    3   28 1
    10    3   29 1
    11    4    5 1
    12    4   30 1
    13    4   31 1
    14    5    6 1
    15    5    8 am
    16    6    7 1
    17    6   32 1
    18    6   33 1
    19    7   34 1
    20    7   35 1
    21    8    9 2
    22    8   10 1
    23   10   15 ar
    24   10   11 ar
    25   11   12 ar
    26   11   36 1
    27   12   13 ar
    28   12   37 1
    29   13   14 ar
    30   13   38 1
    31   14   15 ar
    32   14   16 1
    33   16   17 1
    34   17   22 ar
    35   17   18 ar
    36   18   19 ar
    37   18   39 1
    38   19   20 ar
    39   19   40 1
    40   20   21 ar
    41   20   41 1
    42   21   22 ar
    43   21   42 1
    44   22   23 1
@<TRIPOS>MOLECULE
CHEMBL605766
   50    53     0     0     0
SMALL
USER_CHARGES

@<TRIPOS>ATOM
      1 C1          1.1631    1.0498   -0.3852 C.3       1 <0>         0.0825
      2 N1          0.3990   -0.1752   -0.1363 N.pl3     1 <0>        -0.9093
      3 C2         -0.2426   -0.8593   -1.1840 C.2       1 <0>         0.0846
      4 C3         -0.4270   -2.2019   -1.1681 C.2       1 <0>         0.0630
      5 C4          0.0157   -3.0833   -0.0818 C.ar      1 <0>         0.0080
      6 C5          0.0928   -4.4665   -0.2805 C.ar      1 <0>        -0.1088
      7 C6          0.5114   -5.2848    0.7467 C.ar      1 <0>        -0.0625
      8 C7          0.8577   -4.7494    1.9754 C.ar      1 <0>        -0.1202
      9 C8          0.7844   -3.3811    2.1839 C.ar      1 <0>        -0.0118
     10 C9          0.3678   -2.5573    1.1676 C.ar      1 <0>        -0.6486
     11 S1          0.2643   -0.8126    1.3979 S.o2      1 <0>         2.6776
     12 O1          1.4254   -0.4179    2.1158 O.2       1 <0>        -0.9317
     13 O2         -1.0536   -0.5335    1.8501 O.2       1 <0>        -0.9264
     14 O3         -1.0613   -2.7664   -2.2228 O.3       1 <0>        -0.2801
     15 C10        -2.3407   -3.3517   -1.9730 C.3       1 <0>         0.0005
     16 C11        -2.9421   -3.8187   -3.2735 C.2       1 <0>         0.3984
     17 O4         -2.2984   -3.7489   -4.2987 O.2       1 <0>        -0.4144
     18 C12        -4.3105   -4.3596   -3.2992 C.ar      1 <0>        -0.1670
     19 C13        -5.0966   -4.3382   -2.1427 C.ar      1 <0>        -0.0773
     20 C14        -6.3780   -4.8464   -2.1750 C.ar      1 <0>        -0.1293
     21 C15        -6.8867   -5.3767   -3.3478 C.ar      1 <0>        -0.0840
     22 C16        -6.1149   -5.4018   -4.4964 C.ar      1 <0>        -0.1300
     23 C17        -4.8337   -4.8922   -4.4818 C.ar      1 <0>        -0.0565
     24 C18        -0.7123   -0.1194   -2.2952 C.2       1 <0>         0.4412
     25 O5         -1.3926    0.8764   -2.1206 O.2       1 <0>        -0.4243
     26 C19        -0.3775   -0.5547   -3.6685 C.ar      1 <0>        -0.1610
     27 C20         0.5007   -1.6208   -3.8715 C.ar      1 <0>        -0.0367
     28 C21         0.8088   -2.0217   -5.1549 C.ar      1 <0>        -0.1270
     29 C22         0.2496   -1.3698   -6.2398 C.ar      1 <0>        -0.0766
     30 C23        -0.6216   -0.3124   -6.0456 C.ar      1 <0>        -0.1352
     31 C24        -0.9426    0.0950   -4.7673 C.ar      1 <0>        -0.0568
     32 H1          2.2160    0.8007   -0.5174 H         1 <0>         0.0805
     33 H2          0.7885    1.5348   -1.2866 H         1 <0>         0.0887
     34 H3          1.0533    1.7251    0.4633 H         1 <0>         0.0880
     35 H4         -0.1754   -4.8918   -1.2363 H         1 <0>         0.1423
     36 H5          0.5701   -6.3520    0.5916 H         1 <0>         0.1400
     37 H6          1.1853   -5.3993    2.7733 H         1 <0>         0.1421
     38 H7          1.0546   -2.9642    3.1429 H         1 <0>         0.1440
     39 H8         -2.2264   -4.2012   -1.2997 H         1 <0>         0.0995
     40 H9         -2.9961   -2.6108   -1.5150 H         1 <0>         0.0960
     41 H10        -4.7009   -3.9251   -1.2266 H         1 <0>         0.1304
     42 H11        -6.9861   -4.8310   -1.2826 H         1 <0>         0.1321
     43 H12        -7.8911   -5.7732   -3.3668 H         1 <0>         0.1301
     44 H13        -6.5188   -5.8176   -5.4077 H         1 <0>         0.1321
     45 H14        -4.2342   -4.9085   -5.3800 H         1 <0>         0.1357
     46 H15         0.9381   -2.1302   -3.0256 H         1 <0>         0.1281
     47 H16         1.4883   -2.8461   -5.3134 H         1 <0>         0.1263
     48 H17         0.4944   -1.6874   -7.2426 H         1 <0>         0.1255
     49 H18        -1.0547    0.1923   -6.8966 H         1 <0>         0.1277
     50 H19        -1.6264    0.9173   -4.6170 H         1 <0>         0.1307
@<TRIPOS>BOND
     1    1    2 1
     2    1   32 1
     3    1   33 1
     4    1   34 1
     5    2   11 1
     6    2    3 1
     7    3    4 2
     8    3   24 1
     9    4    5 1
    10    4   14 1
    11    5   10 ar
    12    5    6 ar
    13    6    7 ar
    14    6   35 1
    15    7    8 ar
    16    7   36 1
    17    8    9 ar
    18    8   37 1
    19    9   10 ar
    20    9   38 1
    21   10   11 1
    22   11   12 2
    23   11   13 2
    24   14   15 1
    25   15   16 1
    26   15   39 1
    27   15   40 1
    28   16   17 2
    29   16   18 1
    30   18   23 ar
    31   18   19 ar
    32   19   20 ar
    33   19   41 1
    34   20   21 ar
    35   20   42 1
    36   21   22 ar
    37   21   43 1
    38   22   23 ar
    39   22   44 1
    40   23   45 1
    41   24   25 2
    42   24   26 1
    43   26   31 ar
    44   26   27 ar
    45   27   28 ar
    46   27   46 1
    47   28   29 ar
    48   28   47 1
    49   29   30 ar
    50   29   48 1
    51   30   31 ar
    52   30   49 1
    53   31   50 1
@<TRIPOS>MOLECULE
CHEMBL238851
   27    28     0     0     0
SMALL
USER_CHARGES

@<TRIPOS>ATOM
      1 C1         -0.0167    1.3781    0.0096 C.ar      1 <0>        -0.0622
      2 C2          1.1709    2.0855    0.0021 C.ar      1 <0>        -0.1388
      3 C3          2.3773    1.4107   -0.0130 C.ar      1 <0>        -0.0247
      4 C4          2.3960    0.0285   -0.0201 C.ar      1 <0>        -0.6657
      5 C5          1.2084   -0.6789   -0.0117 C.ar      1 <0>        -0.0247
      6 C6          0.0021   -0.0041    0.0020 C.ar      1 <0>        -0.1387
      7 S1          3.9337   -0.8316   -0.0405 S.o2      1 <0>         2.5212
      8 O1          3.6411   -2.0831   -0.6466 O.2       1 <0>        -0.9190
      9 O2          4.8465    0.0719   -0.6485 O.2       1 <0>        -0.9190
     10 C7          4.3589   -1.0679    1.7070 C.3       1 <0>        -0.6775
     11 C8          5.6711   -1.8018    1.8100 C.2       1 <0>         0.4418
     12 O3          6.2617   -2.1331    0.8029 O.2       1 <0>        -0.4447
     13 C9          6.2332   -2.1151    3.1245 C.2       1 <0>        -0.2201
     14 C10         7.4911   -2.8122    3.2645 C.2       1 <0>        -0.1060
     15 C11         7.8977   -3.0387    4.5282 C.2       1 <0>        -0.2111
     16 S2          6.5982   -2.3196    5.5085 S.3       1 <0>         0.2098
     17 C12         5.5901   -1.7538    4.2925 C.2       1 <0>        -0.1926
     18 H1         -0.9591    1.9053    0.0259 H         1 <0>         0.1335
     19 H2          1.1563    3.1654    0.0076 H         1 <0>         0.1357
     20 H3          3.3051    1.9634   -0.0196 H         1 <0>         0.1434
     21 H4          1.2231   -1.7588   -0.0176 H         1 <0>         0.1434
     22 H5         -0.9258   -0.5567    0.0082 H         1 <0>         0.1357
     23 H6          4.4466   -0.0968    2.1942 H         1 <0>         0.1684
     24 H7          3.5776   -1.6502    2.1955 H         1 <0>         0.1684
     25 H8          8.0686   -3.1317    2.4096 H         1 <0>         0.1541
     26 H9          8.7948   -3.5367    4.8651 H         1 <0>         0.1937
     27 H10         4.6522   -1.2290    4.3987 H         1 <0>         0.1956
@<TRIPOS>BOND
     1    1    6 ar
     2    1    2 ar
     3    1   18 1
     4    2    3 ar
     5    2   19 1
     6    3    4 ar
     7    3   20 1
     8    4    5 ar
     9    4    7 1
    10    5    6 ar
    11    5   21 1
    12    6   22 1
    13    7    8 2
    14    7    9 2
    15    7   10 1
    16   10   11 1
    17   10   23 1
    18   10   24 1
    19   11   12 2
    20   11   13 1
    21   13   17 2
    22   13   14 1
    23   14   15 2
    24   14   25 1
    25   15   16 1
    26   15   26 1
    27   16   17 1
    28   17   27 1
@<TRIPOS>MOLECULE
CHEMBL1082165
   59    62     0     0     0
SMALL
USER_CHARGES

@<TRIPOS>ATOM
      1 C1         -0.0187    1.5258    0.0104 C.3       1 <0>        -0.1395
      2 C2          0.0021   -0.0041    0.0020 C.3       1 <0>        -0.0414
      3 C3          0.7421   -0.5109    1.2415 C.3       1 <0>        -0.1440
      4 C4         -1.4333   -0.5336    0.0129 C.3       1 <0>        -0.1498
      5 C5          0.7074   -0.4901   -1.2379 C.ar      1 <0>         0.0010
      6 C6          0.0361   -1.2843   -2.1485 C.ar      1 <0>        -0.1372
      7 C7          0.6831   -1.7301   -3.2859 C.ar      1 <0>        -0.0206
      8 C8          2.0014   -1.3813   -3.5127 C.ar      1 <0>        -0.6913
      9 C9          2.6724   -0.5863   -2.6025 C.ar      1 <0>        -0.0214
     10 C10         2.0241   -0.1370   -1.4673 C.ar      1 <0>        -0.1316
     11 S1          2.8264   -1.9505   -4.9618 S.o2      1 <0>         2.6857
     12 O1          4.2169   -1.9365   -4.6694 O.2       1 <0>        -0.9359
     13 O2          2.1477   -3.1268   -5.3801 O.2       1 <0>        -0.9359
     14 N1          2.5798   -0.8164   -6.1431 N.pl3     1 <0>        -1.0081
     15 C11         1.4132   -0.9035   -7.0358 C.3       1 <0>         0.1010
     16 C12         0.7567    0.4869   -7.0992 C.3       1 <0>         0.0183
     17 H1         -0.1401    0.4894   -7.7188 H         1 <0>         0.1623
     18 C13         0.4668    0.9393   -5.6502 C.3       1 <0>        -0.1375
     19 C14         1.7473    1.6710   -5.1982 C.3       1 <0>        -0.1380
     20 C15         2.6988    1.5965   -6.4138 C.3       1 <0>         0.0249
     21 H2          3.3300    2.4812   -6.4978 H         1 <0>         0.1622
     22 C16         3.5193    0.3026   -6.3176 C.3       1 <0>         0.0989
     23 N2          1.7871    1.4369   -7.5970 N.4       1 <0>        -0.3931
     24 C17         1.1739    2.7234   -7.9530 C.3       1 <0>         0.0245
     25 C18         0.1696    2.5285   -9.1076 C.3       1 <0>        -0.1412
     26 C19         0.3360    3.8011   -9.9747 C.3       1 <0>        -0.1239
     27 C20         1.8622    4.0585   -9.9145 C.3       1 <0>        -0.1298
     28 C21         2.2501    3.6962   -8.4661 C.3       1 <0>        -0.1421
     29 H3          1.0039    1.9031    0.0027 H         1 <0>         0.0592
     30 H4         -0.5459    1.8868   -0.8726 H         1 <0>         0.0560
     31 H5         -0.5289    1.8773    0.9072 H         1 <0>         0.0677
     32 H6          0.2319   -0.1594    2.1383 H         1 <0>         0.0681
     33 H7          0.7568   -1.6008    1.2356 H         1 <0>         0.0603
     34 H8          1.7647   -0.1336    1.2338 H         1 <0>         0.0602
     35 H9         -1.9605   -0.1726   -0.8702 H         1 <0>         0.0598
     36 H10        -1.4185   -1.6235    0.0069 H         1 <0>         0.0624
     37 H11        -1.9435   -0.1821    0.9097 H         1 <0>         0.0671
     38 H12        -0.9938   -1.5568   -1.9713 H         1 <0>         0.1415
     39 H13         0.1588   -2.3512   -3.9970 H         1 <0>         0.1398
     40 H14         3.7024   -0.3141   -2.7796 H         1 <0>         0.1398
     41 H15         2.5473    0.4872   -0.7580 H         1 <0>         0.1360
     42 H16         1.7342   -1.2051   -8.0329 H         1 <0>         0.1043
     43 H17         0.7016   -1.6293   -6.6421 H         1 <0>         0.1342
     44 H18        -0.3855    1.6184   -5.6285 H         1 <0>         0.1019
     45 H19         0.2796    0.0746   -5.0134 H         1 <0>         0.1085
     46 H20         1.5244    2.7097   -4.9546 H         1 <0>         0.1025
     47 H21         2.1894    1.1658   -4.3394 H         1 <0>         0.1092
     48 H22         4.1828    0.3644   -5.4550 H         1 <0>         0.1337
     49 H23         4.1058    0.1531   -7.2242 H         1 <0>         0.1070
     50 H24         0.6690    3.1488   -7.0858 H         1 <0>         0.1385
     51 H25         0.4198    1.6383   -9.6847 H         1 <0>         0.0862
     52 H26        -0.8474    2.4605   -8.7213 H         1 <0>         0.0962
     53 H27         0.0159    3.6147  -10.9999 H         1 <0>         0.0880
     54 H28        -0.2141    4.6373   -9.5431 H         1 <0>         0.0827
     55 H29         2.3857    3.4154  -10.6219 H         1 <0>         0.0772
     56 H30         2.0805    5.1071  -10.1170 H         1 <0>         0.0869
     57 H31         2.2669    4.5941   -7.8483 H         1 <0>         0.1011
     58 H32         3.2274    3.2137   -8.4508 H         1 <0>         0.0832
     59 H33         2.2779    1.0455   -8.3869 H         1 <0>         0.4241
@<TRIPOS>BOND
     1    1    2 1
     2    1   29 1
     3    1   30 1
     4    1   31 1
     5    2    3 1
     6    2    4 1
     7    2    5 1
     8    3   32 1
     9    3   33 1
    10    3   34 1
    11    4   35 1
    12    4   36 1
    13    4   37 1
    14    5   10 ar
    15    5    6 ar
    16    6    7 ar
    17    6   38 1
    18    7    8 ar
    19    7   39 1
    20    8    9 ar
    21    8   11 1
    22    9   10 ar
    23    9   40 1
    24   10   41 1
    25   11   12 2
    26   11   13 2
    27   11   14 1
    28   14   22 1
    29   14   15 1
    30   15   16 1
    31   15   42 1
    32   15   43 1
    33   16   17 1
    34   16   23 1
    35   16   18 1
    36   18   19 1
    37   18   44 1
    38   18   45 1
    39   19   20 1
    40   19   46 1
    41   19   47 1
    42   20   21 1
    43   20   22 1
    44   20   23 1
    45   22   48 1
    46   22   49 1
    47   23   24 1
    48   23   59 1
    49   24   28 1
    50   24   25 1
    51   24   50 1
    52   25   26 1
    53   25   51 1
    54   25   52 1
    55   26   27 1
    56   26   53 1
    57   26   54 1
    58   27   28 1
    59   27   55 1
    60   27   56 1
    61   28   57 1
    62   28   58 1
@<TRIPOS>MOLECULE
CHEMBL1082165__1
   58    61     0     0     0
SMALL
USER_CHARGES

@<TRIPOS>ATOM
      1 C1         -0.0187    1.5258    0.0104 C.3       1 <0>        -0.1392
      2 C2          0.0021   -0.0041    0.0020 C.3       1 <0>        -0.0383
      3 C3          0.7421   -0.5109    1.2415 C.3       1 <0>        -0.1410
      4 C4         -1.4333   -0.5336    0.0129 C.3       1 <0>        -0.1475
      5 C5          0.7074   -0.4901   -1.2379 C.ar      1 <0>        -0.0108
      6 C6          0.0361   -1.2843   -2.1485 C.ar      1 <0>        -0.1410
      7 C7          0.6831   -1.7301   -3.2859 C.ar      1 <0>        -0.0164
      8 C8          2.0014   -1.3813   -3.5127 C.ar      1 <0>        -0.6804
      9 C9          2.6724   -0.5863   -2.6025 C.ar      1 <0>        -0.0169
     10 C10         2.0241   -0.1370   -1.4673 C.ar      1 <0>        -0.1354
     11 S1          2.8264   -1.9505   -4.9618 S.o2      1 <0>         2.6868
     12 O1          4.2169   -1.9365   -4.6694 O.2       1 <0>        -0.9542
     13 O2          2.1477   -3.1268   -5.3801 O.2       1 <0>        -0.9543
     14 N1          2.5798   -0.8164   -6.1431 N.pl3     1 <0>        -0.9915
     15 C11         1.4132   -0.9035   -7.0358 C.3       1 <0>         0.1361
     16 C12         0.7567    0.4869   -7.0992 C.3       1 <0>         0.0466
     17 H1         -0.1401    0.4894   -7.7188 H         1 <0>         0.1058
     18 C13         0.4668    0.9393   -5.6502 C.3       1 <0>        -0.1460
     19 C14         1.7473    1.6710   -5.1982 C.3       1 <0>        -0.1443
     20 C15         2.6988    1.5965   -6.4138 C.3       1 <0>         0.0446
     21 H2          3.3300    2.4812   -6.4978 H         1 <0>         0.1058
     22 C16         3.5193    0.3026   -6.3176 C.3       1 <0>         0.1372
     23 N2          1.7871    1.4369   -7.5970 N.3       1 <0>        -0.4871
     24 C17         1.1814    2.7215   -7.9721 C.3       1 <0>         0.0684
     25 C18         0.1887    2.5181   -9.1352 C.3       1 <0>        -0.1173
     26 C19         0.3680    3.7817  -10.0129 C.3       1 <0>        -0.1241
     27 C20         1.8941    4.0354   -9.9391 C.3       1 <0>        -0.1207
     28 C21         2.2658    3.6863   -8.4832 C.3       1 <0>        -0.1178
     29 H3          1.0039    1.9031    0.0027 H         1 <0>         0.0588
     30 H4         -0.5459    1.8868   -0.8726 H         1 <0>         0.0572
     31 H5         -0.5289    1.8773    0.9072 H         1 <0>         0.0633
     32 H6          0.2319   -0.1594    2.1383 H         1 <0>         0.0636
     33 H7          0.7568   -1.6008    1.2356 H         1 <0>         0.0586
     34 H8          1.7647   -0.1336    1.2338 H         1 <0>         0.0593
     35 H9         -1.9605   -0.1726   -0.8702 H         1 <0>         0.0602
     36 H10        -1.4185   -1.6235    0.0069 H         1 <0>         0.0610
     37 H11        -1.9435   -0.1821    0.9097 H         1 <0>         0.0627
     38 H12        -0.9938   -1.5568   -1.9713 H         1 <0>         0.1362
     39 H13         0.1588   -2.3512   -3.9970 H         1 <0>         0.1374
     40 H14         3.7024   -0.3141   -2.7796 H         1 <0>         0.1374
     41 H15         2.5473    0.4872   -0.7580 H         1 <0>         0.1307
     42 H16         1.7342   -1.2051   -8.0329 H         1 <0>         0.0846
     43 H17         0.7016   -1.6293   -6.6421 H         1 <0>         0.0892
     44 H18        -0.3855    1.6184   -5.6285 H         1 <0>         0.0648
     45 H19         0.2796    0.0746   -5.0134 H         1 <0>         0.0716
     46 H20         1.5244    2.7097   -4.9546 H         1 <0>         0.0655
     47 H21         2.1894    1.1658   -4.3394 H         1 <0>         0.0721
     48 H22         4.1828    0.3644   -5.4550 H         1 <0>         0.0881
     49 H23         4.1058    0.1531   -7.2242 H         1 <0>         0.0868
     50 H24         0.6686    3.1568   -7.1144 H         1 <0>         0.0470
     51 H25         0.4424    1.6216   -9.7009 H         1 <0>         0.0781
     52 H26        -0.8324    2.4567   -8.7590 H         1 <0>         0.0609
     53 H27         0.0581    3.5861  -11.0395 H         1 <0>         0.0674
     54 H28        -0.1842    4.6236   -9.5953 H         1 <0>         0.0645
     55 H29         2.4233    3.3840  -10.6346 H         1 <0>         0.0677
     56 H30         2.1176    5.0813  -10.1495 H         1 <0>         0.0630
     57 H31         2.2786    4.5901   -7.8741 H         1 <0>         0.0608
     58 H32         3.2414    3.2012   -8.4529 H         1 <0>         0.0743
@<TRIPOS>BOND
     1    1    2 1
     2    1   29 1
     3    1   30 1
     4    1   31 1
     5    2    3 1
     6    2    4 1
     7    2    5 1
     8    3   32 1
     9    3   33 1
    10    3   34 1
    11    4   35 1
    12    4   36 1
    13    4   37 1
    14    5   10 ar
    15    5    6 ar
    16    6    7 ar
    17    6   38 1
    18    7    8 ar
    19    7   39 1
    20    8    9 ar
    21    8   11 1
    22    9   10 ar
    23    9   40 1
    24   10   41 1
    25   11   12 2
    26   11   13 2
    27   11   14 1
    28   14   22 1
    29   14   15 1
    30   15   16 1
    31   15   42 1
    32   15   43 1
    33   16   17 1
    34   16   23 1
    35   16   18 1
    36   18   19 1
    37   18   44 1
    38   18   45 1
    39   19   20 1
    40   19   46 1
    41   19   47 1
    42   20   21 1
    43   20   22 1
    44   20   23 1
    45   22   48 1
    46   22   49 1
    47   23   24 1
    48   24   28 1
    49   24   25 1
    50   24   50 1
    51   25   26 1
    52   25   51 1
    53   25   52 1
    54   26   27 1
    55   26   53 1
    56   26   54 1
    57   27   28 1
    58   27   55 1
    59   27   56 1
    60   28   57 1
    61   28   58 1
@<TRIPOS>MOLECULE
CHEMBL401359
   49    52     0     0     0
SMALL
USER_CHARGES

@<TRIPOS>ATOM
      1 C1         -0.0903    1.5013    0.0179 C.3       1 <0>        -0.1220
      2 C2         -0.0510   -0.0052    0.0078 C.ar      1 <0>        -0.0628
      3 C3         -0.9066   -0.7111   -0.8196 C.ar      1 <0>        -0.1230
      4 C4         -0.8754   -2.0900   -0.8340 C.ar      1 <0>        -0.0934
      5 C5          0.0220   -2.7733   -0.0115 C.ar      1 <0>        -0.1330
      6 C6          0.8821   -2.0554    0.8206 C.ar      1 <0>        -0.0616
      7 C7          0.8443   -0.6761    0.8215 C.ar      1 <0>        -0.0903
      8 C8          1.7763    0.1010    1.7151 C.3       1 <0>        -0.1185
      9 C9          0.0606   -4.2513   -0.0214 C.2       1 <0>         0.5659
     10 O1          0.1812   -4.8631    1.0220 O.2       1 <0>        -0.5301
     11 N1         -0.0379   -4.9201   -1.1873 N.am      1 <0>        -0.6095
     12 C10        -0.0498   -4.1972   -2.4664 C.3       1 <0>         0.1046
     13 C11         1.0410   -4.7786   -3.3714 C.3       1 <0>        -0.1518
     14 C12         0.8382   -6.2899   -3.5017 C.3       1 <0>         0.1682
     15 C13         0.9561   -6.9429   -2.1226 C.3       1 <0>        -0.1507
     16 C14        -0.1295   -6.3864   -1.2037 C.3       1 <0>         0.1180
     17 N2          1.8600   -6.8443   -4.3932 N.am      1 <0>        -0.5350
     18 C15         1.6202   -7.5187   -5.5881 C.ar      1 <0>         0.0910
     19 C16         0.4636   -7.8611   -6.2719 C.ar      1 <0>        -0.1060
     20 C17         0.5493   -8.5491   -7.4663 C.ar      1 <0>        -0.1072
     21 C18         1.7850   -8.8987   -7.9834 C.ar      1 <0>        -0.1095
     22 C19         2.9425   -8.5625   -7.3093 C.ar      1 <0>        -0.1041
     23 C20         2.8665   -7.8710   -6.1099 C.ar      1 <0>         0.0877
     24 N3          3.8250   -7.3997   -5.2158 N.am      1 <0>        -0.6451
     25 H1          4.7856   -7.4952   -5.3108 H         1 <0>         0.4346
     26 C21         3.1911   -6.7838   -4.2001 C.2       1 <0>         0.6819
     27 O2          3.7380   -6.2557   -3.2499 O.2       1 <0>        -0.5486
     28 H2          0.6007    1.8878   -0.7312 H         1 <0>         0.0751
     29 H3         -1.1009    1.8399   -0.2109 H         1 <0>         0.0698
     30 H4          0.2006    1.8657    1.0031 H         1 <0>         0.0723
     31 H5         -1.6006   -0.1812   -1.4552 H         1 <0>         0.1299
     32 H6         -1.5439   -2.6398   -1.4799 H         1 <0>         0.1300
     33 H7          1.5787   -2.5781    1.4593 H         1 <0>         0.1309
     34 H8          1.3004    0.2647    2.6819 H         1 <0>         0.0740
     35 H9          2.6991   -0.4620    1.8550 H         1 <0>         0.0691
     36 H10         2.0036    1.0625    1.2546 H         1 <0>         0.0716
     37 H11        -1.0224   -4.3156   -2.9440 H         1 <0>         0.0759
     38 H12         0.1469   -3.1397   -2.2902 H         1 <0>         0.1030
     39 H13         0.9801   -4.3170   -4.3570 H         1 <0>         0.0827
     40 H14         2.0199   -4.5791   -2.9356 H         1 <0>         0.0892
     41 H15        -0.1506   -6.4893   -3.9146 H         1 <0>         0.1013
     42 H16         0.8348   -8.0218   -2.2194 H         1 <0>         0.0825
     43 H17         1.9358   -6.7230   -1.6985 H         1 <0>         0.0885
     44 H18         0.0146   -6.7729   -0.1948 H         1 <0>         0.1019
     45 H19        -1.1087   -6.6873   -1.5761 H         1 <0>         0.0735
     46 H20        -0.5022   -7.5906   -5.8713 H         1 <0>         0.1292
     47 H21        -0.3515   -8.8158   -7.9991 H         1 <0>         0.1342
     48 H22         1.8441   -9.4371   -8.9179 H         1 <0>         0.1343
     49 H23         3.9047   -8.8376   -7.7154 H         1 <0>         0.1316
@<TRIPOS>BOND
     1    1    2 1
     2    1   28 1
     3    1   29 1
     4    1   30 1
     5    2    7 ar
     6    2    3 ar
     7    3    4 ar
     8    3   31 1
     9    4    5 ar
    10    4   32 1
    11    5    6 ar
    12    5    9 1
    13    6    7 ar
    14    6   33 1
    15    7    8 1
    16    8   34 1
    17    8   35 1
    18    8   36 1
    19    9   10 2
    20    9   11 am
    21   11   16 1
    22   11   12 1
    23   12   13 1
    24   12   37 1
    25   12   38 1
    26   13   14 1
    27   13   39 1
    28   13   40 1
    29   14   15 1
    30   14   17 1
    31   14   41 1
    32   15   16 1
    33   15   42 1
    34   15   43 1
    35   16   44 1
    36   16   45 1
    37   17   26 am
    38   17   18 1
    39   18   23 ar
    40   18   19 ar
    41   19   20 ar
    42   19   46 1
    43   20   21 ar
    44   20   47 1
    45   21   22 ar
    46   21   48 1
    47   22   23 ar
    48   22   49 1
    49   23   24 1
    50   24   25 1
    51   24   26 am
    52   26   27 2
@<TRIPOS>MOLECULE
CHEMBL397073
   63    67     0     0     0
SMALL
USER_CHARGES

@<TRIPOS>ATOM
      1 C1          0.4531    1.4737    0.0515 C.3       1 <0>        -0.1378
      2 C2          0.2392   -0.0413    0.0486 C.3       1 <0>         0.0973
      3 C3          1.2624   -0.7026    0.9742 C.3       1 <0>        -0.1965
      4 C4         -1.1529   -0.3530    0.5345 C.2       1 <0>         0.4904
      5 O1         -1.9278   -0.9464   -0.1854 O.2       1 <0>        -0.5099
      6 N1         -1.5367    0.0278    1.7691 N.am      1 <0>        -0.7176
      7 C5         -2.8900   -0.2752    2.2414 C.3       1 <0>         0.1559
      8 C6         -3.8523    0.8150    1.7656 C.3       1 <0>        -0.0923
      9 C7         -3.4076    2.1677    2.3254 C.3       1 <0>        -0.1085
     10 C8         -3.4139    2.1137    3.8545 C.3       1 <0>        -0.0841
     11 C9         -2.4517    1.0235    4.3303 C.3       1 <0>        -0.1116
     12 C10        -2.8963   -0.3291    3.7705 C.3       1 <0>        -0.0929
     13 C11        -4.3097   -0.6455    4.2638 C.3       1 <0>        -0.0844
     14 C12        -5.2719    0.4447    3.7879 C.3       1 <0>        -0.0699
     15 C13        -4.8272    1.7973    4.3478 C.3       1 <0>        -0.1001
     16 C14        -5.2656    0.4986    2.2589 C.3       1 <0>        -0.0983
     17 C15        -6.6640    0.1330    4.2738 C.2       1 <0>         0.5264
     18 O2         -6.8665   -0.8630    4.9355 O.2       1 <0>        -0.5311
     19 N2         -7.6839    0.9611    3.9729 N.am      1 <0>        -0.7281
     20 C16        -9.0372    0.6582    4.4453 C.3       1 <0>         0.2133
     21 C17        -9.9850    1.7319    3.9766 C.2       1 <0>        -0.2296
     22 C18       -10.7178    1.8041    2.8360 C.2       1 <0>         0.0586
     23 N3        -11.4742    2.8720    2.6784 N.2       1 <0>        -0.5176
     24 C19       -11.5144    3.8182    3.5831 C.2       1 <0>         0.0354
     25 S1        -10.4616    3.2585    4.7710 S.3       1 <0>         0.1239
     26 O3          0.4037   -0.5431   -1.2792 O.3       1 <0>        -0.2825
     27 C20         0.2659   -1.8840   -1.4536 C.ar      1 <0>         0.1443
     28 C21        -0.1468   -2.6830   -0.3973 C.ar      1 <0>        -0.1713
     29 C22        -0.2863   -4.0456   -0.5765 C.ar      1 <0>        -0.0762
     30 C23        -0.0141   -4.6137   -1.8084 C.ar      1 <0>        -0.0696
     31 C24         0.3982   -3.8186   -2.8631 C.ar      1 <0>        -0.0743
     32 C25         0.5324   -2.4547   -2.6896 C.ar      1 <0>        -0.1387
     33 Cl1        -0.1895   -6.3265   -2.0310 Cl        1 <0>        -0.0726
     34 H1          1.4853    1.6954   -0.2197 H         1 <0>         0.0833
     35 H2         -0.2197    1.9369   -0.6702 H         1 <0>         0.0759
     36 H3          0.2461    1.8680    1.0463 H         1 <0>         0.0822
     37 H4          1.0094   -0.4829    2.0114 H         1 <0>         0.0782
     38 H5          1.2501   -1.7812    0.8178 H         1 <0>         0.0855
     39 H6          2.2567   -0.3147    0.7528 H         1 <0>         0.0846
     40 H7         -0.9170    0.5024    2.3449 H         1 <0>         0.3996
     41 H8         -3.2068   -1.2388    1.8426 H         1 <0>         0.0917
     42 H9         -3.8477    0.8534    0.6763 H         1 <0>         0.0814
     43 H10        -2.4007    2.3931    1.9740 H         1 <0>         0.0649
     44 H11        -4.0931    2.9443    1.9864 H         1 <0>         0.0661
     45 H12        -3.0971    3.0774    4.2533 H         1 <0>         0.0786
     46 H13        -1.4448    1.2490    3.9789 H         1 <0>         0.0619
     47 H14        -2.4562    0.9851    5.4197 H         1 <0>         0.0723
     48 H15        -2.2108   -1.1058    4.1095 H         1 <0>         0.0835
     49 H16        -4.6265   -1.6092    3.8649 H         1 <0>         0.0750
     50 H17        -4.3142   -0.6839    5.3531 H         1 <0>         0.0786
     51 H18        -4.8318    1.7589    5.4371 H         1 <0>         0.0713
     52 H19        -5.5128    2.5740    4.0088 H         1 <0>         0.0674
     53 H20        -5.9511    1.2753    1.9198 H         1 <0>         0.0707
     54 H21        -5.5824   -0.4651    1.8600 H         1 <0>         0.0727
     55 H22        -7.5219    1.7577    3.4437 H         1 <0>         0.4023
     56 H23        -9.3540   -0.3055    4.0464 H         1 <0>         0.0954
     57 H24        -9.0417    0.6197    5.5346 H         1 <0>         0.0863
     58 H25       -10.6823    1.0224    2.0916 H         1 <0>         0.1745
     59 H26       -12.0877    4.7334    3.5717 H         1 <0>         0.2205
     60 H27        -0.3587   -2.2400    0.5646 H         1 <0>         0.1339
     61 H28        -0.6076   -4.6679    0.2456 H         1 <0>         0.1326
     62 H29         0.6105   -4.2639   -3.8238 H         1 <0>         0.1397
     63 H30         0.8496   -1.8337   -3.5144 H         1 <0>         0.1395
@<TRIPOS>BOND
     1    1    2 1
     2    1   34 1
     3    1   35 1
     4    1   36 1
     5    2    3 1
     6    2    4 1
     7    2   26 1
     8    3   37 1
     9    3   38 1
    10    3   39 1
    11    4    5 2
    12    4    6 am
    13    6    7 1
    14    6   40 1
    15    7   12 1
    16    7    8 1
    17    7   41 1
    18    8   16 1
    19    8    9 1
    20    8   42 1
    21    9   10 1
    22    9   43 1
    23    9   44 1
    24   10   15 1
    25   10   11 1
    26   10   45 1
    27   11   12 1
    28   11   46 1
    29   11   47 1
    30   12   13 1
    31   12   48 1
    32   13   14 1
    33   13   49 1
    34   13   50 1
    35   14   15 1
    36   14   16 1
    37   14   17 1
    38   15   51 1
    39   15   52 1
    40   16   53 1
    41   16   54 1
    42   17   18 2
    43   17   19 am
    44   19   20 1
    45   19   55 1
    46   20   21 1
    47   20   56 1
    48   20   57 1
    49   21   25 1
    50   21   22 2
    51   22   23 1
    52   22   58 1
    53   23   24 2
    54   24   25 1
    55   24   59 1
    56   26   27 1
    57   27   32 ar
    58   27   28 ar
    59   28   29 ar
    60   28   60 1
    61   29   30 ar
    62   29   61 1
    63   30   31 ar
    64   30   33 1
    65   31   32 ar
    66   31   62 1
    67   32   63 1
@<TRIPOS>MOLECULE
CHEMBL454621
   60    63     0     0     0
SMALL
USER_CHARGES

@<TRIPOS>ATOM
      1 C1          4.6175    4.9286    7.0986 C.3       1 <0>        -0.1628
      2 C2          5.6341    3.8608    7.5076 C.3       1 <0>         0.1413
      3 C3          5.1309    2.5026    7.0914 C.ar      1 <0>        -0.1018
      4 C4          4.3282    2.3790    5.9713 C.ar      1 <0>        -0.0772
      5 C5          3.8642    1.1386    5.5849 C.ar      1 <0>        -0.0510
      6 C6          4.2063    0.0068    6.3267 C.ar      1 <0>        -0.1208
      7 C7          5.0165    0.1385    7.4556 C.ar      1 <0>        -0.1696
      8 C8          5.4784    1.3840    7.8279 C.ar      1 <0>        -0.1509
      9 C9          3.7123   -1.3256    5.9187 C.2       1 <0>         0.5735
     10 O1          3.3984   -1.5294    4.7622 O.2       1 <0>        -0.4638
     11 N1          3.6100   -2.3142    6.8290 N.am      1 <0>        -0.6159
     12 C10         2.3898   -3.1218    6.8993 C.3       1 <0>         0.0777
     13 C11         1.4805   -3.1365    5.6689 C.3       1 <0>        -0.1895
     14 C12         1.0521   -2.3797    6.9277 C.3       1 <0>        -0.1934
     15 C13         4.7191   -2.5811    7.7483 C.3       1 <0>         0.1531
     16 C14         4.4510   -1.8901    9.0884 C.3       1 <0>        -0.2087
     17 C15         5.6486   -2.1064   10.0161 C.3       1 <0>        -0.0092
     18 N2          6.8554   -1.5381    9.4036 N.4       1 <0>        -0.3989
     19 C16         7.1593   -2.2445    8.1533 C.3       1 <0>        -0.0083
     20 C17         6.0199   -2.0335    7.1540 C.3       1 <0>        -0.2472
     21 C18         7.9860   -1.6788   10.3310 C.3       1 <0>         0.0395
     22 C19         9.2737   -1.2301    9.6371 C.3       1 <0>        -0.1061
     23 C20        10.3798   -2.2720    9.4585 C.3       1 <0>        -0.1323
     24 C21        10.5435   -1.1510   10.4869 C.3       1 <0>        -0.1154
     25 C22         9.1050   -0.2279    8.5722 C.1       1 <0>         0.1860
     26 N3          8.9748    0.5455    7.7504 N.1       1 <0>        -0.3586
     27 C23         5.8232    3.8915    9.0255 C.3       1 <0>         0.4374
     28 F1          4.5996    3.6350    9.6533 F         1 <0>        -0.1715
     29 F2          6.7528    2.9151    9.3995 F         1 <0>        -0.1849
     30 F3          6.2903    5.1523    9.4119 F         1 <0>        -0.1617
     31 O2          6.8840    4.1227    6.8664 O.3       1 <0>        -0.5142
     32 H1          3.6640    4.7288    7.5877 H         1 <0>         0.0899
     33 H2          4.9814    5.9109    7.3997 H         1 <0>         0.0901
     34 H3          4.4827    4.9067    6.0172 H         1 <0>         0.0948
     35 H4          4.0639    3.2556    5.3984 H         1 <0>         0.1509
     36 H5          3.2374    1.0435    4.7106 H         1 <0>         0.1501
     37 H6          5.2848   -0.7333    8.0338 H         1 <0>         0.1744
     38 H7          6.1090    1.4867    8.6986 H         1 <0>         0.1489
     39 H8          2.4675   -4.0415    7.4791 H         1 <0>         0.1369
     40 H9          1.7902   -2.5453    4.8071 H         1 <0>         0.1257
     41 H10         0.9599   -4.0661    5.4389 H         1 <0>         0.1058
     42 H11         0.2497   -2.8115    7.5259 H         1 <0>         0.1082
     43 H12         1.0799   -1.2906    6.8941 H         1 <0>         0.0925
     44 H13         4.8133   -3.6559    7.9034 H         1 <0>         0.1147
     45 H14         4.3056   -0.8224    8.9247 H         1 <0>         0.1207
     46 H15         3.5563   -2.3143    9.5441 H         1 <0>         0.1322
     47 H16         5.4609   -1.6159   10.9712 H         1 <0>         0.1443
     48 H17         5.7929   -3.1744   10.1793 H         1 <0>         0.1448
     49 H18         8.0870   -1.8559    7.7333 H         1 <0>         0.1347
     50 H19         7.2715   -3.3095    8.3562 H         1 <0>         0.1469
     51 H20         6.2466   -2.5602    6.2270 H         1 <0>         0.1266
     52 H21         5.9070   -0.9687    6.9501 H         1 <0>         0.1541
     53 H22         7.8130   -1.0597   11.2113 H         1 <0>         0.1493
     54 H23         8.0805   -2.7218   10.6332 H         1 <0>         0.1563
     55 H24        10.1902   -3.2770    9.8354 H         1 <0>         0.1301
     56 H25        10.9828   -2.2155    8.5522 H         1 <0>         0.1206
     57 H26        11.2541   -0.3571   10.2572 H         1 <0>         0.1224
     58 H27        10.4615   -1.4186   11.5404 H         1 <0>         0.1312
     59 H28         7.3578    3.3269    6.5883 H         1 <0>         0.3924
     60 H29         6.7033   -0.5601    9.2078 H         1 <0>         0.4159
@<TRIPOS>BOND
     1    1    2 1
     2    1   32 1
     3    1   33 1
     4    1   34 1
     5    2    3 1
     6    2   27 1
     7    2   31 1
     8    3    8 ar
     9    3    4 ar
    10    4    5 ar
    11    4   35 1
    12    5    6 ar
    13    5   36 1
    14    6    7 ar
    15    6    9 1
    16    7    8 ar
    17    7   37 1
    18    8   38 1
    19    9   10 2
    20    9   11 am
    21   11   12 1
    22   11   15 1
    23   12   14 1
    24   12   13 1
    25   12   39 1
    26   13   14 1
    27   13   40 1
    28   13   41 1
    29   14   42 1
    30   14   43 1
    31   15   20 1
    32   15   16 1
    33   15   44 1
    34   16   17 1
    35   16   45 1
    36   16   46 1
    37   17   18 1
    38   17   47 1
    39   17   48 1
    40   18   19 1
    41   18   21 1
    42   18   60 1
    43   19   20 1
    44   19   49 1
    45   19   50 1
    46   20   51 1
    47   20   52 1
    48   21   22 1
    49   21   53 1
    50   21   54 1
    51   22   24 1
    52   22   23 1
    53   22   25 1
    54   23   24 1
    55   23   55 1
    56   23   56 1
    57   24   57 1
    58   24   58 1
    59   25   26 3
    60   27   28 1
    61   27   29 1
    62   27   30 1
    63   31   59 1
@<TRIPOS>MOLECULE
CHEMBL251403
   46    50     0     0     0
SMALL
USER_CHARGES

@<TRIPOS>ATOM
      1 C1         -0.5506   -0.7774    0.7216 C.ar      1 <0>        -0.1094
      2 C2          0.4161    0.1877    0.4970 C.ar      1 <0>        -0.1072
      3 C3          1.7470   -0.1686    0.4014 C.ar      1 <0>        -0.1058
      4 C4          2.1163   -1.4988    0.5311 C.ar      1 <0>         0.0910
      5 C5          1.1413   -2.4722    0.7577 C.ar      1 <0>         0.0877
      6 C6         -0.1924   -2.1048    0.8521 C.ar      1 <0>        -0.1042
      7 N1          1.8045   -3.6941    0.8433 N.am      1 <0>        -0.6450
      8 H1          1.3879   -4.5566    0.9966 H         1 <0>         0.4347
      9 C7          3.1222   -3.4740    0.6765 C.2       1 <0>         0.6821
     10 O1          3.9840   -4.3330    0.6946 O.2       1 <0>        -0.5489
     11 N2          3.3417   -2.1594    0.4860 N.am      1 <0>        -0.5350
     12 C8          4.6470   -1.5308    0.2685 C.3       1 <0>         0.1677
     13 C9          5.2895   -2.1131   -0.9925 C.3       1 <0>        -0.1513
     14 C10         6.6384   -1.4290   -1.2360 C.3       1 <0>         0.1009
     15 N3          7.4601   -1.5591   -0.0250 N.am      1 <0>        -0.6070
     16 C11         6.9019   -1.1129    1.2588 C.3       1 <0>         0.1183
     17 C12         5.5501   -1.8006    1.4743 C.3       1 <0>        -0.1508
     18 C13         8.7021   -2.0784   -0.0904 C.2       1 <0>         0.5694
     19 O2          9.3979   -2.1175    0.9059 O.2       1 <0>        -0.5234
     20 C14         9.2177   -2.5996   -1.3715 C.ar      1 <0>        -0.1003
     21 C15         9.7682   -3.8870   -1.4292 C.ar      1 <0>        -0.0862
     22 C16        10.2466   -4.3777   -2.6077 C.ar      1 <0>        -0.0706
     23 C17        10.1882   -3.5948   -3.7630 C.ar      1 <0>        -0.1117
     24 C18        10.5961   -3.7984   -5.1561 C.2       1 <0>        -0.2139
     25 C19        10.2768   -2.6702   -5.8089 C.2       1 <0>         0.0184
     26 O3          9.7139   -1.7900   -4.9646 O.3       1 <0>        -0.1913
     27 C20         9.6380   -2.3006   -3.7185 C.ar      1 <0>         0.0440
     28 C21         9.1490   -1.8109   -2.5184 C.ar      1 <0>        -0.0766
     29 H2         -1.5889   -0.4905    0.7997 H         1 <0>         0.1343
     30 H3          0.1283    1.2237    0.3956 H         1 <0>         0.1342
     31 H4          2.4983    0.5870    0.2257 H         1 <0>         0.1293
     32 H5         -0.9494   -2.8549    1.0273 H         1 <0>         0.1316
     33 H6          4.5164   -0.4557    0.1460 H         1 <0>         0.1017
     34 H7          5.4433   -3.1842   -0.8611 H         1 <0>         0.0899
     35 H8          4.6349   -1.9412   -1.8469 H         1 <0>         0.0829
     36 H9          7.1448   -1.9075   -2.0743 H         1 <0>         0.1022
     37 H10         6.4783   -0.3738   -1.4573 H         1 <0>         0.0785
     38 H11         7.5821   -1.3829    2.0666 H         1 <0>         0.1028
     39 H12         6.7633   -0.0319    1.2409 H         1 <0>         0.0754
     40 H13         5.0809   -1.4062    2.3757 H         1 <0>         0.0832
     41 H14         5.7014   -2.8746    1.5825 H         1 <0>         0.0892
     42 H15         9.8140   -4.4928   -0.5363 H         1 <0>         0.1382
     43 H16        10.6705   -5.3702   -2.6479 H         1 <0>         0.1369
     44 H17        11.0605   -4.6796   -5.5735 H         1 <0>         0.1621
     45 H18        10.4480   -2.4952   -6.8608 H         1 <0>         0.2122
     46 H19         8.7200   -0.8209   -2.4710 H         1 <0>         0.1398
@<TRIPOS>BOND
     1    1    6 ar
     2    1    2 ar
     3    1   29 1
     4    2    3 ar
     5    2   30 1
     6    3    4 ar
     7    3   31 1
     8    4   11 1
     9    4    5 ar
    10    5    6 ar
    11    5    7 1
    12    6   32 1
    13    7    8 1
    14    7    9 am
    15    9   10 2
    16    9   11 am
    17   11   12 1
    18   12   17 1
    19   12   13 1
    20   12   33 1
    21   13   14 1
    22   13   34 1
    23   13   35 1
    24   14   15 1
    25   14   36 1
    26   14   37 1
    27   15   16 1
    28   15   18 am
    29   16   17 1
    30   16   38 1
    31   16   39 1
    32   17   40 1
    33   17   41 1
    34   18   19 2
    35   18   20 1
    36   20   28 ar
    37   20   21 ar
    38   21   22 ar
    39   21   42 1
    40   22   23 ar
    41   22   43 1
    42   23   27 ar
    43   23   24 1
    44   24   25 2
    45   24   44 1
    46   25   26 1
    47   25   45 1
    48   26   27 1
    49   27   28 ar
    50   28   46 1
@<TRIPOS>MOLECULE
CHEMBL211039
   76    79     0     0     0
SMALL
USER_CHARGES

@<TRIPOS>ATOM
      1 C1          0.1432    1.9885   -0.8078 C.3       1 <0>        -0.1477
      2 C2          0.0392    0.4702   -0.6495 C.3       1 <0>        -0.0883
      3 C3         -1.4336    0.0671   -0.5542 C.3       1 <0>        -0.1061
      4 C4         -2.1546    0.4606   -1.8450 C.3       1 <0>        -0.1824
      5 C5         -3.6053    0.0635   -1.7511 C.2       1 <0>         0.4871
      6 O1         -4.0238   -0.4836   -0.7451 O.co2     1 <0>        -0.6992
      7 O2         -4.3606    0.2893   -2.6812 O.co2     1 <0>        -0.7109
      8 C6          0.7663    0.0409    0.6184 C.3       1 <0>        -0.0689
      9 C7          2.2117    0.5983    0.6572 C.3       1 <0>        -0.1207
     10 C8          3.1363   -0.6218    0.9359 C.3       1 <0>        -0.0984
     11 C9          2.3560   -1.7636    0.2771 C.3       1 <0>        -0.0257
     12 C10         0.9094   -1.4706    0.7352 C.3       1 <0>        -0.0407
     13 C11        -0.0237   -2.3555   -0.0578 C.3       1 <0>        -0.1555
     14 C12         0.3881   -3.7931    0.2376 C.2       1 <0>         0.3872
     15 O3         -0.4581   -4.6571    0.1315 O.2       1 <0>        -0.4345
     16 C13         1.7702   -4.1182    0.6417 C.2       1 <0>        -0.1012
     17 C14         2.7207   -3.1523    0.6838 C.2       1 <0>        -0.1048
     18 C15         4.0984   -3.4431    1.1174 C.2       1 <0>         0.3911
     19 O4          4.9588   -2.5886    1.0857 O.2       1 <0>        -0.4358
     20 C16         4.4287   -4.8370    1.6166 C.3       1 <0>        -0.1620
     21 C17         3.5863   -5.7984    0.7754 C.3       1 <0>        -0.0569
     22 H1          3.7724   -5.5042   -0.2883 H         1 <0>         0.0755
     23 C18         2.1122   -5.5448    1.0242 C.3       1 <0>        -0.0051
     24 C19         1.2544   -6.5256    0.2311 C.3       1 <0>        -0.1118
     25 C20         1.6717   -7.9631    0.5363 C.3       1 <0>        -0.1371
     26 C21         3.1282   -8.1925    0.1539 C.3       1 <0>         0.0995
     27 C22         4.0549   -7.2324    0.9015 C.3       1 <0>        -0.0391
     28 C23         4.2086   -7.6778    2.3544 C.3       1 <0>        -0.1488
     29 C24         5.4483   -7.3517    0.2334 C.3       1 <0>        -0.1498
     30 O5          3.2865   -8.0079   -1.2580 O.3       1 <0>        -0.3403
     31 C25         3.1245   -9.0897   -2.0359 C.2       1 <0>         0.4587
     32 O6          2.8575  -10.1576   -1.5378 O.2       1 <0>        -0.5160
     33 C26         3.2756   -8.9723   -3.5307 C.3       1 <0>        -0.1489
     34 C27         1.7644   -5.6850    2.5090 C.3       1 <0>        -0.1504
     35 C28         0.7605   -1.8198    2.2330 C.3       1 <0>        -0.1537
     36 C29         2.5057   -1.6536   -1.2420 C.3       1 <0>        -0.1421
     37 H2          1.1925    2.2757   -0.8757 H         1 <0>         0.0488
     38 H3         -0.3770    2.2957   -1.7150 H         1 <0>         0.0581
     39 H4         -0.3118    2.4757    0.0546 H         1 <0>         0.0511
     40 H5          0.4942   -0.0170   -1.5119 H         1 <0>         0.0674
     41 H6         -1.5067   -1.0111   -0.4114 H         1 <0>         0.0766
     42 H7         -1.8961    0.5776    0.2905 H         1 <0>         0.0566
     43 H8         -2.0816    1.5388   -1.9878 H         1 <0>         0.0559
     44 H9         -1.6921   -0.0499   -2.6897 H         1 <0>         0.0512
     45 H10         0.2191    0.4218    1.4950 H         1 <0>         0.0742
     46 H11         2.4668    1.0626   -0.2929 H         1 <0>         0.0714
     47 H12         2.3105    1.3251    1.4639 H         1 <0>         0.0610
     48 H13         4.1014   -0.4866    0.4454 H         1 <0>         0.0748
     49 H14         3.2649   -0.7882    2.0006 H         1 <0>         0.0658
     50 H15        -1.0565   -2.2088    0.2960 H         1 <0>         0.1193
     51 H16         0.0085   -2.1742   -1.1273 H         1 <0>         0.1114
     52 H17         5.4956   -5.0124    1.4535 H         1 <0>         0.0975
     53 H18         4.2182   -4.9161    2.6777 H         1 <0>         0.1078
     54 H19         0.2066   -6.4162    0.5284 H         1 <0>         0.1002
     55 H20         1.3507   -6.3282   -0.8350 H         1 <0>         0.0672
     56 H21         1.5124   -8.1926    1.5851 H         1 <0>         0.0829
     57 H22         1.0396   -8.6402   -0.0536 H         1 <0>         0.0672
     58 H23         3.4061   -9.2219    0.4040 H         1 <0>         0.0837
     59 H24         3.2279   -7.7151    2.8286 H         1 <0>         0.0669
     60 H25         4.6647   -8.6673    2.3847 H         1 <0>         0.0599
     61 H26         4.8429   -6.9689    2.8866 H         1 <0>         0.0679
     62 H27         6.1498   -6.6846    0.7343 H         1 <0>         0.0602
     63 H28         5.8031   -8.3792    0.3142 H         1 <0>         0.0552
     64 H29         5.3718   -7.0754   -0.8182 H         1 <0>         0.0650
     65 H30         3.5147   -7.9414   -3.7919 H         1 <0>         0.0912
     66 H31         4.0786   -9.6280   -3.8674 H         1 <0>         0.1032
     67 H32         2.3427   -9.2625   -4.0141 H         1 <0>         0.1049
     68 H33         0.7397   -5.3526    2.6751 H         1 <0>         0.0623
     69 H34         1.8607   -6.7288    2.8078 H         1 <0>         0.0709
     70 H35         2.4452   -5.0733    3.1010 H         1 <0>         0.0590
     71 H36        -0.2282   -1.5190    2.5797 H         1 <0>         0.0651
     72 H37         0.8820   -2.8943    2.3695 H         1 <0>         0.0515
     73 H38         1.5226   -1.2922    2.8066 H         1 <0>         0.0616
     74 H39         3.5574   -1.7510   -1.5114 H         1 <0>         0.0579
     75 H40         1.9327   -2.4469   -1.7220 H         1 <0>         0.0544
     76 H41         2.1338   -0.6845   -1.5745 H         1 <0>         0.0763
@<TRIPOS>BOND
     1    1    2 1
     2    1   37 1
     3    1   38 1
     4    1   39 1
     5    2    3 1
     6    2    8 1
     7    2   40 1
     8    3    4 1
     9    3   41 1
    10    3   42 1
    11    4    5 1
    12    4   43 1
    13    4   44 1
    14    5    6 2
    15    5    7 1
    16    8   12 1
    17    8    9 1
    18    8   45 1
    19    9   10 1
    20    9   46 1
    21    9   47 1
    22   10   11 1
    23   10   48 1
    24   10   49 1
    25   11   17 1
    26   11   12 1
    27   11   36 1
    28   12   13 1
    29   12   35 1
    30   13   14 1
    31   13   50 1
    32   13   51 1
    33   14   15 2
    34   14   16 1
    35   16   23 1
    36   16   17 2
    37   17   18 1
    38   18   19 2
    39   18   20 1
    40   20   21 1
    41   20   52 1
    42   20   53 1
    43   21   22 1
    44   21   27 1
    45   21   23 1
    46   23   24 1
    47   23   34 1
    48   24   25 1
    49   24   54 1
    50   24   55 1
    51   25   26 1
    52   25   56 1
    53   25   57 1
    54   26   27 1
    55   26   30 1
    56   26   58 1
    57   27   28 1
    58   27   29 1
    59   28   59 1
    60   28   60 1
    61   28   61 1
    62   29   62 1
    63   29   63 1
    64   29   64 1
    65   30   31 1
    66   31   32 2
    67   31   33 1
    68   33   65 1
    69   33   66 1
    70   33   67 1
    71   34   68 1
    72   34   69 1
    73   34   70 1
    74   35   71 1
    75   35   72 1
    76   35   73 1
    77   36   74 1
    78   36   75 1
    79   36   76 1
@<TRIPOS>MOLECULE
CHEMBL211039__1
   76    79     0     0     0
SMALL
USER_CHARGES

@<TRIPOS>ATOM
      1 C1          0.1403    2.0572   -0.8548 C.3       1 <0>        -0.1476
      2 C2          0.0169    0.5396   -0.7044 C.3       1 <0>        -0.0886
      3 C3         -1.4620    0.1516   -0.6454 C.3       1 <0>        -0.1060
      4 C4         -2.1473    0.5539   -1.9528 C.3       1 <0>        -0.1825
      5 C5         -3.6039    0.1717   -1.8947 C.2       1 <0>         0.4872
      6 O1         -4.0523   -0.3720   -0.8998 O.co2     1 <0>        -0.6993
      7 O2         -4.3339    0.4062   -2.8426 O.co2     1 <0>        -0.7107
      8 C6          0.7088    0.0988    0.5783 C.3       1 <0>        -0.0691
      9 C7          2.1567    0.6457    0.6575 C.3       1 <0>        -0.1201
     10 C8          3.0613   -0.5847    0.9569 C.3       1 <0>        -0.0991
     11 C9          2.2899   -1.7169    0.2717 C.3       1 <0>        -0.0261
     12 C10         0.8350   -1.4134    0.6929 C.3       1 <0>        -0.0410
     13 C11        -0.0854   -2.2877   -0.1302 C.3       1 <0>        -0.1552
     14 C12         0.3082   -3.7310    0.1677 C.2       1 <0>         0.3872
     15 O3         -0.5413   -4.5872    0.0303 O.2       1 <0>        -0.4340
     16 C13         1.6732   -4.0687    0.6119 C.2       1 <0>        -0.1026
     17 C14         2.6319   -3.1120    0.6855 C.2       1 <0>        -0.1037
     18 C15         3.9923   -3.4108    1.1619 C.2       1 <0>         0.3908
     19 O4          4.8650   -2.5679    1.1440 O.2       1 <0>        -0.4338
     20 C16         4.2939   -4.8061    1.6772 C.3       1 <0>        -0.1592
     21 C17         3.4727   -5.7618    0.8044 C.3       1 <0>        -0.0572
     22 H1          3.6977   -5.4640   -0.2520 H         1 <0>         0.0700
     23 C18         1.9920   -5.4982    1.0035 C.3       1 <0>        -0.0080
     24 C19         1.1552   -6.4738    0.1821 C.3       1 <0>        -0.1117
     25 C20         1.5525   -7.9157    0.5033 C.3       1 <0>        -0.1353
     26 C21         3.0175   -8.1486    0.1608 C.3       1 <0>         0.0995
     27 C22         3.9274   -7.1973    0.9393 C.3       1 <0>        -0.0398
     28 C23         5.3384   -7.3238    0.3191 C.3       1 <0>        -0.1518
     29 C24         4.0317   -7.6487    2.3960 C.3       1 <0>        -0.1427
     30 O5          3.3713   -9.5016    0.4706 O.3       1 <0>        -0.3433
     31 C25         3.2102  -10.4117   -0.5028 C.2       1 <0>         0.4551
     32 O6          2.7837  -10.0736   -1.5815 O.2       1 <0>        -0.5107
     33 C26         3.5615  -11.8553   -0.2501 C.3       1 <0>        -0.1469
     34 C27         1.5941   -5.6385    2.4760 C.3       1 <0>        -0.1496
     35 C28         0.6419   -1.7701    2.1846 C.3       1 <0>        -0.1538
     36 C29         2.4803   -1.6019   -1.2428 C.3       1 <0>        -0.1426
     37 H2          1.1939    2.3336   -0.8968 H         1 <0>         0.0488
     38 H3         -0.3550    2.3728   -1.7730 H         1 <0>         0.0581
     39 H4         -0.3299    2.5463   -0.0017 H         1 <0>         0.0512
     40 H5          0.4871    0.0505   -1.5574 H         1 <0>         0.0673
     41 H6         -1.5496   -0.9258   -0.5057 H         1 <0>         0.0765
     42 H7         -1.9396    0.6661    0.1885 H         1 <0>         0.0568
     43 H8         -2.0597    1.6313   -2.0925 H         1 <0>         0.0560
     44 H9         -1.6697    0.0394   -2.7866 H         1 <0>         0.0512
     45 H10         0.1394    0.4798    1.4409 H         1 <0>         0.0743
     46 H11         2.4427    1.1108   -0.2828 H         1 <0>         0.0719
     47 H12         2.2382    1.3662    1.4715 H         1 <0>         0.0615
     48 H13         4.0411   -0.4582    0.4920 H         1 <0>         0.0748
     49 H14         3.1611   -0.7547    2.0243 H         1 <0>         0.0662
     50 H15        -1.1257   -2.1361    0.1948 H         1 <0>         0.1198
     51 H16        -0.0219   -2.0985   -1.1954 H         1 <0>         0.1113
     52 H17         5.3635   -4.9963    1.5545 H         1 <0>         0.0992
     53 H18         4.0388   -4.8827    2.7275 H         1 <0>         0.1098
     54 H19         0.0993   -6.3562    0.4391 H         1 <0>         0.1062
     55 H20         1.2945   -6.2817   -0.8804 H         1 <0>         0.0654
     56 H21         1.3614   -8.1416    1.5486 H         1 <0>         0.0777
     57 H22         0.9358   -8.5891   -0.1066 H         1 <0>         0.0673
     58 H23         3.1687   -7.9851   -0.9101 H         1 <0>         0.0827
     59 H24         6.0274   -6.6637    0.8461 H         1 <0>         0.0627
     60 H25         5.6831   -8.3540    0.4074 H         1 <0>         0.0622
     61 H26         5.2992   -7.0427   -0.7333 H         1 <0>         0.0543
     62 H27         3.0357   -7.6848    2.8373 H         1 <0>         0.0637
     63 H28         4.4838   -8.6397    2.4378 H         1 <0>         0.0657
     64 H29         4.6499   -6.9436    2.9515 H         1 <0>         0.0584
     65 H30         3.9268  -11.9671    0.7707 H         1 <0>         0.0904
     66 H31         2.6752  -12.4745   -0.3887 H         1 <0>         0.1039
     67 H32         4.3365  -12.1685   -0.9497 H         1 <0>         0.1032
     68 H33         0.5685   -5.2944    2.6097 H         1 <0>         0.0629
     69 H34         1.6684   -6.6842    2.7744 H         1 <0>         0.0730
     70 H35         2.2624   -5.0366    3.0919 H         1 <0>         0.0597
     71 H36        -0.3534   -1.4627    2.5057 H         1 <0>         0.0654
     72 H37         0.7503   -2.8464    2.3178 H         1 <0>         0.0517
     73 H38         1.3924   -1.2525    2.7821 H         1 <0>         0.0616
     74 H39         3.5378   -1.7068   -1.4851 H         1 <0>         0.0581
     75 H40         1.9136   -2.3885   -1.7410 H         1 <0>         0.0544
     76 H41         2.1249   -0.6284   -1.5808 H         1 <0>         0.0770
@<TRIPOS>BOND
     1    1    2 1
     2    1   37 1
     3    1   38 1
     4    1   39 1
     5    2    3 1
     6    2    8 1
     7    2   40 1
     8    3    4 1
     9    3   41 1
    10    3   42 1
    11    4    5 1
    12    4   43 1
    13    4   44 1
    14    5    6 2
    15    5    7 1
    16    8   12 1
    17    8    9 1
    18    8   45 1
    19    9   10 1
    20    9   46 1
    21    9   47 1
    22   10   11 1
    23   10   48 1
    24   10   49 1
    25   11   17 1
    26   11   12 1
    27   11   36 1
    28   12   13 1
    29   12   35 1
    30   13   14 1
    31   13   50 1
    32   13   51 1
    33   14   15 2
    34   14   16 1
    35   16   23 1
    36   16   17 2
    37   17   18 1
    38   18   19 2
    39   18   20 1
    40   20   21 1
    41   20   52 1
    42   20   53 1
    43   21   22 1
    44   21   27 1
    45   21   23 1
    46   23   24 1
    47   23   34 1
    48   24   25 1
    49   24   54 1
    50   24   55 1
    51   25   26 1
    52   25   56 1
    53   25   57 1
    54   26   27 1
    55   26   30 1
    56   26   58 1
    57   27   28 1
    58   27   29 1
    59   28   59 1
    60   28   60 1
    61   28   61 1
    62   29   62 1
    63   29   63 1
    64   29   64 1
    65   30   31 1
    66   31   32 2
    67   31   33 1
    68   33   65 1
    69   33   66 1
    70   33   67 1
    71   34   68 1
    72   34   69 1
    73   34   70 1
    74   35   71 1
    75   35   72 1
    76   35   73 1
    77   36   74 1
    78   36   75 1
    79   36   76 1
@<TRIPOS>MOLECULE
CHEMBL211039__2
   76    79     0     0     0
SMALL
USER_CHARGES

@<TRIPOS>ATOM
      1 C1         -0.5042    1.0914    0.4345 C.3       1 <0>        -0.1537
      2 C2         -0.3497   -0.4303    0.3957 C.3       1 <0>        -0.0898
      3 C3         -1.7254   -1.0861    0.5309 C.3       1 <0>        -0.0861
      4 C4         -2.5800   -0.7348   -0.6886 C.3       1 <0>        -0.1832
      5 C5         -3.9350   -1.3808   -0.5555 C.2       1 <0>         0.4871
      6 O1         -4.1933   -2.0592    0.4241 O.co2     1 <0>        -0.7000
      7 O2         -4.7729   -1.2249   -1.4273 O.co2     1 <0>        -0.7108
      8 C6          0.5474   -0.8822    1.5526 C.3       1 <0>        -0.0674
      9 C7          0.8049   -2.4130    1.4703 C.3       1 <0>        -0.1203
     10 C8          2.2825   -2.6324    1.8843 C.3       1 <0>        -0.0965
     11 C9          2.7871   -1.2488    2.2881 C.3       1 <0>        -0.0306
     12 C10         1.9597   -0.2994    1.3917 C.3       1 <0>        -0.0457
     13 C11         2.1635    1.1177    1.8840 C.3       1 <0>        -0.1576
     14 C12         3.6582    1.3996    1.8541 C.2       1 <0>         0.3946
     15 O3          4.0108    2.5617    1.8114 O.2       1 <0>        -0.4441
     16 C13         4.6430    0.3024    1.8793 C.2       1 <0>        -0.1095
     17 C14         4.2389   -0.9751    2.0879 C.2       1 <0>        -0.0931
     18 C15         5.1973   -2.0930    2.1171 C.2       1 <0>         0.3876
     19 O4          4.8517   -3.2091    2.4406 O.2       1 <0>        -0.4291
     20 C16         6.6421   -1.8209    1.7394 C.3       1 <0>        -0.1625
     21 C17         6.9664   -0.4389    2.3162 C.3       1 <0>        -0.0567
     22 H1          6.6242   -0.4740    3.3822 H         1 <0>         0.0746
     23 C18         6.1073    0.6130    1.6419 C.3       1 <0>        -0.0041
     24 C19         6.4502    2.0049    2.1637 C.3       1 <0>        -0.1077
     25 C20         7.9465    2.2770    2.0047 C.3       1 <0>        -0.1374
     26 C21         8.7583    1.2640    2.7994 C.3       1 <0>         0.0994
     27 C22         8.4535   -0.1687    2.3603 C.3       1 <0>        -0.0393
     28 C23         9.1453   -0.4654    1.0296 C.3       1 <0>        -0.1492
     29 C24         9.0853   -1.1013    3.4219 C.3       1 <0>        -0.1501
     30 O5          8.4695    1.4030    4.1941 O.3       1 <0>        -0.3402
     31 C25         9.2346    2.2563    4.8928 C.2       1 <0>         0.4581
     32 O6         10.1200    2.8652    4.3403 O.2       1 <0>        -0.5155
     33 C26         8.9895    2.4548    6.3664 C.3       1 <0>        -0.1486
     34 C27         6.3024    0.6075    0.1228 C.3       1 <0>        -0.1507
     35 C28         2.3899   -0.4173   -0.0797 C.3       1 <0>        -0.1494
     36 C29         2.4485   -1.0315    3.7634 C.3       1 <0>        -0.1395
     37 H2          0.4310    1.5595    0.1269 H         1 <0>         0.0499
     38 H3         -1.3019    1.3931   -0.2443 H         1 <0>         0.0607
     39 H4         -0.7516    1.4058    1.4484 H         1 <0>         0.0517
     40 H5          0.1021   -0.7256   -0.5512 H         1 <0>         0.0703
     41 H6         -1.6077   -2.1680    0.5926 H         1 <0>         0.0600
     42 H7         -2.2144   -0.7217    1.4344 H         1 <0>         0.0564
     43 H8         -2.6977    0.3471   -0.7503 H         1 <0>         0.0566
     44 H9         -2.0910   -1.0992   -1.5921 H         1 <0>         0.0520
     45 H10         0.1066   -0.6048    2.5050 H         1 <0>         0.0809
     46 H11         0.1422   -2.9394    2.1583 H         1 <0>         0.0682
     47 H12         0.6419   -2.7687    0.4535 H         1 <0>         0.0698
     48 H13         2.3377   -3.3108    2.7366 H         1 <0>         0.0717
     49 H14         2.8616   -3.0226    1.0511 H         1 <0>         0.0628
     50 H15         1.6603    1.8183    1.1985 H         1 <0>         0.1074
     51 H16         1.7586    1.2752    2.8792 H         1 <0>         0.1078
     52 H17         7.2739   -2.5868    2.1949 H         1 <0>         0.0989
     53 H18         6.7575   -1.8562    0.6623 H         1 <0>         0.1078
     54 H19         5.9129    2.7580    1.5795 H         1 <0>         0.0970
     55 H20         6.1678    2.0884    3.2118 H         1 <0>         0.0664
     56 H21         8.2307    2.2574    0.9559 H         1 <0>         0.0836
     57 H22         8.1599    3.2825    2.3917 H         1 <0>         0.0667
     58 H23         9.8257    1.4596    2.6448 H         1 <0>         0.0836
     59 H24         8.8056    0.2461    0.2770 H         1 <0>         0.0662
     60 H25        10.2245   -0.3759    1.1533 H         1 <0>         0.0602
     61 H26         8.8989   -1.4779    0.7099 H         1 <0>         0.0687
     62 H27         8.9020   -2.1403    3.1481 H         1 <0>         0.0609
     63 H28        10.1594   -0.9222    3.4698 H         1 <0>         0.0554
     64 H29         8.6394   -0.8981    4.3956 H         1 <0>         0.0651
     65 H30         8.1574    1.8266    6.6842 H         1 <0>         0.0910
     66 H31         9.8851    2.1809    6.9239 H         1 <0>         0.1037
     67 H32         8.7485    3.5007    6.5570 H         1 <0>         0.1043
     68 H33         5.5762    1.2763   -0.3392 H         1 <0>         0.0608
     69 H34         7.3108    0.9460   -0.1152 H         1 <0>         0.0711
     70 H35         6.1591   -0.4036   -0.2583 H         1 <0>         0.0604
     71 H36         1.7068    0.1574   -0.7051 H         1 <0>         0.0711
     72 H37         3.4018   -0.0287   -0.1946 H         1 <0>         0.0480
     73 H38         2.3662   -1.4641   -0.3824 H         1 <0>         0.0655
     74 H39         2.9563   -1.7836    4.3672 H         1 <0>         0.0597
     75 H40         2.7766   -0.0380    4.0690 H         1 <0>         0.0512
     76 H41         1.3713   -1.1181    3.9054 H         1 <0>         0.0733
@<TRIPOS>BOND
     1    1    2 1
     2    1   37 1
     3    1   38 1
     4    1   39 1
     5    2    3 1
     6    2    8 1
     7    2   40 1
     8    3    4 1
     9    3   41 1
    10    3   42 1
    11    4    5 1
    12    4   43 1
    13    4   44 1
    14    5    6 2
    15    5    7 1
    16    8   12 1
    17    8    9 1
    18    8   45 1
    19    9   10 1
    20    9   46 1
    21    9   47 1
    22   10   11 1
    23   10   48 1
    24   10   49 1
    25   11   17 1
    26   11   12 1
    27   11   36 1
    28   12   13 1
    29   12   35 1
    30   13   14 1
    31   13   50 1
    32   13   51 1
    33   14   15 2
    34   14   16 1
    35   16   23 1
    36   16   17 2
    37   17   18 1
    38   18   19 2
    39   18   20 1
    40   20   21 1
    41   20   52 1
    42   20   53 1
    43   21   22 1
    44   21   27 1
    45   21   23 1
    46   23   24 1
    47   23   34 1
    48   24   25 1
    49   24   54 1
    50   24   55 1
    51   25   26 1
    52   25   56 1
    53   25   57 1
    54   26   27 1
    55   26   30 1
    56   26   58 1
    57   27   28 1
    58   27   29 1
    59   28   59 1
    60   28   60 1
    61   28   61 1
    62   29   62 1
    63   29   63 1
    64   29   64 1
    65   30   31 1
    66   31   32 2
    67   31   33 1
    68   33   65 1
    69   33   66 1
    70   33   67 1
    71   34   68 1
    72   34   69 1
    73   34   70 1
    74   35   71 1
    75   35   72 1
    76   35   73 1
    77   36   74 1
    78   36   75 1
    79   36   76 1
@<TRIPOS>MOLECULE
CHEMBL211039__3
   76    79     0     0     0
SMALL
USER_CHARGES

@<TRIPOS>ATOM
      1 C1         -0.5069    1.3640    0.3537 C.3       1 <0>        -0.1529
      2 C2         -0.2341   -0.1322    0.1870 C.3       1 <0>        -0.0916
      3 C3         -1.5599   -0.8958    0.1904 C.3       1 <0>        -0.0876
      4 C4         -2.3824   -0.4952   -1.0360 C.3       1 <0>        -0.1824
      5 C5         -3.6883   -1.2473   -1.0326 C.2       1 <0>         0.4869
      6 O1         -3.9380   -2.0311   -0.1328 O.co2     1 <0>        -0.6999
      7 O2         -4.4950   -1.0719   -1.9298 O.co2     1 <0>        -0.7109
      8 C6          0.6405   -0.6234    1.3431 C.3       1 <0>        -0.0671
      9 C7          0.8907   -2.1482    1.2121 C.3       1 <0>        -0.1225
     10 C8          2.4335   -2.3355    1.1587 C.3       1 <0>        -0.0997
     11 C9          2.9426   -1.0745    1.8674 C.3       1 <0>        -0.0307
     12 C10         2.0286    0.0117    1.2570 C.3       1 <0>        -0.0465
     13 C11         2.2381    1.3016    2.0210 C.3       1 <0>        -0.1547
     14 C12         3.7192    1.6411    1.9447 C.2       1 <0>         0.3955
     15 O3          4.0405    2.8006    2.1181 O.2       1 <0>        -0.4436
     16 C13         4.7272    0.5996    1.6745 C.2       1 <0>        -0.1116
     17 C14         4.3696   -0.7078    1.6329 C.2       1 <0>        -0.0911
     18 C15         5.3534   -1.7678    1.3548 C.2       1 <0>         0.3870
     19 O4          5.0507   -2.9398    1.4310 O.2       1 <0>        -0.4273
     20 C16         6.7668   -1.3701    0.9710 C.3       1 <0>        -0.1593
     21 C17         7.0933   -0.1264    1.8032 C.3       1 <0>        -0.0564
     22 H1          6.8277   -0.3930    2.8576 H         1 <0>         0.0701
     23 C18         6.1636    1.0087    1.4171 C.3       1 <0>        -0.0072
     24 C19         6.5043    2.2745    2.1970 C.3       1 <0>        -0.1077
     25 C20         7.9804    2.6313    2.0122 C.3       1 <0>        -0.1364
     26 C21         8.8615    1.5050    2.5362 C.3       1 <0>         0.0995
     27 C22         8.5725    0.1897    1.8093 C.3       1 <0>        -0.0402
     28 C23         9.1760    0.2251    0.4059 C.3       1 <0>        -0.1433
     29 C24         9.3058   -0.9221    2.5970 C.3       1 <0>        -0.1522
     30 O5         10.2375    1.8521    2.3499 O.3       1 <0>        -0.3427
     31 C25        10.8397    2.5148    3.3499 C.2       1 <0>         0.4558
     32 O6         10.2208    2.7915    4.3501 O.2       1 <0>        -0.5121
     33 C26        12.2876    2.9137    3.2252 C.3       1 <0>        -0.1473
     34 C27         6.2535    1.3244   -0.0791 C.3       1 <0>        -0.1502
     35 C28         2.3702    0.2324   -0.2238 C.3       1 <0>        -0.1548
     36 C29         2.6971   -1.2190    3.3706 C.3       1 <0>        -0.1370
     37 H2          0.4393    1.9040    0.3895 H         1 <0>         0.0510
     38 H3         -1.0978    1.7218   -0.4894 H         1 <0>         0.0575
     39 H4         -1.0564    1.5321    1.2800 H         1 <0>         0.0524
     40 H5          0.2819   -0.3044   -0.7576 H         1 <0>         0.0726
     41 H6         -1.3622   -1.9673    0.1610 H         1 <0>         0.0616
     42 H7         -2.1163   -0.6538    1.0959 H         1 <0>         0.0562
     43 H8         -2.5801    0.5763   -1.0066 H         1 <0>         0.0556
     44 H9         -1.8260   -0.7372   -1.9415 H         1 <0>         0.0518
     45 H10         0.1715   -0.3912    2.2964 H         1 <0>         0.0759
     46 H11         0.4750   -2.6741    2.0699 H         1 <0>         0.0674
     47 H12         0.4386   -2.5215    0.2923 H         1 <0>         0.0752
     48 H13         2.7247   -3.2265    1.7211 H         1 <0>         0.0744
     49 H14         2.7932   -2.3967    0.1380 H         1 <0>         0.0667
     50 H15         1.6660    2.1090    1.5387 H         1 <0>         0.1048
     51 H16         1.9103    1.2262    3.0543 H         1 <0>         0.1076
     52 H17         7.4410   -2.1919    1.2266 H         1 <0>         0.1004
     53 H18         6.8240   -1.1807   -0.0952 H         1 <0>         0.1105
     54 H19         5.9123    3.1108    1.8173 H         1 <0>         0.1034
     55 H20         6.2923    2.1263    3.2545 H         1 <0>         0.0644
     56 H21         8.1975    2.8341    0.9671 H         1 <0>         0.0779
     57 H22         8.1924    3.5430    2.5859 H         1 <0>         0.0666
     58 H23         8.6770    1.3687    3.6057 H         1 <0>         0.0826
     59 H24         8.7635    1.0698   -0.1458 H         1 <0>         0.0636
     60 H25        10.2583    0.3321    0.4784 H         1 <0>         0.0662
     61 H26         8.9366   -0.7014   -0.1160 H         1 <0>         0.0594
     62 H27         9.1318   -1.8840    2.1148 H         1 <0>         0.0635
     63 H28        10.3751   -0.7115    2.6125 H         1 <0>         0.0624
     64 H29         8.9269   -0.9539    3.6185 H         1 <0>         0.0542
     65 H30        12.6744    2.5811    2.2619 H         1 <0>         0.0909
     66 H31        12.3731    3.9980    3.2963 H         1 <0>         0.1039
     67 H32        12.8624    2.4505    4.0271 H         1 <0>         0.1036
     68 H33         5.4841    2.0496   -0.3443 H         1 <0>         0.0614
     69 H34         7.2362    1.7385   -0.3046 H         1 <0>         0.0735
     70 H35         6.1041    0.4099   -0.6530 H         1 <0>         0.0609
     71 H36         1.7003    0.9830   -0.6433 H         1 <0>         0.0721
     72 H37         3.4010    0.5757   -0.3116 H         1 <0>         0.0473
     73 H38         2.2518   -0.7048   -0.7675 H         1 <0>         0.0673
     74 H39         3.2520   -2.0778    3.7485 H         1 <0>         0.0599
     75 H40         3.0320   -0.3165    3.8819 H         1 <0>         0.0513
     76 H41         1.6324   -1.3658    3.5525 H         1 <0>         0.0740
@<TRIPOS>BOND
     1    1    2 1
     2    1   37 1
     3    1   38 1
     4    1   39 1
     5    2    3 1
     6    2    8 1
     7    2   40 1
     8    3    4 1
     9    3   41 1
    10    3   42 1
    11    4    5 1
    12    4   43 1
    13    4   44 1
    14    5    6 2
    15    5    7 1
    16    8   12 1
    17    8    9 1
    18    8   45 1
    19    9   10 1
    20    9   46 1
    21    9   47 1
    22   10   11 1
    23   10   48 1
    24   10   49 1
    25   11   17 1
    26   11   12 1
    27   11   36 1
    28   12   13 1
    29   12   35 1
    30   13   14 1
    31   13   50 1
    32   13   51 1
    33   14   15 2
    34   14   16 1
    35   16   23 1
    36   16   17 2
    37   17   18 1
    38   18   19 2
    39   18   20 1
    40   20   21 1
    41   20   52 1
    42   20   53 1
    43   21   22 1
    44   21   27 1
    45   21   23 1
    46   23   24 1
    47   23   34 1
    48   24   25 1
    49   24   54 1
    50   24   55 1
    51   25   26 1
    52   25   56 1
    53   25   57 1
    54   26   27 1
    55   26   30 1
    56   26   58 1
    57   27   28 1
    58   27   29 1
    59   28   59 1
    60   28   60 1
    61   28   61 1
    62   29   62 1
    63   29   63 1
    64   29   64 1
    65   30   31 1
    66   31   32 2
    67   31   33 1
    68   33   65 1
    69   33   66 1
    70   33   67 1
    71   34   68 1
    72   34   69 1
    73   34   70 1
    74   35   71 1
    75   35   72 1
    76   35   73 1
    77   36   74 1
    78   36   75 1
    79   36   76 1
@<TRIPOS>MOLECULE
CHEMBL211039__4
   76    79     0     0     0
SMALL
USER_CHARGES

@<TRIPOS>ATOM
      1 C1          0.7512    2.0120   -0.2018 C.3       1 <0>        -0.1658
      2 C2          0.8202    0.4850   -0.1360 C.3       1 <0>        -0.0881
      3 C3          1.8202    0.0657    0.9435 C.3       1 <0>        -0.0872
      4 C4          3.2253    0.5173    0.5401 C.3       1 <0>        -0.1831
      5 C5          4.2102    0.1043    1.6033 C.2       1 <0>         0.4870
      6 O1          3.8241   -0.4956    2.5920 O.co2     1 <0>        -0.6999
      7 O2          5.3931    0.3701    1.4748 O.co2     1 <0>        -0.7107
      8 C6         -0.5568   -0.0714    0.2038 C.3       1 <0>        -0.0669
      9 C7         -0.5116   -1.6069    0.4084 C.3       1 <0>        -0.1221
     10 C8         -1.6106   -2.1967   -0.5217 C.3       1 <0>        -0.1002
     11 C9         -1.6397   -1.1770   -1.6655 C.3       1 <0>        -0.0272
     12 C10        -1.5786    0.1637   -0.9007 C.3       1 <0>        -0.0439
     13 C11        -1.3290    1.2667   -1.9049 C.3       1 <0>        -0.1501
     14 C12        -2.4806    1.2200   -2.9032 C.2       1 <0>         0.3917
     15 O3         -2.7511    2.2444   -3.4970 O.2       1 <0>        -0.4437
     16 C13        -3.2341   -0.0259   -3.1366 C.2       1 <0>        -0.1112
     17 C14        -2.8531   -1.1814   -2.5367 C.2       1 <0>        -0.0940
     18 C15        -3.6063   -2.4331   -2.7210 C.2       1 <0>         0.3877
     19 O4         -3.2051   -3.4820   -2.2648 O.2       1 <0>        -0.4283
     20 C16        -4.9060   -2.3902   -3.5046 C.3       1 <0>        -0.1621
     21 C17        -4.6741   -1.3771   -4.6306 C.3       1 <0>        -0.0580
     22 H1         -3.6982   -1.6686   -5.0961 H         1 <0>         0.0753
     23 C18        -4.4513    0.0020   -4.0399 C.3       1 <0>        -0.0037
     24 C19        -4.2704    1.0380   -5.1452 C.3       1 <0>        -0.1101
     25 C20        -5.4576    0.9958   -6.1087 C.3       1 <0>        -0.1369
     26 C21        -5.5546   -0.3741   -6.7656 C.3       1 <0>         0.0993
     27 C22        -5.7114   -1.4841   -5.7252 C.3       1 <0>        -0.0392
     28 C23        -5.4954   -2.8238   -6.4694 C.3       1 <0>        -0.1502
     29 C24        -7.1402   -1.4929   -5.1820 C.3       1 <0>        -0.1495
     30 O5         -4.3781   -0.6190   -7.5434 O.3       1 <0>        -0.3401
     31 C25        -4.4044   -0.2290   -8.8275 C.2       1 <0>         0.4584
     32 O6         -5.3919    0.3024   -9.2774 O.2       1 <0>        -0.5160
     33 C26        -3.2023   -0.4539   -9.7081 C.3       1 <0>        -0.1490
     34 C27        -5.6289    0.4346   -3.1616 C.3       1 <0>        -0.1503
     35 C28        -2.9369    0.4281   -0.2135 C.3       1 <0>        -0.1532
     36 C29        -0.4086   -1.3896   -2.5497 C.3       1 <0>        -0.1435
     37 H2          1.7603    2.4229   -0.1709 H         1 <0>         0.0609
     38 H3          0.2642    2.3140   -1.1290 H         1 <0>         0.0594
     39 H4          0.1801    2.3868    0.6475 H         1 <0>         0.0507
     40 H5          1.1421    0.0938   -1.1011 H         1 <0>         0.0682
     41 H6          1.5475    0.5297    1.8913 H         1 <0>         0.0569
     42 H7          1.8043   -1.0188    1.0520 H         1 <0>         0.0622
     43 H8          3.4979    0.0533   -0.4077 H         1 <0>         0.0521
     44 H9          3.2412    1.6018    0.4316 H         1 <0>         0.0570
     45 H10        -0.9183    0.3996    1.1308 H         1 <0>         0.0731
     46 H11         0.4661   -1.9978    0.1365 H         1 <0>         0.0767
     47 H12        -0.7350   -1.8514    1.4475 H         1 <0>         0.0658
     48 H13        -1.3065   -3.1771   -0.8938 H         1 <0>         0.0764
     49 H14        -2.5674   -2.2588   -0.0142 H         1 <0>         0.0651
     50 H15        -1.3478    2.2410   -1.3933 H         1 <0>         0.1054
     51 H16        -0.3810    1.1690   -2.4237 H         1 <0>         0.1124
     52 H17        -5.1018   -3.3837   -3.9140 H         1 <0>         0.0990
     53 H18        -5.7235   -2.1042   -2.8533 H         1 <0>         0.1073
     54 H19        -4.2335    2.0401   -4.7088 H         1 <0>         0.0982
     55 H20        -3.3474    0.8440   -5.6885 H         1 <0>         0.0665
     56 H21        -6.3813    1.2379   -5.5913 H         1 <0>         0.0835
     57 H22        -5.3003    1.7516   -6.8894 H         1 <0>         0.0669
     58 H23        -6.4223   -0.3919   -7.4334 H         1 <0>         0.0835
     59 H24        -5.6053   -3.6508   -5.7680 H         1 <0>         0.0609
     60 H25        -6.2347   -2.9210   -7.2645 H         1 <0>         0.0553
     61 H26        -4.4942   -2.8430   -6.8998 H         1 <0>         0.0654
     62 H27        -7.3387   -0.5534   -4.6662 H         1 <0>         0.0669
     63 H28        -7.8421   -1.6094   -6.0077 H         1 <0>         0.0599
     64 H29        -7.2587   -2.3223   -4.4847 H         1 <0>         0.0681
     65 H30        -2.4160   -0.9415   -9.1319 H         1 <0>         0.0914
     66 H31        -3.4820   -1.0875  -10.5498 H         1 <0>         0.1038
     67 H32        -2.8396    0.5045  -10.0795 H         1 <0>         0.1045
     68 H33        -5.3709    1.3532   -2.6347 H         1 <0>         0.0607
     69 H34        -6.5043    0.6083   -3.7874 H         1 <0>         0.0711
     70 H35        -5.8496   -0.3498   -2.4377 H         1 <0>         0.0600
     71 H36        -2.8622    1.3207    0.4076 H         1 <0>         0.0614
     72 H37        -3.7052    0.5766   -0.9723 H         1 <0>         0.0514
     73 H38        -3.2015   -0.4266    0.4091 H         1 <0>         0.0643
     74 H39        -0.4371   -2.3918   -2.9774 H         1 <0>         0.0603
     75 H40        -0.4060   -0.6520   -3.3523 H         1 <0>         0.0519
     76 H41         0.4940   -1.2763   -1.9493 H         1 <0>         0.0806
@<TRIPOS>BOND
     1    1    2 1
     2    1   37 1
     3    1   38 1
     4    1   39 1
     5    2    3 1
     6    2    8 1
     7    2   40 1
     8    3    4 1
     9    3   41 1
    10    3   42 1
    11    4    5 1
    12    4   43 1
    13    4   44 1
    14    5    6 2
    15    5    7 1
    16    8   12 1
    17    8    9 1
    18    8   45 1
    19    9   10 1
    20    9   46 1
    21    9   47 1
    22   10   11 1
    23   10   48 1
    24   10   49 1
    25   11   17 1
    26   11   12 1
    27   11   36 1
    28   12   13 1
    29   12   35 1
    30   13   14 1
    31   13   50 1
    32   13   51 1
    33   14   15 2
    34   14   16 1
    35   16   23 1
    36   16   17 2
    37   17   18 1
    38   18   19 2
    39   18   20 1
    40   20   21 1
    41   20   52 1
    42   20   53 1
    43   21   22 1
    44   21   27 1
    45   21   23 1
    46   23   24 1
    47   23   34 1
    48   24   25 1
    49   24   54 1
    50   24   55 1
    51   25   26 1
    52   25   56 1
    53   25   57 1
    54   26   27 1
    55   26   30 1
    56   26   58 1
    57   27   28 1
    58   27   29 1
    59   28   59 1
    60   28   60 1
    61   28   61 1
    62   29   62 1
    63   29   63 1
    64   29   64 1
    65   30   31 1
    66   31   32 2
    67   31   33 1
    68   33   65 1
    69   33   66 1
    70   33   67 1
    71   34   68 1
    72   34   69 1
    73   34   70 1
    74   35   71 1
    75   35   72 1
    76   35   73 1
    77   36   74 1
    78   36   75 1
    79   36   76 1
@<TRIPOS>MOLECULE
CHEMBL211039__5
   76    79     0     0     0
SMALL
USER_CHARGES

@<TRIPOS>ATOM
      1 C1          0.7885    1.6894   -0.0486 C.3       1 <0>        -0.1662
      2 C2          0.8439    0.1604   -0.0517 C.3       1 <0>        -0.0881
      3 C3          1.8412   -0.3159    1.0064 C.3       1 <0>        -0.0871
      4 C4          3.2499    0.1410    0.6218 C.3       1 <0>        -0.1833
      5 C5          4.2322   -0.3281    1.6639 C.2       1 <0>         0.4870
      6 O1          3.8418   -0.9685    2.6251 O.co2     1 <0>        -0.6999
      7 O2          5.4173   -0.0672    1.5458 O.co2     1 <0>        -0.7106
      8 C6         -0.5368   -0.3982    0.2644 C.3       1 <0>        -0.0673
      9 C7         -0.5045   -1.9411    0.4068 C.3       1 <0>        -0.1217
     10 C8         -1.6256   -2.4790   -0.5291 C.3       1 <0>        -0.1002
     11 C9         -1.6454   -1.4212   -1.6369 C.3       1 <0>        -0.0277
     12 C10        -1.5565   -0.1086   -0.8274 C.3       1 <0>        -0.0439
     13 C11        -1.2892    1.0237   -1.7947 C.3       1 <0>        -0.1500
     14 C12        -2.4542    1.0355   -2.7792 C.2       1 <0>         0.3917
     15 O3         -2.7241    2.0877   -3.3213 O.2       1 <0>        -0.4429
     16 C13        -3.2262   -0.1901   -3.0557 C.2       1 <0>        -0.1130
     17 C14        -2.8638   -1.3741   -2.5017 C.2       1 <0>        -0.0930
     18 C15        -3.6368   -2.6062   -2.7279 C.2       1 <0>         0.3871
     19 O4         -3.2574   -3.6754   -2.2975 O.2       1 <0>        -0.4271
     20 C16        -4.9281   -2.5213   -3.5208 C.3       1 <0>        -0.1593
     21 C17        -4.6870   -1.4617   -4.6019 C.3       1 <0>        -0.0578
     22 H1         -3.7180   -1.7486   -5.0857 H         1 <0>         0.0703
     23 C18        -4.4441   -0.1111   -3.9551 C.3       1 <0>        -0.0064
     24 C19        -4.2527    0.9684   -5.0157 C.3       1 <0>        -0.1097
     25 C20        -5.4357    0.9759   -5.9855 C.3       1 <0>        -0.1354
     26 C21        -5.5454   -0.3664   -6.6952 C.3       1 <0>         0.0995
     27 C22        -5.7298   -1.5091   -5.6956 C.3       1 <0>        -0.0400
     28 C23        -5.5495   -2.8259   -6.4864 C.3       1 <0>        -0.1524
     29 C24        -7.1576   -1.5013   -5.1501 C.3       1 <0>        -0.1434
     30 O5         -6.6590   -0.3411   -7.5958 O.3       1 <0>        -0.3431
     31 C25        -6.4189    0.0719   -8.8502 C.2       1 <0>         0.4556
     32 O6         -5.3026    0.4011   -9.1746 O.2       1 <0>        -0.5114
     33 C26        -7.5418    0.1250   -9.8539 C.3       1 <0>        -0.1472
     34 C27        -5.6158    0.2949   -3.0559 C.3       1 <0>        -0.1492
     35 C28        -2.9066    0.1593   -0.1237 C.3       1 <0>        -0.1533
     36 C29        -0.4224   -1.6202   -2.5357 C.3       1 <0>        -0.1440
     37 H2          1.8019    2.0896   -0.0201 H         1 <0>         0.0608
     38 H3          0.2860    2.0365   -0.9515 H         1 <0>         0.0599
     39 H4          0.2380    2.0312    0.8278 H         1 <0>         0.0508
     40 H5          1.1614   -0.1897   -1.0339 H         1 <0>         0.0676
     41 H6          1.5737    0.1074    1.9745 H         1 <0>         0.0570
     42 H7          1.8158   -1.4040    1.0660 H         1 <0>         0.0622
     43 H8          3.5175   -0.2823   -0.3464 H         1 <0>         0.0521
     44 H9          3.2753    1.2291    0.5621 H         1 <0>         0.0569
     45 H10        -0.8900    0.0369    1.2128 H         1 <0>         0.0734
     46 H11         0.4644   -2.3335    0.1075 H         1 <0>         0.0771
     47 H12        -0.7211   -2.2242    1.4369 H         1 <0>         0.0658
     48 H13        -1.3447   -3.4514   -0.9387 H         1 <0>         0.0765
     49 H14        -2.5790   -2.5396   -0.0138 H         1 <0>         0.0658
     50 H15        -1.2836    1.9799   -1.2502 H         1 <0>         0.1069
     51 H16        -0.3525    0.9219   -2.3301 H         1 <0>         0.1123
     52 H17        -5.1199   -3.4972   -3.9747 H         1 <0>         0.1002
     53 H18        -5.7543   -2.2656   -2.8681 H         1 <0>         0.1099
     54 H19        -4.2118    1.9495   -4.5356 H         1 <0>         0.1041
     55 H20        -3.3287    0.7928   -5.5639 H         1 <0>         0.0646
     56 H21        -6.3583    1.2107   -5.4620 H         1 <0>         0.0776
     57 H22        -5.2637    1.7590   -6.7358 H         1 <0>         0.0665
     58 H23        -4.6339   -0.5456   -7.2727 H         1 <0>         0.0827
     59 H24        -5.6764   -3.6740   -5.8137 H         1 <0>         0.0634
     60 H25        -6.2942   -2.8775   -7.2807 H         1 <0>         0.0624
     61 H26        -4.5509   -2.8540   -6.9223 H         1 <0>         0.0546
     62 H27        -7.3522   -0.5500   -4.6549 H         1 <0>         0.0632
     63 H28        -7.8613   -1.6337   -5.9719 H         1 <0>         0.0663
     64 H29        -7.2777   -2.3146   -4.4344 H         1 <0>         0.0589
     65 H30        -8.4668   -0.2064   -9.3821 H         1 <0>         0.0906
     66 H31        -7.6622    1.1479  -10.2107 H         1 <0>         0.1039
     67 H32        -7.3086   -0.5281  -10.6948 H         1 <0>         0.1037
     68 H33        -5.3417    1.1777   -2.4784 H         1 <0>         0.0609
     69 H34        -6.4861    0.5198   -3.6725 H         1 <0>         0.0728
     70 H35        -5.8535   -0.5240   -2.3769 H         1 <0>         0.0605
     71 H36        -2.8115    1.0297    0.5255 H         1 <0>         0.0618
     72 H37        -3.6758    0.3470   -0.8727 H         1 <0>         0.0513
     73 H38        -3.1843   -0.7100    0.4724 H         1 <0>         0.0646
     74 H39        -0.4675   -2.6066   -2.9974 H         1 <0>         0.0602
     75 H40        -0.4140   -0.8555   -3.3123 H         1 <0>         0.0521
     76 H41         0.4851   -1.5403   -1.9373 H         1 <0>         0.0810
@<TRIPOS>BOND
     1    1    2 1
     2    1   37 1
     3    1   38 1
     4    1   39 1
     5    2    3 1
     6    2    8 1
     7    2   40 1
     8    3    4 1
     9    3   41 1
    10    3   42 1
    11    4    5 1
    12    4   43 1
    13    4   44 1
    14    5    6 2
    15    5    7 1
    16    8   12 1
    17    8    9 1
    18    8   45 1
    19    9   10 1
    20    9   46 1
    21    9   47 1
    22   10   11 1
    23   10   48 1
    24   10   49 1
    25   11   17 1
    26   11   12 1
    27   11   36 1
    28   12   13 1
    29   12   35 1
    30   13   14 1
    31   13   50 1
    32   13   51 1
    33   14   15 2
    34   14   16 1
    35   16   23 1
    36   16   17 2
    37   17   18 1
    38   18   19 2
    39   18   20 1
    40   20   21 1
    41   20   52 1
    42   20   53 1
    43   21   22 1
    44   21   27 1
    45   21   23 1
    46   23   24 1
    47   23   34 1
    48   24   25 1
    49   24   54 1
    50   24   55 1
    51   25   26 1
    52   25   56 1
    53   25   57 1
    54   26   27 1
    55   26   30 1
    56   26   58 1
    57   27   28 1
    58   27   29 1
    59   28   59 1
    60   28   60 1
    61   28   61 1
    62   29   62 1
    63   29   63 1
    64   29   64 1
    65   30   31 1
    66   31   32 2
    67   31   33 1
    68   33   65 1
    69   33   66 1
    70   33   67 1
    71   34   68 1
    72   34   69 1
    73   34   70 1
    74   35   71 1
    75   35   72 1
    76   35   73 1
    77   36   74 1
    78   36   75 1
    79   36   76 1
@<TRIPOS>MOLECULE
CHEMBL211039__6
   76    79     0     0     0
SMALL
USER_CHARGES

@<TRIPOS>ATOM
      1 C1         -0.8771    2.1844   -1.2340 C.3       1 <0>        -0.1467
      2 C2         -0.8800    0.7169   -0.8012 C.3       1 <0>        -0.0919
      3 C3         -0.0249    0.5546    0.4571 C.3       1 <0>        -0.0931
      4 C4          1.4038    1.0184    0.1661 C.3       1 <0>        -0.1841
      5 C5          2.2461    0.8586    1.4055 C.2       1 <0>         0.4869
      6 O1          1.7497    0.4148    2.4268 O.co2     1 <0>        -0.6986
      7 O2          3.4239    1.1730    1.3868 O.co2     1 <0>        -0.7109
      8 C6         -2.3162    0.2753   -0.5030 C.3       1 <0>        -0.0691
      9 C7         -3.1964    0.4009   -1.7788 C.3       1 <0>        -0.1179
     10 C8         -4.1431   -0.8262   -1.7827 C.3       1 <0>        -0.0962
     11 C9         -3.8541   -1.5500   -0.4683 C.3       1 <0>        -0.0288
     12 C10        -2.3618   -1.2346   -0.2194 C.3       1 <0>        -0.0421
     13 C11        -2.0140   -1.6650    1.1893 C.3       1 <0>        -0.1649
     14 C12        -2.3398   -3.1462    1.3025 C.2       1 <0>         0.3907
     15 O3         -1.7632   -3.7858    2.1586 O.2       1 <0>        -0.4351
     16 C13        -3.3214   -3.7808    0.4016 C.2       1 <0>        -0.1004
     17 C14        -4.0544   -3.0266   -0.4531 C.2       1 <0>        -0.1037
     18 C15        -5.0394   -3.6342   -1.3661 C.2       1 <0>         0.3913
     19 O4         -5.8151   -2.9518   -1.9995 O.2       1 <0>        -0.4350
     20 C16        -5.0668   -5.1469   -1.4927 C.3       1 <0>        -0.1626
     21 C17        -4.8518   -5.6760   -0.0714 C.3       1 <0>        -0.0559
     22 H1         -5.5758   -5.1084    0.5676 H         1 <0>         0.0743
     23 C18        -3.4715   -5.2894    0.4176 C.3       1 <0>        -0.0053
     24 C19        -3.2297   -5.8394    1.8201 C.3       1 <0>        -0.1121
     25 C20        -3.4476   -7.3525    1.8400 C.3       1 <0>        -0.1366
     26 C21        -4.8760   -7.6921    1.4391 C.3       1 <0>         0.0992
     27 C22        -5.2259   -7.1378    0.0590 C.3       1 <0>        -0.0390
     28 C23        -6.7609   -7.2640   -0.0954 C.3       1 <0>        -0.1491
     29 C24        -4.5901   -8.0052   -1.0271 C.3       1 <0>        -0.1493
     30 O5         -5.7864   -7.1668    2.4101 O.3       1 <0>        -0.3404
     31 C25        -6.1045   -7.9648    3.4415 C.2       1 <0>         0.4581
     32 O6         -5.6270   -9.0720    3.5185 O.2       1 <0>        -0.5154
     33 C26        -7.0574   -7.4796    4.5035 C.3       1 <0>        -0.1484
     34 C27        -2.3757   -5.8292   -0.5077 C.3       1 <0>        -0.1518
     35 C28        -1.4665   -1.9663   -1.2329 C.3       1 <0>        -0.1500
     36 C29        -4.7289   -0.9256    0.6197 C.3       1 <0>        -0.1388
     37 H2          0.1448    2.4986   -1.4462 H         1 <0>         0.0581
     38 H3         -1.4863    2.3000   -2.1305 H         1 <0>         0.0465
     39 H4         -1.2878    2.8001   -0.4338 H         1 <0>         0.0505
     40 H5         -0.4693    0.1013   -1.6015 H         1 <0>         0.0708
     41 H6         -0.4454    1.1569    1.2624 H         1 <0>         0.0574
     42 H7         -0.0129   -0.4936    0.7555 H         1 <0>         0.0663
     43 H8          1.8244    0.4161   -0.6392 H         1 <0>         0.0514
     44 H9          1.3919    2.0667   -0.1324 H         1 <0>         0.0572
     45 H10        -2.7271    0.8491    0.3211 H         1 <0>         0.0811
     46 H11        -3.7785    1.3220   -1.7395 H         1 <0>         0.0622
     47 H12        -2.5700    0.3957   -2.6701 H         1 <0>         0.0666
     48 H13        -5.1829   -0.4991   -1.8049 H         1 <0>         0.0705
     49 H14        -3.9315   -1.4728   -2.6304 H         1 <0>         0.0620
     50 H15        -0.9320   -1.5317    1.3545 H         1 <0>         0.1211
     51 H16        -2.5394   -1.0906    1.9457 H         1 <0>         0.1087
     52 H17        -6.0442   -5.4479   -1.8763 H         1 <0>         0.0977
     53 H18        -4.2954   -5.4782   -2.1773 H         1 <0>         0.1073
     54 H19        -2.1944   -5.6507    2.1166 H         1 <0>         0.1012
     55 H20        -3.9040   -5.3606    2.5272 H         1 <0>         0.0663
     56 H21        -2.7375   -7.8537    1.1878 H         1 <0>         0.0838
     57 H22        -3.2733   -7.7132    2.8633 H         1 <0>         0.0671
     58 H23        -4.9894   -8.7829    1.4153 H         1 <0>         0.0827
     59 H24        -7.0598   -6.8881   -1.0739 H         1 <0>         0.0604
     60 H25        -7.0504   -8.3109   -0.0044 H         1 <0>         0.0551
     61 H26        -7.2535   -6.6818    0.6834 H         1 <0>         0.0649
     62 H27        -3.5189   -8.0896   -0.8440 H         1 <0>         0.0667
     63 H28        -5.0409   -8.9975   -1.0098 H         1 <0>         0.0600
     64 H29        -4.7571   -7.5472   -2.0020 H         1 <0>         0.0686
     65 H30        -7.3810   -6.4663    4.2658 H         1 <0>         0.0909
     66 H31        -7.9249   -8.1385    4.5417 H         1 <0>         0.1032
     67 H32        -6.5555   -7.4833    5.4711 H         1 <0>         0.1046
     68 H33        -1.4055   -5.4593   -0.1762 H         1 <0>         0.0634
     69 H34        -2.3789   -6.9188   -0.4775 H         1 <0>         0.0716
     70 H35        -2.5635   -5.4934   -1.5276 H         1 <0>         0.0591
     71 H36        -0.4372   -1.6257   -1.1207 H         1 <0>         0.0740
     72 H37        -1.5157   -3.0401   -1.0522 H         1 <0>         0.0492
     73 H38        -1.8121   -1.7518   -2.2441 H         1 <0>         0.0618
     74 H39        -5.7796   -1.0621    0.3639 H         1 <0>         0.0582
     75 H40        -4.5216   -1.4089    1.5744 H         1 <0>         0.0536
     76 H41        -4.5089    0.1392    0.6961 H         1 <0>         0.0705
@<TRIPOS>BOND
     1    1    2 1
     2    1   37 1
     3    1   38 1
     4    1   39 1
     5    2    3 1
     6    2    8 1
     7    2   40 1
     8    3    4 1
     9    3   41 1
    10    3   42 1
    11    4    5 1
    12    4   43 1
    13    4   44 1
    14    5    6 2
    15    5    7 1
    16    8   12 1
    17    8    9 1
    18    8   45 1
    19    9   10 1
    20    9   46 1
    21    9   47 1
    22   10   11 1
    23   10   48 1
    24   10   49 1
    25   11   17 1
    26   11   12 1
    27   11   36 1
    28   12   13 1
    29   12   35 1
    30   13   14 1
    31   13   50 1
    32   13   51 1
    33   14   15 2
    34   14   16 1
    35   16   23 1
    36   16   17 2
    37   17   18 1
    38   18   19 2
    39   18   20 1
    40   20   21 1
    41   20   52 1
    42   20   53 1
    43   21   22 1
    44   21   27 1
    45   21   23 1
    46   23   24 1
    47   23   34 1
    48   24   25 1
    49   24   54 1
    50   24   55 1
    51   25   26 1
    52   25   56 1
    53   25   57 1
    54   26   27 1
    55   26   30 1
    56   26   58 1
    57   27   28 1
    58   27   29 1
    59   28   59 1
    60   28   60 1
    61   28   61 1
    62   29   62 1
    63   29   63 1
    64   29   64 1
    65   30   31 1
    66   31   32 2
    67   31   33 1
    68   33   65 1
    69   33   66 1
    70   33   67 1
    71   34   68 1
    72   34   69 1
    73   34   70 1
    74   35   71 1
    75   35   72 1
    76   35   73 1
    77   36   74 1
    78   36   75 1
    79   36   76 1
@<TRIPOS>MOLECULE
CHEMBL211039__7
   76    79     0     0     0
SMALL
USER_CHARGES

@<TRIPOS>ATOM
      1 C1         -0.1527    1.6009   -0.2541 C.3       1 <0>        -0.1475
      2 C2         -0.2617    0.1279    0.1450 C.3       1 <0>        -0.0926
      3 C3          0.2977   -0.0608    1.5566 C.3       1 <0>        -0.0922
      4 C4          1.7900    0.2766    1.5631 C.3       1 <0>        -0.1834
      5 C5          2.3410    0.0907    2.9534 C.2       1 <0>         0.4869
      6 O1          1.6080   -0.2775    3.8554 O.co2     1 <0>        -0.6987
      7 O2          3.5197    0.3085    3.1761 O.co2     1 <0>        -0.7107
      8 C6         -1.7308   -0.3009    0.1169 C.3       1 <0>        -0.0689
      9 C7         -2.3217   -0.0871   -1.3008 C.3       1 <0>        -0.1200
     10 C8         -2.8471   -1.4736   -1.7696 C.3       1 <0>        -0.0987
     11 C9         -3.1011   -2.1955   -0.4407 C.3       1 <0>        -0.0293
     12 C10        -1.8429   -1.8051    0.3669 C.3       1 <0>        -0.0423
     13 C11        -2.0363   -2.2463    1.8020 C.3       1 <0>        -0.1606
     14 C12        -2.3073   -3.7434    1.7858 C.2       1 <0>         0.3914
     15 O3         -2.0850   -4.3666    2.8055 O.2       1 <0>        -0.4355
     16 C13        -2.8248   -4.4116    0.5777 C.2       1 <0>        -0.1012
     17 C14        -3.2084   -3.6824   -0.4993 C.2       1 <0>        -0.1018
     18 C15        -3.7190   -4.3239   -1.7227 C.2       1 <0>         0.3907
     19 O4         -4.1656   -3.6641   -2.6371 O.2       1 <0>        -0.4340
     20 C16        -3.6816   -5.8377   -1.8237 C.3       1 <0>        -0.1592
     21 C17        -3.9897   -6.3597   -0.4171 C.3       1 <0>        -0.0558
     22 H1         -4.9146   -5.8189   -0.0925 H         1 <0>         0.0697
     23 C18        -2.8982   -5.9249    0.5427 C.3       1 <0>        -0.0087
     24 C19        -3.1571   -6.4775    1.9406 C.3       1 <0>        -0.1095
     25 C20        -3.3267   -7.9970    1.8884 C.3       1 <0>        -0.1365
     26 C21        -4.5169   -8.3617    1.0110 C.3       1 <0>         0.0997
     27 C22        -4.3401   -7.8312   -0.4135 C.3       1 <0>        -0.0400
     28 C23        -3.3196   -8.6845   -1.1656 C.3       1 <0>        -0.1436
     29 C24        -5.7023   -8.0102   -1.1251 C.3       1 <0>        -0.1516
     30 O5         -4.6570   -9.7855    0.9680 O.3       1 <0>        -0.3429
     31 C25        -5.4342  -10.3500    1.9056 C.2       1 <0>         0.4554
     32 O6         -5.9777   -9.6600    2.7353 O.2       1 <0>        -0.5117
     33 C26        -5.6288  -11.8443    1.9234 C.3       1 <0>        -0.1470
     34 C27        -1.5193   -6.4063    0.0809 C.3       1 <0>        -0.1512
     35 C28        -0.5967   -2.4879   -0.2152 C.3       1 <0>        -0.1565
     36 C29        -4.3662   -1.6211    0.1999 C.3       1 <0>        -0.1362
     37 H2          0.8935    1.9062   -0.2340 H         1 <0>         0.0571
     38 H3         -0.5512    1.7353   -1.2597 H         1 <0>         0.0480
     39 H4         -0.7226    2.2105    0.4471 H         1 <0>         0.0504
     40 H5          0.3082   -0.4817   -0.5562 H         1 <0>         0.0724
     41 H6         -0.2272    0.5997    2.2467 H         1 <0>         0.0572
     42 H7          0.1579   -1.0962    1.8674 H         1 <0>         0.0654
     43 H8          2.3148   -0.3840    0.8729 H         1 <0>         0.0514
     44 H9          1.9298    1.3119    1.2522 H         1 <0>         0.0564
     45 H10        -2.3004    0.2542    0.8586 H         1 <0>         0.0764
     46 H11        -3.1363    0.6342   -1.2655 H         1 <0>         0.0635
     47 H12        -1.5430    0.2643   -1.9791 H         1 <0>         0.0686
     48 H13        -3.7850   -1.3553   -2.3186 H         1 <0>         0.0730
     49 H14        -2.1150   -1.9936   -2.3767 H         1 <0>         0.0667
     50 H15        -1.1110   -2.0616    2.3689 H         1 <0>         0.1177
     51 H16        -2.8451   -1.7111    2.2919 H         1 <0>         0.1069
     52 H17        -4.4518   -6.1584   -2.5303 H         1 <0>         0.0993
     53 H18        -2.7114   -6.1633   -2.1821 H         1 <0>         0.1103
     54 H19        -2.3013   -6.2626    2.5853 H         1 <0>         0.1056
     55 H20        -4.0535   -6.0225    2.3587 H         1 <0>         0.0648
     56 H21        -2.4202   -8.4712    1.5223 H         1 <0>         0.0781
     57 H22        -3.5126   -8.3616    2.9071 H         1 <0>         0.0673
     58 H23        -5.4275   -7.9335    1.4399 H         1 <0>         0.0825
     59 H24        -2.3673   -8.6633   -0.6357 H         1 <0>         0.0646
     60 H25        -3.6790   -9.7117   -1.2261 H         1 <0>         0.0661
     61 H26        -3.1846   -8.2870   -2.1715 H         1 <0>         0.0587
     62 H27        -5.6272   -7.6470   -2.1501 H         1 <0>         0.0627
     63 H28        -5.9724   -9.0661   -1.1326 H         1 <0>         0.0621
     64 H29        -6.4669   -7.4433   -0.5940 H         1 <0>         0.0539
     65 H30        -5.0654  -12.2938    1.1057 H         1 <0>         0.0906
     66 H31        -5.2743  -12.2456    2.8727 H         1 <0>         0.1039
     67 H32        -6.6877  -12.0742    1.8044 H         1 <0>         0.1031
     68 H33        -0.7504   -5.9749    0.7219 H         1 <0>         0.0642
     69 H34        -1.4750   -7.4937    0.1417 H         1 <0>         0.0738
     70 H35        -1.3513   -6.0929   -0.9494 H         1 <0>         0.0601
     71 H36         0.2831   -2.1818    0.3508 H         1 <0>         0.0780
     72 H37        -0.7118   -3.5699   -0.1510 H         1 <0>         0.0477
     73 H38        -0.4768   -2.1966   -1.2587 H         1 <0>         0.0627
     74 H39        -5.2177   -1.7948   -0.4580 H         1 <0>         0.0582
     75 H40        -4.5420   -2.1096    1.1584 H         1 <0>         0.0533
     76 H41        -4.2403   -0.5497    0.3559 H         1 <0>         0.0711
@<TRIPOS>BOND
     1    1    2 1
     2    1   37 1
     3    1   38 1
     4    1   39 1
     5    2    3 1
     6    2    8 1
     7    2   40 1
     8    3    4 1
     9    3   41 1
    10    3   42 1
    11    4    5 1
    12    4   43 1
    13    4   44 1
    14    5    6 2
    15    5    7 1
    16    8   12 1
    17    8    9 1
    18    8   45 1
    19    9   10 1
    20    9   46 1
    21    9   47 1
    22   10   11 1
    23   10   48 1
    24   10   49 1
    25   11   17 1
    26   11   12 1
    27   11   36 1
    28   12   13 1
    29   12   35 1
    30   13   14 1
    31   13   50 1
    32   13   51 1
    33   14   15 2
    34   14   16 1
    35   16   23 1
    36   16   17 2
    37   17   18 1
    38   18   19 2
    39   18   20 1
    40   20   21 1
    41   20   52 1
    42   20   53 1
    43   21   22 1
    44   21   27 1
    45   21   23 1
    46   23   24 1
    47   23   34 1
    48   24   25 1
    49   24   54 1
    50   24   55 1
    51   25   26 1
    52   25   56 1
    53   25   57 1
    54   26   27 1
    55   26   30 1
    56   26   58 1
    57   27   28 1
    58   27   29 1
    59   28   59 1
    60   28   60 1
    61   28   61 1
    62   29   62 1
    63   29   63 1
    64   29   64 1
    65   30   31 1
    66   31   32 2
    67   31   33 1
    68   33   65 1
    69   33   66 1
    70   33   67 1
    71   34   68 1
    72   34   69 1
    73   34   70 1
    74   35   71 1
    75   35   72 1
    76   35   73 1
    77   36   74 1
    78   36   75 1
    79   36   76 1
@<TRIPOS>MOLECULE
CHEMBL220385
   48    51     0     0     0
SMALL
USER_CHARGES

@<TRIPOS>ATOM
      1 C1          0.2194    1.3401   -0.1586 C.ar      1 <0>        -0.0822
      2 C2          1.4213    2.0223   -0.1310 C.ar      1 <0>        -0.1123
      3 C3          2.6124    1.3225   -0.0804 C.ar      1 <0>        -0.0941
      4 C4          2.6014   -0.0596   -0.0570 C.ar      1 <0>        -0.1643
      5 C5          1.3994   -0.7419   -0.0837 C.ar      1 <0>        -0.0949
      6 C6          0.2085   -0.0420   -0.1357 C.ar      1 <0>        -0.1118
      7 C7          3.8999   -0.8226   -0.0029 C.3       1 <0>         0.0439
      8 N1          4.2780   -1.0468    1.3988 N.4       1 <0>        -0.3821
      9 C8          5.6155   -1.6495    1.4466 C.3       1 <0>        -0.0117
     10 C9          5.9925   -1.9156    2.9164 C.3       1 <0>        -0.1137
     11 C10         5.0158   -3.0180    3.4182 C.3       1 <0>        -0.1380
     12 C11         3.7011   -2.1936    3.4886 C.3       1 <0>         0.1256
     13 C12         3.2837   -1.9203    2.0322 C.3       1 <0>        -0.0264
     14 N2          4.1206   -0.9020    4.0748 N.am      1 <0>        -0.6367
     15 C13         5.5335   -0.6802    3.7289 C.3       1 <0>         0.0614
     16 C14         3.3436   -0.0722    4.7989 C.2       1 <0>         0.5925
     17 O1          2.1613   -0.3171    4.9425 O.2       1 <0>        -0.5063
     18 C15         3.9277    1.1330    5.4174 C.ar      1 <0>        -0.1936
     19 C16         3.1709    1.8997    6.3082 C.ar      1 <0>         0.0162
     20 C17         3.7187    3.0245    6.8841 C.ar      1 <0>        -0.1205
     21 C18         5.0253    3.3982    6.5798 C.ar      1 <0>         0.2797
     22 C19         5.7815    2.6365    5.6923 C.ar      1 <0>        -0.1222
     23 C20         5.2409    1.5073    5.1182 C.ar      1 <0>        -0.0588
     24 Cl1         7.4094    3.1067    5.3150 Cl        1 <0>        -0.0448
     25 N3          5.5764    4.5353    7.1632 N.pl3     1 <0>        -0.8419
     26 Cl2         2.7795    3.9776    7.9900 Cl        1 <0>        -0.0368
     27 H1         -0.7113    1.8870   -0.1936 H         1 <0>         0.1361
     28 H2          1.4299    3.1022   -0.1492 H         1 <0>         0.1357
     29 H3          3.5514    1.8555   -0.0595 H         1 <0>         0.1292
     30 H4          1.3909   -1.8217   -0.0658 H         1 <0>         0.1306
     31 H5         -0.7306   -0.5750   -0.1570 H         1 <0>         0.1365
     32 H6          3.7783   -1.7827   -0.5044 H         1 <0>         0.1376
     33 H7          4.6800   -0.2481   -0.5023 H         1 <0>         0.1378
     34 H8          5.6120   -2.5895    0.8949 H         1 <0>         0.1398
     35 H9          6.3395   -0.9666    1.0021 H         1 <0>         0.1373
     36 H10         7.0468   -2.1564    3.0531 H         1 <0>         0.1531
     37 H11         4.9348   -3.8333    2.6993 H         1 <0>         0.1074
     38 H12         5.3058   -3.3871    4.4019 H         1 <0>         0.1084
     39 H13         2.9203   -2.6940    4.0615 H         1 <0>         0.1455
     40 H14         2.3092   -1.4323    2.0184 H         1 <0>         0.1368
     41 H15         3.2272   -2.8625    1.4869 H         1 <0>         0.1408
     42 H16         6.1297   -0.5883    4.6368 H         1 <0>         0.1131
     43 H17         5.6324    0.2215    3.1245 H         1 <0>         0.0848
     44 H18         2.1575    1.6106    6.5443 H         1 <0>         0.1546
     45 H19         5.8294    0.9143    4.4338 H         1 <0>         0.1644
     46 H20         5.0504    5.0667    7.7812 H         1 <0>         0.4132
     47 H21         6.4863    4.7964    6.9519 H         1 <0>         0.4121
     48 H22         4.2970   -0.1614    1.8823 H         1 <0>         0.4190
@<TRIPOS>BOND
     1    1    6 ar
     2    1    2 ar
     3    1   27 1
     4    2    3 ar
     5    2   28 1
     6    3    4 ar
     7    3   29 1
     8    4    5 ar
     9    4    7 1
    10    5    6 ar
    11    5   30 1
    12    6   31 1
    13    7    8 1
    14    7   32 1
    15    7   33 1
    16    8   13 1
    17    8    9 1
    18    8   48 1
    19    9   10 1
    20    9   34 1
    21    9   35 1
    22   10   15 1
    23   10   11 1
    24   10   36 1
    25   11   12 1
    26   11   37 1
    27   11   38 1
    28   12   13 1
    29   12   14 1
    30   12   39 1
    31   13   40 1
    32   13   41 1
    33   14   15 1
    34   14   16 am
    35   15   42 1
    36   15   43 1
    37   16   17 2
    38   16   18 1
    39   18   23 ar
    40   18   19 ar
    41   19   20 ar
    42   19   44 1
    43   20   21 ar
    44   20   26 1
    45   21   22 ar
    46   21   25 1
    47   22   23 ar
    48   22   24 1
    49   23   45 1
    50   25   46 1
    51   25   47 1
@<TRIPOS>MOLECULE
CHEMBL220385__1
   48    51     0     0     0
SMALL
USER_CHARGES

@<TRIPOS>ATOM
      1 C1         -0.0989    1.3357   -0.0521 C.ar      1 <0>        -0.0825
      2 C2          1.0784    2.0600   -0.0675 C.ar      1 <0>        -0.1123
      3 C3          2.2943    1.4025   -0.0755 C.ar      1 <0>        -0.0933
      4 C4          2.3329    0.0207   -0.0676 C.ar      1 <0>        -0.1618
      5 C5          1.1556   -0.7036   -0.0513 C.ar      1 <0>        -0.0954
      6 C6         -0.0603   -0.0461   -0.0447 C.ar      1 <0>        -0.1100
      7 C7          3.6585   -0.6961   -0.0773 C.3       1 <0>         0.0360
      8 N1          4.1045   -0.9210    1.3064 N.4       1 <0>        -0.3663
      9 C8          5.5260   -1.2006    1.3524 C.3       1 <0>        -0.0158
     10 C9          5.8917   -2.6804    1.4645 C.3       1 <0>        -0.1073
     11 C10         5.0927   -3.2619    2.6644 C.3       1 <0>        -0.1392
     12 C11         3.6753   -3.2772    2.0313 C.3       1 <0>         0.1301
     13 C12         3.2004   -1.8229    1.9941 C.3       1 <0>        -0.0400
     14 N2          3.8865   -3.7477    0.6477 N.am      1 <0>        -0.6286
     15 C13         5.2740   -3.4379    0.2664 C.3       1 <0>         0.0773
     16 C14         2.9731   -4.3633   -0.1307 C.2       1 <0>         0.5916
     17 O1          1.8887   -4.6666    0.3282 O.2       1 <0>        -0.5071
     18 C15         3.2897   -4.6686   -1.5388 C.ar      1 <0>        -0.1927
     19 C16         4.5840   -5.0566   -1.8973 C.ar      1 <0>        -0.0295
     20 C17         4.8768   -5.3410   -3.2127 C.ar      1 <0>        -0.1200
     21 C18         3.8848   -5.2425   -4.1852 C.ar      1 <0>         0.2771
     22 C19         2.5947   -4.8558   -3.8310 C.ar      1 <0>        -0.1191
     23 C20         2.2947   -4.5762   -2.5162 C.ar      1 <0>         0.0069
     24 Cl1         1.3616   -4.7332   -5.0469 Cl        1 <0>        -0.0387
     25 N3          4.1836   -5.5306   -5.5137 N.pl3     1 <0>        -0.8431
     26 Cl2         6.4839   -5.8223   -3.6589 Cl        1 <0>        -0.0421
     27 H1         -1.0489    1.8494   -0.0413 H         1 <0>         0.1363
     28 H2          1.0482    3.1396   -0.0736 H         1 <0>         0.1366
     29 H3          3.2141    1.9684   -0.0882 H         1 <0>         0.1320
     30 H4          1.1858   -1.7831   -0.0455 H         1 <0>         0.1295
     31 H5         -0.9801   -0.6119   -0.0323 H         1 <0>         0.1365
     32 H6          3.5494   -1.6548   -0.5843 H         1 <0>         0.1291
     33 H7          4.3959   -0.0891   -0.6026 H         1 <0>         0.1379
     34 H8          6.0031   -0.7859    0.4492 H         1 <0>         0.1352
     35 H9          5.9687   -0.6620    2.2065 H         1 <0>         0.1373
     36 H10         6.9720   -2.8497    1.5569 H         1 <0>         0.1493
     37 H11         5.4270   -4.2678    2.9164 H         1 <0>         0.1076
     38 H12         5.1359   -2.6025    3.5308 H         1 <0>         0.1038
     39 H13         2.9866   -3.9268    2.5842 H         1 <0>         0.1420
     40 H14         3.0606   -1.4714    3.0279 H         1 <0>         0.1404
     41 H15         2.2120   -1.7825    1.5136 H         1 <0>         0.1389
     42 H16         5.3012   -2.8283   -0.6322 H         1 <0>         0.0873
     43 H17         5.8222   -4.3679    0.0951 H         1 <0>         0.0954
     44 H18         5.3537   -5.1328   -1.1435 H         1 <0>         0.1490
     45 H19         1.2928   -4.2810   -2.2414 H         1 <0>         0.1488
     46 H20         5.0820   -5.7997   -5.7614 H         1 <0>         0.4122
     47 H21         3.4934   -5.4622   -6.1918 H         1 <0>         0.4127
     48 H22         3.9850    0.0021    1.7720 H         1 <0>         0.4281
@<TRIPOS>BOND
     1    1    6 ar
     2    1    2 ar
     3    1   27 1
     4    2    3 ar
     5    2   28 1
     6    3    4 ar
     7    3   29 1
     8    4    5 ar
     9    4    7 1
    10    5    6 ar
    11    5   30 1
    12    6   31 1
    13    7    8 1
    14    7   32 1
    15    7   33 1
    16    8   13 1
    17    8    9 1
    18    8   48 1
    19    9   10 1
    20    9   34 1
    21    9   35 1
    22   10   15 1
    23   10   11 1
    24   10   36 1
    25   11   12 1
    26   11   37 1
    27   11   38 1
    28   12   13 1
    29   12   14 1
    30   12   39 1
    31   13   40 1
    32   13   41 1
    33   14   15 1
    34   14   16 am
    35   15   42 1
    36   15   43 1
    37   16   17 2
    38   16   18 1
    39   18   23 ar
    40   18   19 ar
    41   19   20 ar
    42   19   44 1
    43   20   21 ar
    44   20   26 1
    45   21   22 ar
    46   21   25 1
    47   22   23 ar
    48   22   24 1
    49   23   45 1
    50   25   46 1
    51   25   47 1
@<TRIPOS>MOLECULE
CHEMBL470532
   55    58     0     0     0
SMALL
USER_CHARGES

@<TRIPOS>ATOM
      1 C1         -0.0187    1.5267    0.0104 C.3       1 <0>        -0.1491
      2 C2          0.0021   -0.0041    0.0020 C.3       1 <0>        -0.0469
      3 C3          0.5697   -0.5243   -1.3110 C.3       1 <0>        -0.1392
      4 C4          2.0828   -0.3762   -1.3881 C.3       1 <0>         0.1141
      5 C5          2.7471   -1.0846   -0.2158 C.3       1 <0>        -0.1022
      6 C6          2.2420   -0.5802    1.1285 C.3       1 <0>        -0.0459
      7 C7          0.7282   -0.5487    1.2170 C.3       1 <0>        -0.0974
      8 C8          2.8433    0.7906    1.4494 C.3       1 <0>        -0.1481
      9 C9          2.7534   -1.5611    2.2108 C.3       1 <0>         0.1142
     10 N1          4.2180   -1.5905    2.1904 N.pl3     1 <0>        -1.1129
     11 S1          5.0506   -2.2515    3.4601 S.o2      1 <0>         2.6986
     12 O1          6.4306   -2.1556    3.1348 O.2       1 <0>        -0.9557
     13 O2          4.5055   -1.6834    4.6430 O.2       1 <0>        -0.9503
     14 C10         4.6610   -3.9694    3.5007 C.ar      1 <0>        -0.6973
     15 C11         3.5764   -4.4152    4.2394 C.ar      1 <0>         0.0069
     16 C12         3.2591   -5.7565    4.2808 C.ar      1 <0>        -0.1298
     17 C13         4.0285   -6.6766    3.5785 C.ar      1 <0>         0.1361
     18 C14         5.1245   -6.2227    2.8320 C.ar      1 <0>        -0.1417
     19 C15         5.4326   -4.8669    2.7929 C.ar      1 <0>         0.0462
     20 C16         5.7177   -7.4272    2.2204 C.ar      1 <0>        -0.1177
     21 C17         6.8055   -7.6507    1.3831 C.ar      1 <0>        -0.0633
     22 C18         7.1045   -8.9345    0.9779 C.ar      1 <0>        -0.1306
     23 C19         6.3243   -9.9979    1.4034 C.ar      1 <0>        -0.0810
     24 C20         5.2433   -9.7876    2.2332 C.ar      1 <0>        -0.1093
     25 C21         4.9266   -8.5008    2.6524 C.ar      1 <0>         0.0771
     26 O3          3.9460   -8.0189    3.4473 O.3       1 <0>        -0.1950
     27 O4          2.4746    0.9888   -1.4686 O.3       1 <0>        -0.5551
     28 C22        -1.4697   -0.4751    0.0869 C.3       1 <0>        -0.1500
     29 H1          1.0039    1.9039    0.0027 H         1 <0>         0.0769
     30 H2         -0.5459    1.8877   -0.8726 H         1 <0>         0.0486
     31 H3         -0.5289    1.8782    0.9072 H         1 <0>         0.0504
     32 H4          0.3054   -1.5822   -1.4234 H         1 <0>         0.0695
     33 H5          0.1119    0.0235   -2.1430 H         1 <0>         0.0641
     34 H6          2.4222   -0.8727   -2.3169 H         1 <0>         0.0434
     35 H7          2.5561   -2.1615   -0.2910 H         1 <0>         0.0768
     36 H8          3.8315   -0.9340   -0.2723 H         1 <0>         0.0702
     37 H9          0.4390    0.0485    2.0976 H         1 <0>         0.0671
     38 H10         0.3664   -1.5719    1.4133 H         1 <0>         0.0606
     39 H11         2.5581    1.5027    0.6750 H         1 <0>         0.0823
     40 H12         2.4701    1.1342    2.4142 H         1 <0>         0.0531
     41 H13         3.9297    0.7110    1.4875 H         1 <0>         0.0534
     42 H14         2.4102   -1.2313    3.1914 H         1 <0>         0.0836
     43 H15         2.3671   -2.5599    2.0077 H         1 <0>         0.0655
     44 H16         4.7000   -1.2228    1.4332 H         1 <0>         0.4200
     45 H17         2.9745   -3.7058    4.7878 H         1 <0>         0.1559
     46 H18         2.4118   -6.0925    4.8601 H         1 <0>         0.1474
     47 H19         6.2753   -4.5189    2.2140 H         1 <0>         0.1479
     48 H20         7.4134   -6.8220    1.0512 H         1 <0>         0.1339
     49 H21         7.9483   -9.1115    0.3275 H         1 <0>         0.1372
     50 H22         6.5648  -11.0005    1.0818 H         1 <0>         0.1419
     51 H23         4.6419  -10.6238    2.5578 H         1 <0>         0.1383
     52 H24         2.1233    1.4540   -2.2401 H         1 <0>         0.3761
     53 H25        -2.0238   -0.0921   -0.7701 H         1 <0>         0.0537
     54 H26        -1.5032   -1.5646    0.0837 H         1 <0>         0.0522
     55 H27        -1.9187   -0.1005    1.0067 H         1 <0>         0.0553
@<TRIPOS>BOND
     1    1    2 1
     2    1   29 1
     3    1   30 1
     4    1   31 1
     5    2    7 1
     6    2    3 1
     7    2   28 1
     8    3    4 1
     9    3   32 1
    10    3   33 1
    11    4    5 1
    12    4   27 1
    13    4   34 1
    14    5    6 1
    15    5   35 1
    16    5   36 1
    17    6    7 1
    18    6    8 1
    19    6    9 1
    20    7   37 1
    21    7   38 1
    22    8   39 1
    23    8   40 1
    24    8   41 1
    25    9   10 1
    26    9   42 1
    27    9   43 1
    28   10   11 1
    29   10   44 1
    30   11   12 2
    31   11   13 2
    32   11   14 1
    33   14   19 ar
    34   14   15 ar
    35   15   16 ar
    36   15   45 1
    37   16   17 ar
    38   16   46 1
    39   17   26 1
    40   17   18 ar
    41   18   19 ar
    42   18   20 1
    43   19   47 1
    44   20   25 ar
    45   20   21 ar
    46   21   22 ar
    47   21   48 1
    48   22   23 ar
    49   22   49 1
    50   23   24 ar
    51   23   50 1
    52   24   25 ar
    53   24   51 1
    54   25   26 1
    55   27   52 1
    56   28   53 1
    57   28   54 1
    58   28   55 1
@<TRIPOS>MOLECULE
CHEMBL470532__1
   55    58     0     0     0
SMALL
USER_CHARGES

@<TRIPOS>ATOM
      1 C1         -0.0187    1.5272    0.0104 C.3       1 <0>        -0.1485
      2 C2          0.0021   -0.0041    0.0020 C.3       1 <0>        -0.0520
      3 C3         -1.4181   -0.5441   -0.1228 C.3       1 <0>        -0.1401
      4 C4         -2.1906   -0.3441    1.1791 C.3       1 <0>         0.1067
      5 C5         -1.4903   -1.1197    2.2926 C.3       1 <0>        -0.1044
      6 C6         -0.0730   -0.5999    2.5052 C.3       1 <0>        -0.0497
      7 C7          0.7289   -0.5475    1.2181 C.3       1 <0>        -0.1008
      8 C8         -0.1146    0.7715    3.1855 C.3       1 <0>        -0.1514
      9 C9          0.6410   -1.5707    3.4718 C.3       1 <0>         0.1186
     10 N1         -0.0833   -1.6133    4.7445 N.pl3     1 <0>        -1.1142
     11 S1          0.2207   -2.8263    5.8301 S.o2      1 <0>         2.6987
     12 O1         -0.6071   -2.5786    6.9583 O.2       1 <0>        -0.9549
     13 O2          0.1707   -4.0453    5.1015 O.2       1 <0>        -0.9496
     14 C10         1.8852   -2.6330    6.3746 C.ar      1 <0>        -0.6974
     15 C11         2.9141   -3.2598    5.6896 C.ar      1 <0>         0.0068
     16 C12         4.2217   -3.1179    6.1037 C.ar      1 <0>        -0.1297
     17 C13         4.5197   -2.3412    7.2171 C.ar      1 <0>         0.1363
     18 C14         3.4770   -1.7082    7.9077 C.ar      1 <0>        -0.1416
     19 C15         2.1621   -1.8537    7.4782 C.ar      1 <0>         0.0465
     20 C16         4.1186   -0.9776    9.0174 C.ar      1 <0>        -0.1177
     21 C17         3.6441   -0.1691   10.0448 C.ar      1 <0>        -0.0633
     22 C18         4.5301    0.3802   10.9477 C.ar      1 <0>        -0.1305
     23 C19         5.8878    0.1276   10.8318 C.ar      1 <0>        -0.0809
     24 C20         6.3689   -0.6721    9.8168 C.ar      1 <0>        -0.1093
     25 C21         5.4912   -1.2349    8.8976 C.ar      1 <0>         0.0772
     26 O3          5.6857   -2.0387    7.8291 O.3       1 <0>        -0.1949
     27 O4         -3.5204   -0.8534    1.0180 O.3       1 <0>        -0.5703
     28 C22         0.7825   -0.4460   -1.2559 C.3       1 <0>        -0.1473
     29 H1          1.0039    1.9044    0.0027 H         1 <0>         0.0569
     30 H2         -0.5459    1.8882   -0.8726 H         1 <0>         0.0548
     31 H3         -0.5289    1.8787    0.9072 H         1 <0>         0.0598
     32 H4         -1.9353   -0.0231   -0.9327 H         1 <0>         0.0644
     33 H5         -1.3823   -1.6102   -0.3611 H         1 <0>         0.0721
     34 H6         -2.2488    0.7117    1.4290 H         1 <0>         0.0587
     35 H7         -2.0596   -1.0132    3.2196 H         1 <0>         0.0719
     36 H8         -1.4530   -2.1791    2.0262 H         1 <0>         0.0756
     37 H9          1.0887   -1.5637    0.9870 H         1 <0>         0.0670
     38 H10         1.6312    0.0621    1.3903 H         1 <0>         0.0686
     39 H11        -0.6128    0.6831    4.1509 H         1 <0>         0.0580
     40 H12         0.9023    1.1348    3.3332 H         1 <0>         0.0618
     41 H13        -0.6632    1.4726    2.5564 H         1 <0>         0.0657
     42 H14         0.6642   -2.5684    3.0334 H         1 <0>         0.0847
     43 H15         1.6605   -1.2264    3.6454 H         1 <0>         0.0699
     44 H16        -0.7410   -0.9309    4.9513 H         1 <0>         0.4199
     45 H17         2.6897   -3.8651    4.8238 H         1 <0>         0.1560
     46 H18         5.0153   -3.6113    5.5623 H         1 <0>         0.1475
     47 H19         1.3607   -1.3620    8.0096 H         1 <0>         0.1479
     48 H20         2.5861    0.0281   10.1350 H         1 <0>         0.1339
     49 H21         4.1651    1.0088   11.7465 H         1 <0>         0.1373
     50 H22         6.5754    0.5614   11.5428 H         1 <0>         0.1419
     51 H23         7.4291   -0.8615    9.7359 H         1 <0>         0.1383
     52 H24        -4.0241   -0.4222    0.3142 H         1 <0>         0.3777
     53 H25         1.7970   -0.0499   -1.2119 H         1 <0>         0.0561
     54 H26         0.8190   -1.5346   -1.2971 H         1 <0>         0.0557
     55 H27         0.2821   -0.0653   -2.1463 H         1 <0>         0.0556
@<TRIPOS>BOND
     1    1    2 1
     2    1   29 1
     3    1   30 1
     4    1   31 1
     5    2    7 1
     6    2    3 1
     7    2   28 1
     8    3    4 1
     9    3   32 1
    10    3   33 1
    11    4    5 1
    12    4   27 1
    13    4   34 1
    14    5    6 1
    15    5   35 1
    16    5   36 1
    17    6    7 1
    18    6    8 1
    19    6    9 1
    20    7   37 1
    21    7   38 1
    22    8   39 1
    23    8   40 1
    24    8   41 1
    25    9   10 1
    26    9   42 1
    27    9   43 1
    28   10   11 1
    29   10   44 1
    30   11   12 2
    31   11   13 2
    32   11   14 1
    33   14   19 ar
    34   14   15 ar
    35   15   16 ar
    36   15   45 1
    37   16   17 ar
    38   16   46 1
    39   17   26 1
    40   17   18 ar
    41   18   19 ar
    42   18   20 1
    43   19   47 1
    44   20   25 ar
    45   20   21 ar
    46   21   22 ar
    47   21   48 1
    48   22   23 ar
    49   22   49 1
    50   23   24 ar
    51   23   50 1
    52   24   25 ar
    53   24   51 1
    54   25   26 1
    55   27   52 1
    56   28   53 1
    57   28   54 1
    58   28   55 1
@<TRIPOS>MOLECULE
CHEMBL470532__2
   55    58     0     0     0
SMALL
USER_CHARGES

@<TRIPOS>ATOM
      1 C1         -0.0189    1.5406    0.0105 C.3       1 <0>        -0.1471
      2 C2          0.0021   -0.0041    0.0020 C.3       1 <0>        -0.0520
      3 C3         -1.4442   -0.4851   -0.0329 C.3       1 <0>        -0.1393
      4 C4         -1.5182   -1.9952    0.1809 C.3       1 <0>         0.1069
      5 C5         -0.9474   -2.3274    1.5575 C.3       1 <0>        -0.1035
      6 C6          0.5166   -1.9126    1.6510 C.3       1 <0>        -0.0500
      7 C7          0.7420   -0.4687    1.2426 C.3       1 <0>        -0.1011
      8 C8          1.3842   -2.8626    0.8203 C.3       1 <0>        -0.1516
      9 C9          0.9522   -2.0639    3.1255 C.3       1 <0>         0.1187
     10 N1          0.7893   -3.4589    3.5421 N.pl3     1 <0>        -1.1140
     11 S1          1.5128   -3.9982    4.9307 S.o2      1 <0>         2.6991
     12 O1          1.1500   -5.3647    5.0733 O.2       1 <0>        -0.9550
     13 O2          2.8671   -3.5714    4.8752 O.2       1 <0>        -0.9503
     14 C10         0.7678   -3.1364    6.2749 C.ar      1 <0>        -0.6978
     15 C11         1.3000   -1.9306    6.7032 C.ar      1 <0>         0.0066
     16 C12         0.7281   -1.2446    7.7537 C.ar      1 <0>        -0.1299
     17 C13        -0.3924   -1.7597    8.3947 C.ar      1 <0>         0.1364
     18 C14        -0.9287   -2.9793    7.9590 C.ar      1 <0>        -0.1414
     19 C15        -0.3470   -3.6603    6.8949 C.ar      1 <0>         0.0469
     20 C16        -2.0890   -3.2400    8.8322 C.ar      1 <0>        -0.1176
     21 C17        -3.0256   -4.2649    8.9151 C.ar      1 <0>        -0.0630
     22 C18        -4.0165   -4.2102    9.8727 C.ar      1 <0>        -0.1304
     23 C19        -4.0789   -3.1382   10.7489 C.ar      1 <0>        -0.0809
     24 C20        -3.1558   -2.1166   10.6751 C.ar      1 <0>        -0.1093
     25 C21        -2.1496   -2.1546    9.7170 C.ar      1 <0>         0.0771
     26 O3         -1.1371   -1.3079    9.4277 O.3       1 <0>        -0.1950
     27 O4         -2.8894   -2.4089    0.1299 O.3       1 <0>        -0.5714
     28 C22         0.7307   -0.4427   -1.2715 C.3       1 <0>        -0.1485
     29 H1          1.0037    1.9179    0.0028 H         1 <0>         0.0569
     30 H2         -0.5461    1.9017   -0.8725 H         1 <0>         0.0556
     31 H3         -0.5291    1.8922    0.9073 H         1 <0>         0.0546
     32 H4         -2.0141    0.0190    0.7518 H         1 <0>         0.0706
     33 H5         -1.8872   -0.2354   -1.0004 H         1 <0>         0.0645
     34 H6         -0.9668   -2.5173   -0.5963 H         1 <0>         0.0602
     35 H7         -1.5238   -1.8026    2.3237 H         1 <0>         0.0732
     36 H8         -1.0324   -3.4030    1.7332 H         1 <0>         0.0704
     37 H9          1.8221   -0.3111    1.0880 H         1 <0>         0.0708
     38 H10         0.4579    0.1829    2.0854 H         1 <0>         0.0654
     39 H11         1.0670   -2.8265   -0.2219 H         1 <0>         0.0636
     40 H12         2.4283   -2.5584    0.8931 H         1 <0>         0.0635
     41 H13         1.2746   -3.8790    1.1985 H         1 <0>         0.0599
     42 H14         1.9981   -1.7741    3.2270 H         1 <0>         0.0862
     43 H15         0.3348   -1.4224    3.7544 H         1 <0>         0.0683
     44 H16         0.2577   -4.0667    3.0046 H         1 <0>         0.4202
     45 H17         2.1708   -1.5247    6.2099 H         1 <0>         0.1559
     46 H18         1.1516   -0.3059    8.0791 H         1 <0>         0.1475
     47 H19        -0.7641   -4.5980    6.5584 H         1 <0>         0.1481
     48 H20        -2.9773   -5.1001    8.2321 H         1 <0>         0.1340
     49 H21        -4.7456   -5.0041    9.9397 H         1 <0>         0.1373
     50 H22        -4.8579   -3.1025   11.4961 H         1 <0>         0.1419
     51 H23        -3.2147   -1.2859   11.3627 H         1 <0>         0.1383
     52 H24        -3.3280   -2.2142   -0.7096 H         1 <0>         0.3782
     53 H25         1.7461   -0.0464   -1.2640 H         1 <0>         0.0579
     54 H26         0.7659   -1.5313   -1.3134 H         1 <0>         0.0600
     55 H27         0.1988   -0.0625   -2.1436 H         1 <0>         0.0547
@<TRIPOS>BOND
     1    1    2 1
     2    1   29 1
     3    1   30 1
     4    1   31 1
     5    2    7 1
     6    2    3 1
     7    2   28 1
     8    3    4 1
     9    3   32 1
    10    3   33 1
    11    4    5 1
    12    4   27 1
    13    4   34 1
    14    5    6 1
    15    5   35 1
    16    5   36 1
    17    6    7 1
    18    6    8 1
    19    6    9 1
    20    7   37 1
    21    7   38 1
    22    8   39 1
    23    8   40 1
    24    8   41 1
    25    9   10 1
    26    9   42 1
    27    9   43 1
    28   10   11 1
    29   10   44 1
    30   11   12 2
    31   11   13 2
    32   11   14 1
    33   14   19 ar
    34   14   15 ar
    35   15   16 ar
    36   15   45 1
    37   16   17 ar
    38   16   46 1
    39   17   26 1
    40   17   18 ar
    41   18   19 ar
    42   18   20 1
    43   19   47 1
    44   20   25 ar
    45   20   21 ar
    46   21   22 ar
    47   21   48 1
    48   22   23 ar
    49   22   49 1
    50   23   24 ar
    51   23   50 1
    52   24   25 ar
    53   24   51 1
    54   25   26 1
    55   27   52 1
    56   28   53 1
    57   28   54 1
    58   28   55 1
@<TRIPOS>MOLECULE
CHEMBL470532__3
   55    58     0     0     0
SMALL
USER_CHARGES

@<TRIPOS>ATOM
      1 C1         -0.0187    1.5267    0.0104 C.3       1 <0>        -0.1486
      2 C2          0.0021   -0.0041    0.0020 C.3       1 <0>        -0.0470
      3 C3         -1.4083   -0.5575   -0.1437 C.3       1 <0>        -0.1396
      4 C4         -2.2105   -0.4484    1.1455 C.3       1 <0>         0.1129
      5 C5         -1.4878   -1.1559    2.2832 C.3       1 <0>        -0.1027
      6 C6         -0.0798   -0.6193    2.4986 C.3       1 <0>        -0.0456
      7 C7          0.7282   -0.5487    1.2170 C.3       1 <0>        -0.0970
      8 C8         -0.1235    0.7406    3.2003 C.3       1 <0>        -0.1476
      9 C9          0.6449   -1.5968    3.4550 C.3       1 <0>         0.1140
     10 N1         -0.0797   -1.6631    4.7265 N.pl3     1 <0>        -1.1134
     11 S1          0.2361   -2.8867    5.7967 S.o2      1 <0>         2.6985
     12 O1         -0.5948   -2.6620    6.9273 O.2       1 <0>        -0.9558
     13 O2          0.1991   -4.0968    5.0525 O.2       1 <0>        -0.9514
     14 C10         1.8983   -2.6833    6.3449 C.ar      1 <0>        -0.6972
     15 C11         2.9340   -3.2906    5.6526 C.ar      1 <0>         0.0068
     16 C12         4.2397   -3.1406    6.0694 C.ar      1 <0>        -0.1299
     17 C13         4.5290   -2.3752    7.1929 C.ar      1 <0>         0.1362
     18 C14         3.4795   -1.7618    7.8907 C.ar      1 <0>        -0.1416
     19 C15         2.1665   -1.9154    7.4585 C.ar      1 <0>         0.0466
     20 C16         4.1129   -1.0389    9.0102 C.ar      1 <0>        -0.1176
     21 C17         3.6295   -0.2485   10.0475 C.ar      1 <0>        -0.0632
     22 C18         4.5092    0.2982   10.9580 C.ar      1 <0>        -0.1305
     23 C19         5.8695    0.0612   10.8399 C.ar      1 <0>        -0.0810
     24 C20         6.3594   -0.7205    9.8151 C.ar      1 <0>        -0.1093
     25 C21         5.4882   -1.2805    8.8881 C.ar      1 <0>         0.0772
     26 O3          5.6915   -2.0686    7.8096 O.3       1 <0>        -0.1950
     27 O4         -2.5041    0.9052    1.4696 O.3       1 <0>        -0.5562
     28 C22         0.7991   -0.4370   -1.2520 C.3       1 <0>        -0.1502
     29 H1          1.0039    1.9040    0.0027 H         1 <0>         0.0493
     30 H2         -0.5459    1.8877   -0.8726 H         1 <0>         0.0488
     31 H3         -0.5289    1.8782    0.9072 H         1 <0>         0.0763
     32 H4         -1.9290   -0.0108   -0.9385 H         1 <0>         0.0639
     33 H5         -1.3526   -1.6100   -0.4449 H         1 <0>         0.0710
     34 H6         -3.1750   -0.9667    0.9861 H         1 <0>         0.0446
     35 H7         -2.0648   -1.0332    3.2072 H         1 <0>         0.0715
     36 H8         -1.4345   -2.2286    2.0639 H         1 <0>         0.0794
     37 H9          1.1005   -1.5595    0.9801 H         1 <0>         0.0621
     38 H10         1.6237    0.0685    1.3985 H         1 <0>         0.0649
     39 H11        -0.6130    0.6343    4.1684 H         1 <0>         0.0514
     40 H12         0.8926    1.1075    3.3453 H         1 <0>         0.0513
     41 H13        -0.6812    1.4482    2.5868 H         1 <0>         0.0842
     42 H14         0.6786   -2.5885    3.0038 H         1 <0>         0.0820
     43 H15         1.6607   -1.2442    3.6336 H         1 <0>         0.0673
     44 H16        -0.7446   -0.9903    4.9415 H         1 <0>         0.4205
     45 H17         2.7163   -3.8871    4.7790 H         1 <0>         0.1557
     46 H18         5.0388   -3.6188    5.5223 H         1 <0>         0.1474
     47 H19         1.3597   -1.4388    7.9955 H         1 <0>         0.1479
     48 H20         2.5694   -0.0634   10.1394 H         1 <0>         0.1339
     49 H21         4.1373    0.9128   11.7645 H         1 <0>         0.1372
     50 H22         6.5521    0.4929   11.5569 H         1 <0>         0.1419
     51 H23         7.4216   -0.8979    9.7325 H         1 <0>         0.1383
     52 H24        -3.0212    1.3677    0.7959 H         1 <0>         0.3757
     53 H25         1.8117   -0.0378   -1.1947 H         1 <0>         0.0544
     54 H26         0.8397   -1.5253   -1.2989 H         1 <0>         0.0534
     55 H27         0.3071   -0.0530   -2.1457 H         1 <0>         0.0538
@<TRIPOS>BOND
     1    1    2 1
     2    1   29 1
     3    1   30 1
     4    1   31 1
     5    2    7 1
     6    2    3 1
     7    2   28 1
     8    3    4 1
     9    3   32 1
    10    3   33 1
    11    4    5 1
    12    4   27 1
    13    4   34 1
    14    5    6 1
    15    5   35 1
    16    5   36 1
    17    6    7 1
    18    6    8 1
    19    6    9 1
    20    7   37 1
    21    7   38 1
    22    8   39 1
    23    8   40 1
    24    8   41 1
    25    9   10 1
    26    9   42 1
    27    9   43 1
    28   10   11 1
    29   10   44 1
    30   11   12 2
    31   11   13 2
    32   11   14 1
    33   14   19 ar
    34   14   15 ar
    35   15   16 ar
    36   15   45 1
    37   16   17 ar
    38   16   46 1
    39   17   26 1
    40   17   18 ar
    41   18   19 ar
    42   18   20 1
    43   19   47 1
    44   20   25 ar
    45   20   21 ar
    46   21   22 ar
    47   21   48 1
    48   22   23 ar
    49   22   49 1
    50   23   24 ar
    51   23   50 1
    52   24   25 ar
    53   24   51 1
    54   25   26 1
    55   27   52 1
    56   28   53 1
    57   28   54 1
    58   28   55 1
@<TRIPOS>MOLECULE
CHEMBL256081
   51    54     0     0     0
SMALL
USER_CHARGES

@<TRIPOS>ATOM
      1 C1          0.0895    1.5855    0.0258 C.ar      1 <0>        -0.1087
      2 C2          1.3367    2.1672   -0.1139 C.ar      1 <0>        -0.1191
      3 C3          2.4704    1.3802   -0.1264 C.ar      1 <0>        -0.1014
      4 C4          2.3570   -0.0026    0.0021 C.ar      1 <0>        -0.0653
      5 C5          1.0982   -0.5832    0.1426 C.ar      1 <0>        -0.1013
      6 C6         -0.0289    0.2133    0.1537 C.ar      1 <0>        -0.1191
      7 C7          3.5724   -0.8538   -0.0111 C.ar      1 <0>         0.0172
      8 C8          4.8316   -0.2728   -0.1463 C.ar      1 <0>        -0.1334
      9 C9          5.9587   -1.0693   -0.1575 C.ar      1 <0>        -0.0145
     10 C10         5.8399   -2.4419   -0.0353 C.ar      1 <0>        -0.6803
     11 C11         4.5923   -3.0241    0.0987 C.ar      1 <0>        -0.0145
     12 C12         3.4590   -2.2366    0.1174 C.ar      1 <0>        -0.1334
     13 S1          7.2831   -3.4527   -0.0509 S.o2      1 <0>         2.6890
     14 O1          6.8685   -4.7461   -0.4690 O.2       1 <0>        -0.9523
     15 O2          8.2873   -2.7163   -0.7355 O.2       1 <0>        -0.9523
     16 N1          7.7927   -3.6030    1.5175 N.pl3     1 <0>        -0.9921
     17 C13         8.7387   -2.6364    2.0925 C.3       1 <0>         0.1047
     18 C14         8.1217   -2.0448    3.3658 C.3       1 <0>         0.1330
     19 N2          7.6356   -3.1468    4.2079 N.pl3     1 <0>        -0.6655
     20 C15         6.6895   -4.1134    3.6330 C.3       1 <0>         0.1329
     21 C16         7.3022   -4.7018    2.3613 C.3       1 <0>         0.1046
     22 C17         8.0633   -3.2729    5.5245 C.ar      1 <0>         0.4318
     23 C18         7.3507   -2.6489    6.5437 C.ar      1 <0>        -0.2406
     24 C19         7.7875   -2.7827    7.8491 C.ar      1 <0>        -0.0223
     25 C20         8.9266   -3.5389    8.0926 C.ar      1 <0>        -0.1785
     26 C21         9.5847   -4.1304    7.0333 C.ar      1 <0>         0.1438
     27 N3          9.1420   -3.9901    5.7980 N.ar      1 <0>        -0.4889
     28 C22         6.1200   -1.8379    6.2294 C.3       1 <0>         0.5223
     29 F1          5.5892   -1.3176    7.4146 F         1 <0>        -0.1792
     30 F2          6.4605   -0.7876    5.3704 F         1 <0>        -0.1720
     31 F3          5.1679   -2.6557    5.6116 F         1 <0>        -0.1720
     32 H1         -0.7948    2.2054    0.0396 H         1 <0>         0.1260
     33 H2          1.4234    3.2390   -0.2138 H         1 <0>         0.1275
     34 H3          3.4437    1.8354   -0.2360 H         1 <0>         0.1276
     35 H4          1.0046   -1.6545    0.2422 H         1 <0>         0.1276
     36 H5         -1.0051   -0.2356    0.2629 H         1 <0>         0.1275
     37 H6          4.9254    0.7988   -0.2425 H         1 <0>         0.1356
     38 H7          6.9352   -0.6200   -0.2622 H         1 <0>         0.1413
     39 H8          4.5053   -4.0964    0.1934 H         1 <0>         0.1413
     40 H9          2.4857   -2.6918    0.2265 H         1 <0>         0.1356
     41 H10         9.6728   -3.1411    2.3390 H         1 <0>         0.0839
     42 H11         8.9293   -1.8393    1.3739 H         1 <0>         0.0989
     43 H12         8.8769   -1.4757    3.9080 H         1 <0>         0.0831
     44 H13         7.2895   -1.3928    3.1003 H         1 <0>         0.0688
     45 H14         6.4989   -4.9105    4.3516 H         1 <0>         0.0835
     46 H15         5.7554   -3.6087    3.3864 H         1 <0>         0.0683
     47 H16         6.5444   -5.2684    1.8202 H         1 <0>         0.0990
     48 H17         8.1317   -5.3569    2.6274 H         1 <0>         0.0836
     49 H18         7.2549   -2.3095    8.6607 H         1 <0>         0.1509
     50 H19         9.2940   -3.6626    9.1006 H         1 <0>         0.1499
     51 H20        10.4712   -4.7190    7.2182 H         1 <0>         0.1678
@<TRIPOS>BOND
     1    1    6 ar
     2    1    2 ar
     3    1   32 1
     4    2    3 ar
     5    2   33 1
     6    3    4 ar
     7    3   34 1
     8    4    5 ar
     9    4    7 1
    10    5    6 ar
    11    5   35 1
    12    6   36 1
    13    7   12 ar
    14    7    8 ar
    15    8    9 ar
    16    8   37 1
    17    9   10 ar
    18    9   38 1
    19   10   11 ar
    20   10   13 1
    21   11   12 ar
    22   11   39 1
    23   12   40 1
    24   13   14 2
    25   13   15 2
    26   13   16 1
    27   16   21 1
    28   16   17 1
    29   17   18 1
    30   17   41 1
    31   17   42 1
    32   18   19 1
    33   18   43 1
    34   18   44 1
    35   19   20 1
    36   19   22 1
    37   20   21 1
    38   20   45 1
    39   20   46 1
    40   21   47 1
    41   21   48 1
    42   22   27 ar
    43   22   23 ar
    44   23   24 ar
    45   23   28 1
    46   24   25 ar
    47   24   49 1
    48   25   26 ar
    49   25   50 1
    50   26   27 ar
    51   26   51 1
    52   28   29 1
    53   28   30 1
    54   28   31 1
@<TRIPOS>MOLECULE
CHEMBL470533
   54    56     0     0     0
SMALL
USER_CHARGES

@<TRIPOS>ATOM
      1 C1         -0.5788    1.1409   -1.0914 C.3       1 <0>        -0.1529
      2 C2         -0.4597   -0.3765   -0.9352 C.3       1 <0>        -0.1229
      3 C3          0.2964   -0.6985    0.3553 C.3       1 <0>        -0.0586
      4 C4          0.4137   -2.1931    0.5092 C.2       1 <0>         0.1192
      5 C5          1.4406   -2.9505    0.0339 C.2       1 <0>        -0.2154
      6 C6          1.1246   -4.3405    0.4207 C.ar      1 <0>        -0.0688
      7 C7          1.7582   -5.5650    0.2389 C.ar      1 <0>        -0.0846
      8 C8          1.1766   -6.7167    0.7416 C.ar      1 <0>         0.1566
      9 C9         -0.0356   -6.6450    1.4239 C.ar      1 <0>        -0.1351
     10 C10        -0.6668   -5.4341    1.6059 C.ar      1 <0>        -0.0620
     11 C11        -0.0954   -4.2690    1.1081 C.ar      1 <0>         0.0449
     12 O1         -0.4725   -2.9729    1.1380 O.3       1 <0>        -0.1718
     13 N1          1.8065   -7.9530    0.5637 N.pl3     1 <0>        -1.0561
     14 S1          1.9533   -8.9987    1.8393 S.o2      1 <0>         2.6895
     15 O2          2.6477  -10.1387    1.3521 O.2       1 <0>        -0.9422
     16 O3          2.4238   -8.2330    2.9400 O.2       1 <0>        -0.9406
     17 C12         0.3297   -9.5393    2.2593 C.ar      1 <0>        -0.6802
     18 C13        -0.2094   -9.2166    3.4908 C.ar      1 <0>        -0.0203
     19 C14        -1.4829   -9.6407    3.8203 C.ar      1 <0>        -0.1079
     20 C15        -2.2179  -10.3873    2.9181 C.ar      1 <0>        -0.0562
     21 C16        -1.6793  -10.7092    1.6866 C.ar      1 <0>        -0.1349
     22 C17        -0.4070  -10.2813    1.3554 C.ar      1 <0>         0.0147
     23 C18         0.1782  -10.6277    0.0106 C.3       1 <0>        -0.1475
     24 C19        -2.0702   -9.2898    5.1630 C.3       1 <0>        -0.1186
     25 C20         2.6179   -2.4824   -0.7095 C.2       1 <0>         0.5466
     26 O4          3.6239   -2.1541   -0.1109 O.2       1 <0>        -0.4856
     27 O5          2.5829   -2.4170   -2.0557 O.3       1 <0>        -0.3422
     28 C21         3.7635   -1.9527   -2.7135 C.3       1 <0>         0.0571
     29 C22         3.5356   -1.9472   -4.2265 C.3       1 <0>        -0.1523
     30 H1          0.4175    1.5810   -1.1345 H         1 <0>         0.0574
     31 H2         -1.1174    1.3703   -2.0109 H         1 <0>         0.0626
     32 H3         -1.1212    1.5523   -0.2402 H         1 <0>         0.0592
     33 H4         -1.4559   -0.8166   -0.8922 H         1 <0>         0.0727
     34 H5          0.0828   -0.7879   -1.7864 H         1 <0>         0.0729
     35 H6          1.2926   -0.2584    0.3123 H         1 <0>         0.1008
     36 H7         -0.2461   -0.2871    1.2065 H         1 <0>         0.0999
     37 H8          2.6977   -5.6174   -0.2912 H         1 <0>         0.1369
     38 H9         -0.4847   -7.5466    1.8135 H         1 <0>         0.1478
     39 H10        -1.6068   -5.3901    2.1359 H         1 <0>         0.1460
     40 H11         2.1572   -8.1977   -0.3069 H         1 <0>         0.4289
     41 H12         0.3647   -8.6334    4.1956 H         1 <0>         0.1461
     42 H13        -3.2128  -10.7193    3.1758 H         1 <0>         0.1334
     43 H14        -2.2533  -11.2927    0.9820 H         1 <0>         0.1351
     44 H15         0.7895  -11.5257    0.1008 H         1 <0>         0.1003
     45 H16        -0.6276  -10.8068   -0.7012 H         1 <0>         0.0864
     46 H17         0.7962   -9.8013   -0.3405 H         1 <0>         0.0649
     47 H18        -2.6021   -8.3411    5.0902 H         1 <0>         0.0758
     48 H19        -2.7633  -10.0722    5.4721 H         1 <0>         0.0709
     49 H20        -1.2699   -9.2022    5.8979 H         1 <0>         0.0721
     50 H21         3.9932   -0.9417   -2.3770 H         1 <0>         0.0706
     51 H22         4.5966   -2.6135   -2.4740 H         1 <0>         0.0700
     52 H23         3.3058   -2.9582   -4.5630 H         1 <0>         0.0674
     53 H24         2.7025   -1.2864   -4.4660 H         1 <0>         0.0677
     54 H25         4.4361   -1.5931   -4.7283 H         1 <0>         0.0820
@<TRIPOS>BOND
     1    1    2 1
     2    1   30 1
     3    1   31 1
     4    1   32 1
     5    2    3 1
     6    2   33 1
     7    2   34 1
     8    3    4 1
     9    3   35 1
    10    3   36 1
    11    4   12 1
    12    4    5 2
    13    5    6 1
    14    5   25 1
    15    6   11 ar
    16    6    7 ar
    17    7    8 ar
    18    7   37 1
    19    8    9 ar
    20    8   13 1
    21    9   10 ar
    22    9   38 1
    23   10   11 ar
    24   10   39 1
    25   11   12 1
    26   13   14 1
    27   13   40 1
    28   14   15 2
    29   14   16 2
    30   14   17 1
    31   17   22 ar
    32   17   18 ar
    33   18   19 ar
    34   18   41 1
    35   19   20 ar
    36   19   24 1
    37   20   21 ar
    38   20   42 1
    39   21   22 ar
    40   21   43 1
    41   22   23 1
    42   23   44 1
    43   23   45 1
    44   23   46 1
    45   24   47 1
    46   24   48 1
    47   24   49 1
    48   25   26 2
    49   25   27 1
    50   27   28 1
    51   28   29 1
    52   28   50 1
    53   28   51 1
    54   29   52 1
    55   29   53 1
    56   29   54 1
@<TRIPOS>MOLECULE
CHEMBL470533__1
   53    55     0     0     0
SMALL
USER_CHARGES

@<TRIPOS>ATOM
      1 C1         -0.0187    1.5258    0.0104 C.3       1 <0>        -0.1501
      2 C2          0.0021   -0.0041    0.0020 C.3       1 <0>        -0.1237
      3 C3          0.7421   -0.5109    1.2415 C.3       1 <0>        -0.0496
      4 C4          0.7625   -2.0177    1.2333 C.2       1 <0>         0.0927
      5 C5          1.7355   -2.7841    0.6674 C.2       1 <0>        -0.2268
      6 C6          1.3316   -4.1844    0.9071 C.ar      1 <0>        -0.0426
      7 C7          1.8831   -5.4205    0.5877 C.ar      1 <0>        -0.1579
      8 C8          1.2302   -6.5798    0.9713 C.ar      1 <0>         0.2786
      9 C9          0.0288   -6.5041    1.6720 C.ar      1 <0>        -0.2161
     10 C10        -0.5213   -5.2818    1.9899 C.ar      1 <0>        -0.0479
     11 C11         0.1223   -4.1090    1.6128 C.ar      1 <0>        -0.0438
     12 O1         -0.1694   -2.8021    1.7856 O.3       1 <0>        -0.1819
     13 N1          1.7773   -7.8277    0.6546 N.2       1 <0>        -1.0810
     14 S1          0.9969   -9.2144    1.1132 S.o2      1 <0>         2.6047
     15 O2          1.0347   -9.2511    2.5332 O.2       1 <0>        -1.0315
     16 O3         -0.2210   -9.2557    0.3822 O.2       1 <0>        -1.0269
     17 C12         1.9695  -10.5707    0.5483 C.ar      1 <0>        -0.6175
     18 C13         2.5574  -11.4271    1.4606 C.ar      1 <0>        -0.0275
     19 C14         3.3203  -12.4910    1.0175 C.ar      1 <0>        -0.1257
     20 C15         3.4952  -12.6991   -0.3381 C.ar      1 <0>        -0.0784
     21 C16         2.9067  -11.8435   -1.2501 C.ar      1 <0>        -0.1486
     22 C17         2.1400  -10.7817   -0.8070 C.ar      1 <0>         0.0216
     23 C18         1.4940   -9.8519   -1.8015 C.3       1 <0>        -0.1626
     24 C19         3.9620  -13.4239    2.0120 C.3       1 <0>        -0.1090
     25 C20         2.9370   -2.3154   -0.0359 C.2       1 <0>         0.5565
     26 O4          3.9652   -2.1186    0.5823 O.2       1 <0>        -0.4998
     27 O5          2.8995   -2.1035   -1.3668 O.3       1 <0>        -0.3432
     28 C21         4.1045   -1.6480   -1.9854 C.3       1 <0>         0.0572
     29 C22         3.8698   -1.4653   -3.4862 C.3       1 <0>        -0.1508
     30 H1          1.0039    1.9031    0.0027 H         1 <0>         0.0545
     31 H2         -0.5459    1.8868   -0.8726 H         1 <0>         0.0579
     32 H3         -0.5289    1.8773    0.9072 H         1 <0>         0.0559
     33 H4         -1.0205   -0.3814    0.0098 H         1 <0>         0.0713
     34 H5          0.5123   -0.3556   -0.8948 H         1 <0>         0.0721
     35 H6          1.7647   -0.1336    1.2338 H         1 <0>         0.0914
     36 H7          0.2319   -0.1594    2.1383 H         1 <0>         0.0903
     37 H8          2.8145   -5.4758    0.0437 H         1 <0>         0.1169
     38 H9         -0.4761   -7.4116    1.9683 H         1 <0>         0.1139
     39 H10        -1.4537   -5.2347    2.5329 H         1 <0>         0.1200
     40 H11         2.4208  -11.2646    2.5196 H         1 <0>         0.1366
     41 H12         4.0920  -13.5300   -0.6843 H         1 <0>         0.1218
     42 H13         3.0436  -12.0058   -2.3090 H         1 <0>         0.1247
     43 H14         2.1758   -9.0323   -2.0286 H         1 <0>         0.0892
     44 H15         1.2666  -10.3993   -2.7162 H         1 <0>         0.0662
     45 H16         0.5725   -9.4514   -1.3791 H         1 <0>         0.1091
     46 H17         3.2784  -14.2431    2.2352 H         1 <0>         0.0668
     47 H18         4.8843  -13.8247    1.5916 H         1 <0>         0.0637
     48 H19         4.1873  -12.8788    2.9286 H         1 <0>         0.0670
     49 H20         4.4013   -0.6959   -1.5455 H         1 <0>         0.0648
     50 H21         4.8940   -2.3829   -1.8279 H         1 <0>         0.0676
     51 H22         3.5729   -2.4174   -3.9261 H         1 <0>         0.0683
     52 H23         3.0803   -0.7304   -3.6436 H         1 <0>         0.0651
     53 H24         4.7889   -1.1178   -3.9580 H         1 <0>         0.0764
@<TRIPOS>BOND
     1    1    2 1
     2    1   30 1
     3    1   31 1
     4    1   32 1
     5    2    3 1
     6    2   33 1
     7    2   34 1
     8    3    4 1
     9    3   35 1
    10    3   36 1
    11    4   12 1
    12    4    5 2
    13    5    6 1
    14    5   25 1
    15    6   11 ar
    16    6    7 ar
    17    7    8 ar
    18    7   37 1
    19    8    9 ar
    20    8   13 1
    21    9   10 ar
    22    9   38 1
    23   10   11 ar
    24   10   39 1
    25   11   12 1
    26   13   14 1
    27   14   15 2
    28   14   16 2
    29   14   17 1
    30   17   22 ar
    31   17   18 ar
    32   18   19 ar
    33   18   40 1
    34   19   20 ar
    35   19   24 1
    36   20   21 ar
    37   20   41 1
    38   21   22 ar
    39   21   42 1
    40   22   23 1
    41   23   43 1
    42   23   44 1
    43   23   45 1
    44   24   46 1
    45   24   47 1
    46   24   48 1
    47   25   26 2
    48   25   27 1
    49   27   28 1
    50   28   29 1
    51   28   49 1
    52   28   50 1
    53   29   51 1
    54   29   52 1
    55   29   53 1
@<TRIPOS>MOLECULE
CHEMBL1085867
   31    33     0     0     0
SMALL
USER_CHARGES

@<TRIPOS>ATOM
      1 C1         -0.1482    1.1171   -0.3274 C.ar      1 <0>        -0.1048
      2 C2          0.9944    1.8939   -0.2733 C.ar      1 <0>        -0.1022
      3 C3          2.2363    1.2938   -0.1995 C.ar      1 <0>        -0.0949
      4 C4          2.3365   -0.0907   -0.1791 C.ar      1 <0>         0.1233
      5 C5          1.1875   -0.8680   -0.2331 C.ar      1 <0>        -0.1097
      6 C6         -0.0516   -0.2622   -0.3073 C.ar      1 <0>        -0.0975
      7 N1          3.5958   -0.7028   -0.1047 N.pl3     1 <0>        -0.2980
      8 C7          3.9374   -1.7852    0.6557 C.2       1 <0>         0.0221
      9 C8          5.2527   -2.0297    0.4134 C.2       1 <0>        -0.0713
     10 N2          5.7036   -1.1322   -0.4625 N.2       1 <0>        -0.2191
     11 N3          4.7555   -0.3299   -0.8008 N.2       1 <0>        -0.0531
     12 S1          2.8802   -2.6877    1.7384 S.3       1 <0>         0.0411
     13 C9          4.0226   -3.6668    2.7518 C.3       1 <0>        -0.1812
     14 C10         3.2355   -4.5834    3.6526 C.2       1 <0>         0.4599
     15 O1          2.0217   -4.5767    3.6147 O.2       1 <0>        -0.4195
     16 C11         3.9099   -5.4506    4.5415 C.2       1 <0>        -0.1231
     17 C12         3.3185   -6.3421    5.4143 C.2       1 <0>        -0.0891
     18 C13         4.3614   -6.9870    6.0925 C.2       1 <0>        -0.2318
     19 C14         5.5221   -6.4775    5.6199 C.2       1 <0>         0.0213
     20 O2          5.2481   -5.5598    4.6850 O.3       1 <0>        -0.1540
     21 H1         -1.1184    1.5886   -0.3809 H         1 <0>         0.1350
     22 H2          0.9158    2.9709   -0.2892 H         1 <0>         0.1380
     23 H3          3.1284    1.9010   -0.1580 H         1 <0>         0.1357
     24 H4          1.2624   -1.9453   -0.2177 H         1 <0>         0.1345
     25 H5         -0.9458   -0.8663   -0.3493 H         1 <0>         0.1389
     26 H6          5.8367   -2.8216    0.8585 H         1 <0>         0.1891
     27 H7          4.6666   -4.2603    2.1028 H         1 <0>         0.1327
     28 H8          4.6343   -2.9988    3.3581 H         1 <0>         0.1330
     29 H9          2.2600   -6.5092    5.5483 H         1 <0>         0.1656
     30 H10         4.2578   -7.7485    6.8514 H         1 <0>         0.1628
     31 H11         6.5112   -6.7678    5.9422 H         1 <0>         0.2164
@<TRIPOS>BOND
     1    1    6 ar
     2    1    2 ar
     3    1   21 1
     4    2    3 ar
     5    2   22 1
     6    3    4 ar
     7    3   23 1
     8    4    5 ar
     9    4    7 1
    10    5    6 ar
    11    5   24 1
    12    6   25 1
    13    7   11 1
    14    7    8 1
    15    8    9 2
    16    8   12 1
    17    9   10 1
    18    9   26 1
    19   10   11 2
    20   12   13 1
    21   13   14 1
    22   13   27 1
    23   13   28 1
    24   14   15 2
    25   14   16 1
    26   16   20 1
    27   16   17 2
    28   17   18 1
    29   17   29 1
    30   18   19 2
    31   18   30 1
    32   19   20 1
    33   19   31 1
@<TRIPOS>MOLECULE
CHEMBL1086347
   37    39     0     0     0
SMALL
USER_CHARGES

@<TRIPOS>ATOM
      1 C1         -0.5880   -0.3639   -0.5240 C.ar      1 <0>        -0.1163
      2 C2          0.4407    0.5591   -0.4977 C.ar      1 <0>        -0.1179
      3 C3          1.7531    0.1296   -0.4341 C.ar      1 <0>        -0.1066
      4 C4          2.0368   -1.2228   -0.3963 C.ar      1 <0>        -0.0831
      5 C5          1.0080   -2.1457   -0.4217 C.ar      1 <0>        -0.1067
      6 C6         -0.3043   -1.7164   -0.4867 C.ar      1 <0>        -0.1179
      7 C7          3.4676   -1.6909   -0.3280 C.3       1 <0>        -0.1201
      8 C8          3.8857   -1.8197    1.1141 C.2       1 <0>         0.3756
      9 O1          3.1026   -1.5583    1.9954 O.2       1 <0>        -0.4173
     10 C9          5.2810   -2.2747    1.4564 C.3       1 <0>        -0.1886
     11 S1          5.4745   -2.3278    3.2592 S.3       1 <0>         0.0340
     12 C10         7.0817   -3.0103    3.4955 C.2       1 <0>         0.0221
     13 C11         8.0602   -3.1285    2.5591 C.2       1 <0>        -0.0721
     14 N1          9.1284   -3.6936    3.1211 N.2       1 <0>        -0.2195
     15 N2          8.8940   -3.9451    4.3615 N.2       1 <0>        -0.0533
     16 N3          7.5903   -3.5190    4.6569 N.pl3     1 <0>        -0.2980
     17 C12         6.9387   -3.6012    5.8958 C.ar      1 <0>         0.1233
     18 C13         6.1643   -2.5406    6.3461 C.ar      1 <0>        -0.1094
     19 C14         5.5237   -2.6245    7.5669 C.ar      1 <0>        -0.0976
     20 C15         5.6536   -3.7632    8.3406 C.ar      1 <0>        -0.1047
     21 C16         6.4242   -4.8212    7.8947 C.ar      1 <0>        -0.1020
     22 C17         7.0622   -4.7456    6.6720 C.ar      1 <0>        -0.0953
     23 H1         -1.6136   -0.0284   -0.5691 H         1 <0>         0.1229
     24 H2          0.2191    1.6157   -0.5272 H         1 <0>         0.1236
     25 H3          2.5569    0.8507   -0.4143 H         1 <0>         0.1208
     26 H4          1.2297   -3.2024   -0.3925 H         1 <0>         0.1205
     27 H5         -1.1081   -2.4375   -0.5069 H         1 <0>         0.1235
     28 H6          3.5569   -2.6594   -0.8200 H         1 <0>         0.1138
     29 H7          4.1108   -0.9679   -0.8296 H         1 <0>         0.1143
     30 H8          5.4505   -3.2690    1.0433 H         1 <0>         0.1302
     31 H9          6.0044   -1.5775    1.0337 H         1 <0>         0.1311
     32 H10         7.9842   -2.8157    1.5282 H         1 <0>         0.1892
     33 H11         6.0631   -1.6507    5.7426 H         1 <0>         0.1338
     34 H12         4.9212   -1.7998    7.9178 H         1 <0>         0.1387
     35 H13         5.1523   -3.8263    9.2952 H         1 <0>         0.1352
     36 H14         6.5241   -5.7092    8.5013 H         1 <0>         0.1381
     37 H15         7.6604   -5.5740    6.3222 H         1 <0>         0.1358
@<TRIPOS>BOND
     1    1    6 ar
     2    1    2 ar
     3    1   23 1
     4    2    3 ar
     5    2   24 1
     6    3    4 ar
     7    3   25 1
     8    4    5 ar
     9    4    7 1
    10    5    6 ar
    11    5   26 1
    12    6   27 1
    13    7    8 1
    14    7   28 1
    15    7   29 1
    16    8    9 2
    17    8   10 1
    18   10   11 1
    19   10   30 1
    20   10   31 1
    21   11   12 1
    22   12   16 1
    23   12   13 2
    24   13   14 1
    25   13   32 1
    26   14   15 2
    27   15   16 1
    28   16   17 1
    29   17   22 ar
    30   17   18 ar
    31   18   19 ar
    32   18   33 1
    33   19   20 ar
    34   19   34 1
    35   20   21 ar
    36   20   35 1
    37   21   22 ar
    38   21   36 1
    39   22   37 1
@<TRIPOS>MOLECULE
CHEMBL374409
   66    69     0     0     0
SMALL
USER_CHARGES

@<TRIPOS>ATOM
      1 C1          0.1056    1.8017   -0.2273 C.3       1 <0>        -0.1372
      2 C2          0.2067    0.2889   -0.0225 C.3       1 <0>         0.0913
      3 C3          1.0934   -0.0036    1.1896 C.3       1 <0>        -0.1660
      4 C4         -1.1691   -0.2793    0.2128 C.2       1 <0>         0.5230
      5 O1         -1.5714   -0.4446    1.3450 O.2       1 <0>        -0.5363
      6 N1         -1.9525   -0.6036   -0.8348 N.am      1 <0>        -0.7081
      7 C5         -3.2876   -1.1549   -0.6065 C.3       1 <0>         0.1563
      8 C6         -3.2089   -2.6707   -0.4171 C.3       1 <0>        -0.0951
      9 C7         -2.5804   -3.3067   -1.6612 C.3       1 <0>        -0.1090
     10 C8         -3.4925   -3.0598   -2.8628 C.3       1 <0>        -0.1209
     11 C9         -3.6997   -1.5628   -3.0700 C.3       1 <0>        -0.1032
     12 C10        -4.1862   -0.8704   -1.8100 C.3       1 <0>        -0.0895
     13 C11        -5.6230   -1.2523   -1.4613 C.3       1 <0>        -0.0774
     14 C12        -5.6701   -2.1464   -0.2252 C.3       1 <0>        -0.1541
     15 C13        -4.6161   -3.2422   -0.2427 C.3       1 <0>        -0.0810
     16 C14        -7.0417   -2.7769   -0.1293 C.2       1 <0>         0.4942
     17 O2         -7.1732   -3.8755    0.3830 O.co2     1 <0>        -0.7000
     18 O3         -8.0158   -2.1866   -0.5643 O.co2     1 <0>        -0.7013
     19 N2          0.7936   -0.3291   -1.2191 N.3       1 <0>        -0.5231
     20 C15         0.8125   -1.7931   -1.1000 C.3       1 <0>         0.0234
     21 C16         1.2604   -2.4048   -2.4317 C.3       1 <0>         0.1261
     22 N3          2.5421   -1.7956   -2.8181 N.pl3     1 <0>        -0.5974
     23 C17         2.6403   -0.3282   -2.8274 C.3       1 <0>         0.1265
     24 C18         2.1382    0.2018   -1.4801 C.3       1 <0>         0.0351
     25 C19         3.6315   -2.5858   -3.1659 C.ar      1 <0>         0.4345
     26 C20         3.4573   -3.9521   -3.3632 C.ar      1 <0>        -0.2410
     27 C21         4.5498   -4.7264   -3.7088 C.ar      1 <0>         0.0176
     28 C22         5.7849   -4.1062   -3.8462 C.ar      1 <0>        -0.3100
     29 C23         5.8855   -2.7459   -3.6354 C.ar      1 <0>         0.2101
     30 N4          4.8246   -2.0308   -3.3117 N.ar      1 <0>        -0.5411
     31 C24         7.0029   -4.9105   -4.2211 C.3       1 <0>         0.5217
     32 F1          7.1294   -4.9435   -5.6139 F         1 <0>        -0.1789
     33 F2          8.1417   -4.3196   -3.6632 F         1 <0>        -0.1790
     34 F3          6.8683   -6.2151   -3.7340 F         1 <0>        -0.1793
     35 H1          1.1007    2.2126   -0.3975 H         1 <0>         0.0685
     36 H2         -0.5261    2.0101   -1.0908 H         1 <0>         0.0704
     37 H3         -0.3298    2.2602    0.6606 H         1 <0>         0.0693
     38 H4          0.6580    0.4549    2.0774 H         1 <0>         0.0760
     39 H5          1.1654   -1.0814    1.3354 H         1 <0>         0.0590
     40 H6          2.0885    0.4073    1.0193 H         1 <0>         0.0629
     41 H7         -1.6308   -0.4713   -1.7403 H         1 <0>         0.4037
     42 H8         -3.7179   -0.6983    0.2862 H         1 <0>         0.0902
     43 H9         -2.6051   -2.9024    0.4574 H         1 <0>         0.0643
     44 H10        -1.5982   -2.8806   -1.8454 H         1 <0>         0.0554
     45 H11        -2.4813   -4.3826   -1.4990 H         1 <0>         0.0576
     46 H12        -3.0234   -3.4840   -3.7568 H         1 <0>         0.0526
     47 H13        -4.4530   -3.5490   -2.7136 H         1 <0>         0.0740
     48 H14        -2.7563   -1.1128   -3.3984 H         1 <0>         0.0503
     49 H15        -4.4333   -1.4146   -3.8724 H         1 <0>         0.0617
     50 H16        -4.1653    0.2205   -1.9879 H         1 <0>         0.0602
     51 H17        -6.2017   -0.3443   -1.2727 H         1 <0>         0.0602
     52 H18        -6.0711   -1.7807   -2.3068 H         1 <0>         0.0612
     53 H19        -5.5241   -1.5225    0.6660 H         1 <0>         0.0571
     54 H20        -4.8288   -3.9549   -1.0396 H         1 <0>         0.0626
     55 H21        -4.6534   -3.7885    0.7095 H         1 <0>         0.0583
     56 H22         1.5083   -2.0851   -0.3134 H         1 <0>         0.0461
     57 H23        -0.1870   -2.1510   -0.8532 H         1 <0>         0.1022
     58 H24         1.3867   -3.4813   -2.3161 H         1 <0>         0.0904
     59 H25         0.5124   -2.2013   -3.1980 H         1 <0>         0.0835
     60 H26         3.6790   -0.0316   -2.9733 H         1 <0>         0.1016
     61 H27         2.0250    0.0750   -3.6317 H         1 <0>         0.0746
     62 H28         2.1000    1.2908   -1.5089 H         1 <0>         0.0948
     63 H29         2.8155   -0.1179   -0.6882 H         1 <0>         0.0460
     64 H30         2.4822   -4.4018   -3.2476 H         1 <0>         0.1446
     65 H31         4.4450   -5.7894   -3.8680 H         1 <0>         0.1448
     66 H32         6.8441   -2.2597   -3.7408 H         1 <0>         0.1654
@<TRIPOS>BOND
     1    1    2 1
     2    1   35 1
     3    1   36 1
     4    1   37 1
     5    2    3 1
     6    2    4 1
     7    2   19 1
     8    3   38 1
     9    3   39 1
    10    3   40 1
    11    4    5 2
    12    4    6 am
    13    6    7 1
    14    6   41 1
    15    7   12 1
    16    7    8 1
    17    7   42 1
    18    8   15 1
    19    8    9 1
    20    8   43 1
    21    9   10 1
    22    9   44 1
    23    9   45 1
    24   10   11 1
    25   10   46 1
    26   10   47 1
    27   11   12 1
    28   11   48 1
    29   11   49 1
    30   12   13 1
    31   12   50 1
    32   13   14 1
    33   13   51 1
    34   13   52 1
    35   14   15 1
    36   14   16 1
    37   14   53 1
    38   15   54 1
    39   15   55 1
    40   16   17 2
    41   16   18 1
    42   19   24 1
    43   19   20 1
    44   20   21 1
    45   20   56 1
    46   20   57 1
    47   21   22 1
    48   21   58 1
    49   21   59 1
    50   22   23 1
    51   22   25 1
    52   23   24 1
    53   23   60 1
    54   23   61 1
    55   24   62 1
    56   24   63 1
    57   25   30 ar
    58   25   26 ar
    59   26   27 ar
    60   26   64 1
    61   27   28 ar
    62   27   65 1
    63   28   29 ar
    64   28   31 1
    65   29   30 ar
    66   29   66 1
    67   31   32 1
    68   31   33 1
    69   31   34 1
@<TRIPOS>MOLECULE
CHEMBL387010
   49    50     0     0     0
SMALL
USER_CHARGES

@<TRIPOS>ATOM
      1 C1          0.4531    1.4737    0.0515 C.3       1 <0>        -0.1379
      2 C2          0.2392   -0.0413    0.0486 C.3       1 <0>         0.0968
      3 C3          1.2624   -0.7026    0.9742 C.3       1 <0>        -0.1965
      4 C4         -1.1529   -0.3530    0.5345 C.2       1 <0>         0.4902
      5 O1         -1.9278   -0.9464   -0.1854 O.2       1 <0>        -0.5099
      6 N1         -1.5367    0.0278    1.7691 N.am      1 <0>        -0.7219
      7 C5         -2.8900   -0.2752    2.2414 C.3       1 <0>         0.1182
      8 C6         -3.8523    0.8151    1.7657 C.3       1 <0>        -0.1293
      9 C7         -5.2930    0.3188    1.9026 C.3       1 <0>        -0.1212
     10 C8         -5.3878   -1.1206    1.3932 C.3       1 <0>        -0.1280
     11 C9         -5.6975   -2.0566    2.5633 C.3       1 <0>         0.0088
     12 C10        -4.4319   -2.2647    3.3975 C.3       1 <0>        -0.1253
     13 C11        -4.1733   -1.0216    4.2508 C.3       1 <0>        -0.1221
     14 C12        -2.8964   -0.3291    3.7706 C.3       1 <0>        -0.1284
     15 C13        -6.1623   -3.3535    2.0446 C.1       1 <0>         0.2036
     16 N2         -6.5210   -4.3543    1.6444 N.1       1 <0>        -0.4297
     17 O2          0.4037   -0.5431   -1.2792 O.3       1 <0>        -0.2824
     18 C14         0.2659   -1.8840   -1.4536 C.ar      1 <0>         0.1446
     19 C15        -0.1468   -2.6830   -0.3973 C.ar      1 <0>        -0.1717
     20 C16        -0.2863   -4.0456   -0.5765 C.ar      1 <0>        -0.0767
     21 C17        -0.0141   -4.6137   -1.8084 C.ar      1 <0>        -0.0696
     22 C18         0.3982   -3.8186   -2.8631 C.ar      1 <0>        -0.0740
     23 C19         0.5324   -2.4547   -2.6896 C.ar      1 <0>        -0.1385
     24 Cl1        -0.1895   -6.3265   -2.0310 Cl        1 <0>        -0.0724
     25 H1          1.4854    1.6953   -0.2195 H         1 <0>         0.0830
     26 H2         -0.2196    1.9369   -0.6703 H         1 <0>         0.0758
     27 H3          0.2460    1.8680    1.0463 H         1 <0>         0.0834
     28 H4          1.0094   -0.4830    2.0114 H         1 <0>         0.0788
     29 H5          1.2501   -1.7812    0.8178 H         1 <0>         0.0850
     30 H6          2.2567   -0.3147    0.7528 H         1 <0>         0.0845
     31 H7         -0.9170    0.5024    2.3449 H         1 <0>         0.3997
     32 H8         -3.2069   -1.2388    1.8425 H         1 <0>         0.1139
     33 H9         -3.7169    1.7098    2.3735 H         1 <0>         0.0685
     34 H10        -3.6469    1.0507    0.7214 H         1 <0>         0.0680
     35 H11        -5.5911    0.3536    2.9505 H         1 <0>         0.0797
     36 H12        -5.9542    0.9562    1.3156 H         1 <0>         0.0707
     37 H13        -6.1827   -1.1917    0.6508 H         1 <0>         0.0721
     38 H14        -4.4397   -1.4084    0.9389 H         1 <0>         0.0900
     39 H15        -6.4750   -1.6145    3.1864 H         1 <0>         0.1172
     40 H16        -4.5631   -3.1303    4.0469 H         1 <0>         0.0740
     41 H17        -3.5833   -2.4333    2.7345 H         1 <0>         0.0814
     42 H18        -5.0154   -0.3357    4.1580 H         1 <0>         0.0831
     43 H19        -4.0571   -1.3149    5.2942 H         1 <0>         0.0745
     44 H20        -2.0274   -0.8878    4.1181 H         1 <0>         0.0709
     45 H21        -2.8604    0.6844    4.1701 H         1 <0>         0.0743
     46 H22        -0.3587   -2.2400    0.5646 H         1 <0>         0.1338
     47 H23        -0.6076   -4.6679    0.2456 H         1 <0>         0.1318
     48 H24         0.6105   -4.2639   -3.8238 H         1 <0>         0.1398
     49 H25         0.8496   -1.8337   -3.5144 H         1 <0>         0.1397
@<TRIPOS>BOND
     1    1    2 1
     2    1   25 1
     3    1   26 1
     4    1   27 1
     5    2    3 1
     6    2    4 1
     7    2   17 1
     8    3   28 1
     9    3   29 1
    10    3   30 1
    11    4    5 2
    12    4    6 am
    13    6    7 1
    14    6   31 1
    15    7   14 1
    16    7    8 1
    17    7   32 1
    18    8    9 1
    19    8   33 1
    20    8   34 1
    21    9   10 1
    22    9   35 1
    23    9   36 1
    24   10   11 1
    25   10   37 1
    26   10   38 1
    27   11   12 1
    28   11   15 1
    29   11   39 1
    30   12   13 1
    31   12   40 1
    32   12   41 1
    33   13   14 1
    34   13   42 1
    35   13   43 1
    36   14   44 1
    37   14   45 1
    38   15   16 3
    39   17   18 1
    40   18   23 ar
    41   18   19 ar
    42   19   20 ar
    43   19   46 1
    44   20   21 ar
    45   20   47 1
    46   21   22 ar
    47   21   24 1
    48   22   23 ar
    49   22   48 1
    50   23   49 1
@<TRIPOS>MOLECULE
CHEMBL238794
   37    39     0     0     0
SMALL
USER_CHARGES

@<TRIPOS>ATOM
      1 C1         -0.0167    1.3781    0.0096 C.ar      1 <0>        -0.0617
      2 C2          1.1709    2.0855    0.0021 C.ar      1 <0>        -0.1387
      3 C3          2.3773    1.4107   -0.0130 C.ar      1 <0>        -0.0241
      4 C4          2.3960    0.0285   -0.0201 C.ar      1 <0>        -0.6652
      5 C5          1.2084   -0.6789   -0.0117 C.ar      1 <0>        -0.0239
      6 C6          0.0021   -0.0041    0.0020 C.ar      1 <0>        -0.1386
      7 S1          3.9337   -0.8316   -0.0405 S.o2      1 <0>         2.5214
      8 O1          3.6411   -2.0831   -0.6466 O.2       1 <0>        -0.9174
      9 O2          4.8465    0.0719   -0.6485 O.2       1 <0>        -0.9174
     10 C7          4.3589   -1.0679    1.7070 C.3       1 <0>        -0.6791
     11 C8          5.6711   -1.8018    1.8100 C.2       1 <0>         0.4661
     12 O3          6.2623   -2.1334    0.8018 O.2       1 <0>        -0.4277
     13 C9          6.2127   -2.1037    3.0766 C.2       1 <0>        -0.1112
     14 C10         7.4053   -2.7642    3.3123 C.2       1 <0>        -0.0839
     15 C11         7.5533   -2.8477    4.6973 C.2       1 <0>        -0.1939
     16 C12         6.4517   -2.2386    5.2579 C.2       1 <0>         0.0752
     17 O4          5.6597   -1.7927    4.2689 O.3       1 <0>        -0.1322
     18 C13         6.1887   -2.0956    6.7030 C.ar      1 <0>        -0.0247
     19 C14         6.2859   -3.2047    7.5471 C.ar      1 <0>        -0.0600
     20 C15         6.0394   -3.0644    8.8962 C.ar      1 <0>        -0.1035
     21 C16         5.6958   -1.8271    9.4164 C.ar      1 <0>        -0.0092
     22 C17         5.5974   -0.7233    8.5865 C.ar      1 <0>        -0.1023
     23 C18         5.8468   -0.8485    7.2344 C.ar      1 <0>        -0.0021
     24 Cl1         5.7302    0.5377    6.1958 Cl        1 <0>        -0.0369
     25 Cl2         5.3867   -1.6601   11.1164 Cl        1 <0>        -0.0430
     26 H1         -0.9591    1.9053    0.0259 H         1 <0>         0.1334
     27 H2          1.1563    3.1654    0.0076 H         1 <0>         0.1357
     28 H3          3.3051    1.9634   -0.0196 H         1 <0>         0.1434
     29 H4          1.2231   -1.7588   -0.0176 H         1 <0>         0.1437
     30 H5         -0.9258   -0.5567    0.0082 H         1 <0>         0.1358
     31 H6          4.4466   -0.0968    2.1942 H         1 <0>         0.1707
     32 H7          3.5776   -1.6502    2.1955 H         1 <0>         0.1717
     33 H8          8.0898   -3.1426    2.5677 H         1 <0>         0.1733
     34 H9          8.3752   -3.3038    5.2291 H         1 <0>         0.1685
     35 H10         6.5533   -4.1701    7.1434 H         1 <0>         0.1530
     36 H11         6.1140   -3.9214    9.5492 H         1 <0>         0.1517
     37 H12         5.3288    0.2383    8.9982 H         1 <0>         0.1532
@<TRIPOS>BOND
     1    1    6 ar
     2    1    2 ar
     3    1   26 1
     4    2    3 ar
     5    2   27 1
     6    3    4 ar
     7    3   28 1
     8    4    5 ar
     9    4    7 1
    10    5    6 ar
    11    5   29 1
    12    6   30 1
    13    7    8 2
    14    7    9 2
    15    7   10 1
    16   10   11 1
    17   10   31 1
    18   10   32 1
    19   11   12 2
    20   11   13 1
    21   13   17 1
    22   13   14 2
    23   14   15 1
    24   14   33 1
    25   15   16 2
    26   15   34 1
    27   16   17 1
    28   16   18 1
    29   18   23 ar
    30   18   19 ar
    31   19   20 ar
    32   19   35 1
    33   20   21 ar
    34   20   36 1
    35   21   22 ar
    36   21   25 1
    37   22   23 ar
    38   22   37 1
    39   23   24 1
@<TRIPOS>MOLECULE
CHEMBL1080557
   60    63     0     0     0
SMALL
USER_CHARGES

@<TRIPOS>ATOM
      1 C1         -0.0187    1.5258    0.0104 C.3       1 <0>        -0.1398
      2 C2          0.0021   -0.0041    0.0020 C.3       1 <0>        -0.0388
      3 C3          0.7421   -0.5109    1.2415 C.3       1 <0>        -0.1409
      4 C4         -1.4333   -0.5336    0.0129 C.3       1 <0>        -0.1478
      5 C5          0.7074   -0.4901   -1.2379 C.ar      1 <0>        -0.0107
      6 C6          0.0361   -1.2843   -2.1485 C.ar      1 <0>        -0.1418
      7 C7          0.6831   -1.7301   -3.2859 C.ar      1 <0>        -0.0163
      8 C8          2.0014   -1.3813   -3.5127 C.ar      1 <0>        -0.6833
      9 C9          2.6724   -0.5863   -2.6025 C.ar      1 <0>        -0.0171
     10 C10         2.0241   -0.1370   -1.4673 C.ar      1 <0>        -0.1362
     11 S1          2.8264   -1.9505   -4.9618 S.o2      1 <0>         2.7081
     12 O1          4.2169   -1.9365   -4.6694 O.2       1 <0>        -0.9500
     13 O2          2.1477   -3.1268   -5.3801 O.2       1 <0>        -0.9502
     14 N1          2.5798   -0.8164   -6.1431 N.pl3     1 <0>        -1.0098
     15 C11         1.4686   -0.7495   -7.1213 C.3       1 <0>         0.1555
     16 H1          0.9577   -1.7066   -7.2262 H         1 <0>         0.1135
     17 C12         2.1384   -0.3029   -8.4396 C.3       1 <0>        -0.1279
     18 C13         3.4245    0.4294   -8.0050 C.3       1 <0>        -0.1283
     19 C14         3.4166    0.3655   -6.4577 C.3       1 <0>         0.1533
     20 H2          4.4219    0.2762   -6.0459 H         1 <0>         0.1211
     21 C15         2.6758    1.6078   -5.9321 C.3       1 <0>        -0.0792
     22 C16         1.3166    1.6526   -6.6006 C.2       1 <0>         0.1503
     23 N2          0.8574    2.7424   -7.0892 N.2       1 <0>        -0.3391
     24 O3         -0.4155    2.7594   -7.7092 O.3       1 <0>        -0.2355
     25 C17        -0.8014    4.0412   -8.2093 C.3       1 <0>         0.1188
     26 C18        -2.1643    3.9431   -8.8446 C.ar      1 <0>        -0.0947
     27 C19        -2.2805    3.6351  -10.1873 C.ar      1 <0>        -0.0962
     28 C20        -3.5307    3.5451  -10.7701 C.ar      1 <0>        -0.1229
     29 C21        -4.6648    3.7625  -10.0102 C.ar      1 <0>        -0.1104
     30 C22        -4.5487    4.0696   -8.6674 C.ar      1 <0>        -0.1232
     31 C23        -3.2986    4.1554   -8.0836 C.ar      1 <0>        -0.0967
     32 C24         0.5134    0.3647   -6.6582 C.3       1 <0>        -0.1314
     33 H3          1.0039    1.9031    0.0027 H         1 <0>         0.0593
     34 H4         -0.5459    1.8868   -0.8726 H         1 <0>         0.0574
     35 H5         -0.5289    1.8773    0.9072 H         1 <0>         0.0637
     36 H6          0.2319   -0.1594    2.1383 H         1 <0>         0.0638
     37 H7          0.7568   -1.6008    1.2356 H         1 <0>         0.0586
     38 H8          1.7647   -0.1336    1.2338 H         1 <0>         0.0596
     39 H9         -1.9605   -0.1726   -0.8702 H         1 <0>         0.0604
     40 H10        -1.4185   -1.6235    0.0069 H         1 <0>         0.0611
     41 H11        -1.9435   -0.1821    0.9097 H         1 <0>         0.0631
     42 H12        -0.9938   -1.5568   -1.9713 H         1 <0>         0.1369
     43 H13         0.1588   -2.3512   -3.9970 H         1 <0>         0.1385
     44 H14         3.7024   -0.3141   -2.7796 H         1 <0>         0.1396
     45 H15         2.5473    0.4872   -0.7580 H         1 <0>         0.1321
     46 H16         2.3848   -1.1702   -9.0521 H         1 <0>         0.0795
     47 H17         1.4832    0.3747   -8.9869 H         1 <0>         0.0792
     48 H18         4.3027   -0.0783   -8.4040 H         1 <0>         0.0806
     49 H19         3.4011    1.4667   -8.3390 H         1 <0>         0.0820
     50 H20         2.5535    1.5351   -4.8514 H         1 <0>         0.0951
     51 H21         3.2395    2.5068   -6.1811 H         1 <0>         0.1005
     52 H22        -0.8341    4.7569   -7.3878 H         1 <0>         0.0640
     53 H23        -0.0771    4.3743   -8.9526 H         1 <0>         0.0650
     54 H24        -1.3944    3.4653  -10.7809 H         1 <0>         0.1235
     55 H25        -3.6214    3.3052  -11.8192 H         1 <0>         0.1253
     56 H26        -5.6416    3.6929  -10.4657 H         1 <0>         0.1243
     57 H27        -5.4348    4.2398   -8.0738 H         1 <0>         0.1249
     58 H28        -3.2080    4.3916   -7.0336 H         1 <0>         0.1226
     59 H29        -0.2997    0.4759   -7.3756 H         1 <0>         0.0969
     60 H30         0.1093    0.1201   -5.6759 H         1 <0>         0.0901
@<TRIPOS>BOND
     1    1    2 1
     2    1   33 1
     3    1   34 1
     4    1   35 1
     5    2    3 1
     6    2    4 1
     7    2    5 1
     8    3   36 1
     9    3   37 1
    10    3   38 1
    11    4   39 1
    12    4   40 1
    13    4   41 1
    14    5   10 ar
    15    5    6 ar
    16    6    7 ar
    17    6   42 1
    18    7    8 ar
    19    7   43 1
    20    8    9 ar
    21    8   11 1
    22    9   10 ar
    23    9   44 1
    24   10   45 1
    25   11   12 2
    26   11   13 2
    27   11   14 1
    28   14   19 1
    29   14   15 1
    30   15   16 1
    31   15   32 1
    32   15   17 1
    33   17   18 1
    34   17   46 1
    35   17   47 1
    36   18   19 1
    37   18   48 1
    38   18   49 1
    39   19   20 1
    40   19   21 1
    41   21   22 1
    42   21   50 1
    43   21   51 1
    44   22   23 2
    45   22   32 1
    46   23   24 1
    47   24   25 1
    48   25   26 1
    49   25   52 1
    50   25   53 1
    51   26   31 ar
    52   26   27 ar
    53   27   28 ar
    54   27   54 1
    55   28   29 ar
    56   28   55 1
    57   29   30 ar
    58   29   56 1
    59   30   31 ar
    60   30   57 1
    61   31   58 1
    62   32   59 1
    63   32   60 1
@<TRIPOS>MOLECULE
CHEMBL222618
   70    75     0     0     0
SMALL
USER_CHARGES

@<TRIPOS>ATOM
      1 C1          0.3036    0.1098    1.7523 C.ar      1 <0>         0.0189
      2 C2          1.3645    0.9206    1.3904 C.ar      1 <0>        -0.2452
      3 C3          2.6491    0.3873    1.3754 C.ar      1 <0>         0.4333
      4 N1          2.8569   -0.8789    1.7024 N.ar      1 <0>        -0.5412
      5 C4          1.8644   -1.6752    2.0514 C.ar      1 <0>         0.2126
      6 C5          0.5643   -1.2119    2.0880 C.ar      1 <0>        -0.3087
      7 C6         -0.5603   -2.1314    2.4889 C.3       1 <0>         0.5213
      8 F1         -1.0698   -2.7681    1.3521 F         1 <0>        -0.1780
      9 F2         -0.0803   -3.0920    3.3856 F         1 <0>        -0.1779
     10 F3         -1.5750   -1.3878    3.1010 F         1 <0>        -0.1792
     11 N2          3.7242    1.1907    1.0133 N.pl3     1 <0>        -0.5994
     12 C7          5.0796    0.6313    0.8988 C.3       1 <0>         0.1299
     13 C8          6.0371    1.5037    1.7175 C.3       1 <0>         0.0374
     14 N3          5.9047    2.9033    1.2915 N.3       1 <0>        -0.5102
     15 C9          4.5547    3.4166    1.5599 C.3       1 <0>         0.0372
     16 C10         3.5355    2.6213    0.7287 C.3       1 <0>         0.1247
     17 C11         6.9248    3.7464    1.9290 C.3       1 <0>         0.0997
     18 C12         6.7709    5.1889    1.4428 C.3       1 <0>        -0.1480
     19 C13         7.8107    5.7149    0.4512 C.3       1 <0>        -0.1665
     20 C14         7.8196    6.2045    1.9008 C.3       1 <0>        -0.1799
     21 C15         8.2959    3.2374    1.5656 C.2       1 <0>         0.5217
     22 O1          8.4365    2.5017    0.6117 O.2       1 <0>        -0.5113
     23 N4          9.3659    3.5997    2.3007 N.am      1 <0>        -0.7257
     24 C16        10.7093    3.1779    1.8962 C.3       1 <0>         0.1568
     25 C17        11.2657    4.1647    0.8677 C.3       1 <0>        -0.0913
     26 C18        11.3348    5.5620    1.4871 C.3       1 <0>        -0.1140
     27 C19        12.2505    5.5320    2.7125 C.3       1 <0>        -0.0841
     28 C20        11.6941    4.5452    3.7409 C.3       1 <0>        -0.1116
     29 C21        11.6250    3.1479    3.1215 C.3       1 <0>        -0.0928
     30 C22        13.0280    2.7073    2.6990 C.3       1 <0>        -0.0854
     31 C23        13.5844    3.6941    1.6706 C.3       1 <0>        -0.0727
     32 C24        13.6535    5.0914    2.2900 C.3       1 <0>        -0.1000
     33 C25        12.6687    3.7241    0.4453 C.3       1 <0>        -0.0984
     34 C26        14.9663    3.2602    1.2545 C.2       1 <0>         0.5265
     35 O2         15.4577    2.2601    1.7334 O.2       1 <0>        -0.5393
     36 N5         15.6560    3.9834    0.3503 N.am      1 <0>        -0.8546
     37 H1         -0.7041    0.4974    1.7773 H         1 <0>         0.1453
     38 H2          1.1975    1.9536    1.1229 H         1 <0>         0.1438
     39 H3          2.0717   -2.7026    2.3119 H         1 <0>         0.1670
     40 H4          5.0895   -0.3871    1.2872 H         1 <0>         0.1023
     41 H5          5.3883    0.6305   -0.1466 H         1 <0>         0.0766
     42 H6          5.7898    1.4207    2.7759 H         1 <0>         0.0349
     43 H7          7.0619    1.1697    1.5558 H         1 <0>         0.0999
     44 H8          4.3281    3.3070    2.6204 H         1 <0>         0.0420
     45 H9          4.5045    4.4699    1.2838 H         1 <0>         0.0962
     46 H10         3.6986    2.8081   -0.3327 H         1 <0>         0.0829
     47 H11         2.5239    2.9191    1.0046 H         1 <0>         0.0920
     48 H12         6.7997    3.7125    3.0113 H         1 <0>         0.0633
     49 H13         5.7453    5.5404    1.3307 H         1 <0>         0.1203
     50 H14         8.6044    5.0333    0.1453 H         1 <0>         0.0998
     51 H15         7.4691    6.4125   -0.3135 H         1 <0>         0.0983
     52 H16         7.4839    7.2242    2.0897 H         1 <0>         0.1018
     53 H17         8.6192    5.8450    2.5485 H         1 <0>         0.0953
     54 H18         9.2466    4.1398    3.0975 H         1 <0>         0.3973
     55 H19        10.6601    2.1824    1.4549 H         1 <0>         0.0914
     56 H20        10.6133    4.1861   -0.0052 H         1 <0>         0.0802
     57 H21        11.7312    6.2650    0.7545 H         1 <0>         0.0656
     58 H22        10.3353    5.8759    1.7881 H         1 <0>         0.0722
     59 H23        12.2997    6.5274    3.1537 H         1 <0>         0.0777
     60 H24        12.3465    4.5238    4.6138 H         1 <0>         0.0711
     61 H25        10.6946    4.8591    4.0419 H         1 <0>         0.0609
     62 H26        11.2287    2.4449    3.8542 H         1 <0>         0.0822
     63 H27        13.6804    2.6859    3.5720 H         1 <0>         0.0772
     64 H28        12.9788    1.7119    2.2578 H         1 <0>         0.0743
     65 H29        14.0498    5.7944    1.5574 H         1 <0>         0.0682
     66 H30        14.3058    5.0700    3.1630 H         1 <0>         0.0699
     67 H31        12.6194    2.7287    0.0040 H         1 <0>         0.0718
     68 H32        13.0650    4.4271   -0.2874 H         1 <0>         0.0712
     69 H33        15.2629    4.7832   -0.0327 H         1 <0>         0.4006
     70 H34        16.5454    3.7041    0.0824 H         1 <0>         0.4020
@<TRIPOS>BOND
     1    1    6 ar
     2    1    2 ar
     3    1   37 1
     4    2    3 ar
     5    2   38 1
     6    3    4 ar
     7    3   11 1
     8    4    5 ar
     9    5    6 ar
    10    5   39 1
    11    6    7 1
    12    7    8 1
    13    7    9 1
    14    7   10 1
    15   11   16 1
    16   11   12 1
    17   12   13 1
    18   12   40 1
    19   12   41 1
    20   13   14 1
    21   13   42 1
    22   13   43 1
    23   14   15 1
    24   14   17 1
    25   15   16 1
    26   15   44 1
    27   15   45 1
    28   16   46 1
    29   16   47 1
    30   17   18 1
    31   17   21 1
    32   17   48 1
    33   18   20 1
    34   18   19 1
    35   18   49 1
    36   19   20 1
    37   19   50 1
    38   19   51 1
    39   20   52 1
    40   20   53 1
    41   21   22 2
    42   21   23 am
    43   23   24 1
    44   23   54 1
    45   24   29 1
    46   24   25 1
    47   24   55 1
    48   25   33 1
    49   25   26 1
    50   25   56 1
    51   26   27 1
    52   26   57 1
    53   26   58 1
    54   27   32 1
    55   27   28 1
    56   27   59 1
    57   28   29 1
    58   28   60 1
    59   28   61 1
    60   29   30 1
    61   29   62 1
    62   30   31 1
    63   30   63 1
    64   30   64 1
    65   31   32 1
    66   31   33 1
    67   31   34 1
    68   32   65 1
    69   32   66 1
    70   33   67 1
    71   33   68 1
    72   34   35 2
    73   34   36 am
    74   36   69 1
    75   36   70 1
@<TRIPOS>MOLECULE
CHEMBL222319
   58    61     0     0     0
SMALL
USER_CHARGES

@<TRIPOS>ATOM
      1 C1         -0.0187    1.5258    0.0104 C.3       1 <0>        -0.1457
      2 C2          0.0021   -0.0041    0.0020 C.3       1 <0>        -0.1123
      3 C3          0.7421   -0.5109    1.2415 C.3       1 <0>         0.0678
      4 C4          0.6567   -2.0144    1.2978 C.2       1 <0>         0.4869
      5 O1          1.6702   -2.6804    1.2811 O.2       1 <0>        -0.5350
      6 N1         -0.5459   -2.6190    1.3666 N.am      1 <0>        -0.7182
      7 C5         -0.6288   -4.0807    1.4212 C.3       1 <0>         0.1548
      8 C6         -0.4755   -4.5463    2.8706 C.3       1 <0>        -0.0916
      9 C7         -1.5928   -3.9399    3.7220 C.3       1 <0>        -0.1081
     10 C8         -2.9500   -4.3943    3.1812 C.3       1 <0>        -0.0844
     11 C9         -3.1033   -3.9286    1.7318 C.3       1 <0>        -0.1116
     12 C10        -1.9860   -4.5350    0.8804 C.3       1 <0>        -0.0927
     13 C11        -2.0727   -6.0615    0.9375 C.3       1 <0>        -0.0855
     14 C12        -1.9194   -6.5272    2.3868 C.3       1 <0>        -0.0730
     15 C13        -3.0366   -5.9207    3.2382 C.3       1 <0>        -0.1003
     16 C14        -0.5622   -6.0728    2.9276 C.3       1 <0>        -0.0982
     17 C15        -2.0047   -8.0307    2.4430 C.2       1 <0>         0.5265
     18 O2         -2.1717   -8.6671    1.4242 O.2       1 <0>        -0.5392
     19 N2         -1.8955   -8.6681    3.6255 N.am      1 <0>        -0.8546
     20 N3          2.1515   -0.1027    1.1714 N.3       1 <0>        -0.4975
     21 C16         2.8058   -0.6715   -0.0138 C.3       1 <0>         0.0234
     22 C17         4.2247   -0.1109   -0.1332 C.3       1 <0>        -0.1131
     23 C18         5.0161   -0.4648    1.1289 C.3       1 <0>        -0.1596
     24 C19         4.2880    0.0976    2.3529 C.3       1 <0>         0.2959
     25 C20         2.8672   -0.4691    2.4002 C.3       1 <0>         0.0067
     26 F1          4.9759   -0.2686    3.5147 F         1 <0>        -0.2006
     27 F2          4.2316    1.4926    2.2626 F         1 <0>        -0.1911
     28 H1          1.0039    1.9031    0.0027 H         1 <0>         0.0707
     29 H2         -0.5459    1.8868   -0.8726 H         1 <0>         0.0546
     30 H3         -0.5289    1.8773    0.9072 H         1 <0>         0.0544
     31 H4         -1.0205   -0.3814    0.0098 H         1 <0>         0.0704
     32 H5          0.5123   -0.3556   -0.8948 H         1 <0>         0.0729
     33 H6          0.2852   -0.0874    2.1360 H         1 <0>         0.1119
     34 H7         -1.3564   -2.0864    1.3799 H         1 <0>         0.3999
     35 H8          0.1671   -4.5127    0.8147 H         1 <0>         0.0897
     36 H9          0.4914   -4.2227    3.2559 H         1 <0>         0.0795
     37 H10        -1.4835   -4.2717    4.7545 H         1 <0>         0.0658
     38 H11        -1.5310   -2.8524    3.6813 H         1 <0>         0.0646
     39 H12        -3.7459   -3.9622    3.7877 H         1 <0>         0.0783
     40 H13        -4.0702   -4.2523    1.3466 H         1 <0>         0.0715
     41 H14        -3.0415   -2.8411    1.6912 H         1 <0>         0.0626
     42 H15        -2.0952   -4.2032   -0.1521 H         1 <0>         0.0827
     43 H16        -3.0396   -6.3852    0.5522 H         1 <0>         0.0776
     44 H17        -1.2767   -6.4935    0.3309 H         1 <0>         0.0738
     45 H18        -2.9274   -6.2525    4.2708 H         1 <0>         0.0682
     46 H19        -4.0035   -6.2444    2.8530 H         1 <0>         0.0707
     47 H20         0.2338   -6.5049    2.3211 H         1 <0>         0.0713
     48 H21        -0.4530   -6.4046    3.9602 H         1 <0>         0.0711
     49 H22        -1.7619   -8.1591    4.4404 H         1 <0>         0.4007
     50 H23        -1.9504   -9.6359    3.6617 H         1 <0>         0.4022
     51 H24         2.8508   -1.7564    0.0817 H         1 <0>         0.0790
     52 H25         2.2353   -0.4089   -0.9047 H         1 <0>         0.0827
     53 H26         4.7155   -0.5451   -1.0042 H         1 <0>         0.0821
     54 H27         4.1798    0.9727   -0.2427 H         1 <0>         0.0786
     55 H28         5.0944   -1.5484    1.2178 H         1 <0>         0.0928
     56 H29         6.0138   -0.0304    1.0671 H         1 <0>         0.0879
     57 H30         2.3414   -0.0595    3.2627 H         1 <0>         0.0912
     58 H31         2.9119   -1.5549    2.4844 H         1 <0>         0.0910
@<TRIPOS>BOND
     1    1    2 1
     2    1   28 1
     3    1   29 1
     4    1   30 1
     5    2    3 1
     6    2   31 1
     7    2   32 1
     8    3    4 1
     9    3   20 1
    10    3   33 1
    11    4    5 2
    12    4    6 am
    13    6    7 1
    14    6   34 1
    15    7   12 1
    16    7    8 1
    17    7   35 1
    18    8   16 1
    19    8    9 1
    20    8   36 1
    21    9   10 1
    22    9   37 1
    23    9   38 1
    24   10   15 1
    25   10   11 1
    26   10   39 1
    27   11   12 1
    28   11   40 1
    29   11   41 1
    30   12   13 1
    31   12   42 1
    32   13   14 1
    33   13   43 1
    34   13   44 1
    35   14   15 1
    36   14   16 1
    37   14   17 1
    38   15   45 1
    39   15   46 1
    40   16   47 1
    41   16   48 1
    42   17   18 2
    43   17   19 am
    44   19   49 1
    45   19   50 1
    46   20   25 1
    47   20   21 1
    48   21   22 1
    49   21   51 1
    50   21   52 1
    51   22   23 1
    52   22   53 1
    53   22   54 1
    54   23   24 1
    55   23   55 1
    56   23   56 1
    57   24   25 1
    58   24   26 1
    59   24   27 1
    60   25   57 1
    61   25   58 1
@<TRIPOS>MOLECULE
CHEMBL222319__1
   59    62     0     0     0
SMALL
USER_CHARGES

@<TRIPOS>ATOM
      1 C1          0.1089    1.2945    0.8734 C.3       1 <0>        -0.1763
      2 C2         -0.0317   -0.2168    0.6810 C.3       1 <0>        -0.1444
      3 C3         -1.4266   -0.5342    0.1385 C.3       1 <0>         0.0039
      4 C4         -1.5448   -2.0164   -0.1069 C.2       1 <0>         0.5090
      5 O1         -2.1699   -2.7112    0.6660 O.2       1 <0>        -0.5226
      6 N1         -0.9558   -2.5699   -1.1854 N.am      1 <0>        -0.6882
      7 C5         -1.0707   -4.0108   -1.4241 C.3       1 <0>         0.1517
      8 C6         -2.3748   -4.3019   -2.1694 C.3       1 <0>        -0.0907
      9 C7         -2.3730   -3.5617   -3.5085 C.3       1 <0>        -0.1101
     10 C8         -1.1871   -4.0352   -4.3514 C.3       1 <0>        -0.0861
     11 C9          0.1169   -3.7441   -3.6060 C.3       1 <0>        -0.1136
     12 C10         0.1151   -4.4843   -2.2670 C.3       1 <0>        -0.0928
     13 C11        -0.0048   -5.9891   -2.5162 C.3       1 <0>        -0.0878
     14 C12        -1.3089   -6.2802   -3.2615 C.3       1 <0>        -0.0737
     15 C13        -1.3071   -5.5400   -4.6006 C.3       1 <0>        -0.1040
     16 C14        -2.4947   -5.8067   -2.4187 C.3       1 <0>        -0.1002
     17 C15        -1.4271   -7.7624   -3.5070 C.2       1 <0>         0.5244
     18 O2         -0.5542   -8.5120   -3.1236 O.2       1 <0>        -0.5351
     19 N2         -2.5028   -8.2548   -4.1527 N.am      1 <0>        -0.8532
     20 N3         -2.4393   -0.1178    1.1178 N.4       1 <0>        -0.3604
     21 C16        -2.1443   -0.7342    2.4168 C.3       1 <0>        -0.0446
     22 C17        -3.1487   -0.2400    3.4601 C.3       1 <0>        -0.1389
     23 C18        -4.5642   -0.6250    3.0204 C.3       1 <0>        -0.1767
     24 C19        -4.8339   -0.0386    1.6316 C.3       1 <0>         0.2896
     25 C20        -3.7671   -0.5403    0.6561 C.3       1 <0>        -0.0668
     26 F1         -6.0981   -0.4444    1.1906 F         1 <0>        -0.1634
     27 F2         -4.7873    1.3581    1.6972 F         1 <0>        -0.1857
     28 H1          1.1349    1.5310    1.1553 H         1 <0>         0.0930
     29 H2         -0.1386    1.8039   -0.0579 H         1 <0>         0.0762
     30 H3         -0.5694    1.6254    1.6599 H         1 <0>         0.0575
     31 H4          0.7211   -0.5646   -0.0264 H         1 <0>         0.1189
     32 H5          0.1091   -0.7195    1.6379 H         1 <0>         0.1014
     33 H6         -1.5835    0.0026   -0.7970 H         1 <0>         0.1627
     34 H7         -0.4558   -2.0143   -1.8036 H         1 <0>         0.4100
     35 H8         -1.0720   -4.5381   -0.4701 H         1 <0>         0.1016
     36 H9         -3.2196   -3.9646   -1.5690 H         1 <0>         0.0794
     37 H10        -3.3020   -3.7691   -4.0395 H         1 <0>         0.0723
     38 H11        -2.2875   -2.4897   -3.3309 H         1 <0>         0.0597
     39 H12        -1.1859   -3.5079   -5.3053 H         1 <0>         0.0827
     40 H13         0.9617   -4.0815   -4.2065 H         1 <0>         0.0784
     41 H14         0.2024   -2.6721   -3.4284 H         1 <0>         0.0594
     42 H15         1.0442   -4.2769   -1.7359 H         1 <0>         0.0867
     43 H16         0.8400   -6.3264   -3.1167 H         1 <0>         0.0838
     44 H17        -0.0061   -6.5164   -1.5622 H         1 <0>         0.0771
     45 H18        -2.2362   -5.7474   -5.1316 H         1 <0>         0.0719
     46 H19        -0.4623   -5.8774   -5.2011 H         1 <0>         0.0750
     47 H20        -2.4960   -6.3340   -1.4647 H         1 <0>         0.0748
     48 H21        -3.4238   -6.0141   -2.9497 H         1 <0>         0.0769
     49 H22        -3.2008   -7.6553   -4.4594 H         1 <0>         0.4004
     50 H23        -2.5788   -9.2089   -4.3107 H         1 <0>         0.4055
     51 H24        -2.2162   -1.8183    2.3288 H         1 <0>         0.1682
     52 H25        -1.1354   -0.4620    2.7269 H         1 <0>         0.1404
     53 H26        -2.9290   -0.7002    4.4234 H         1 <0>         0.1308
     54 H27        -3.0774    0.8440    3.5491 H         1 <0>         0.0955
     55 H28        -4.6509   -1.7108    2.9806 H         1 <0>         0.1188
     56 H29        -5.2878   -0.2262    3.7313 H         1 <0>         0.1207
     57 H30        -3.9563   -0.1248   -0.3337 H         1 <0>         0.1487
     58 H31        -3.8045   -1.6284    0.6056 H         1 <0>         0.1796
     59 H32        -2.4211    0.8866    1.2125 H         1 <0>         0.4289
@<TRIPOS>BOND
     1    1    2 1
     2    1   28 1
     3    1   29 1
     4    1   30 1
     5    2    3 1
     6    2   31 1
     7    2   32 1
     8    3    4 1
     9    3   20 1
    10    3   33 1
    11    4    5 2
    12    4    6 am
    13    6    7 1
    14    6   34 1
    15    7   12 1
    16    7    8 1
    17    7   35 1
    18    8   16 1
    19    8    9 1
    20    8   36 1
    21    9   10 1
    22    9   37 1
    23    9   38 1
    24   10   15 1
    25   10   11 1
    26   10   39 1
    27   11   12 1
    28   11   40 1
    29   11   41 1
    30   12   13 1
    31   12   42 1
    32   13   14 1
    33   13   43 1
    34   13   44 1
    35   14   15 1
    36   14   16 1
    37   14   17 1
    38   15   45 1
    39   15   46 1
    40   16   47 1
    41   16   48 1
    42   17   18 2
    43   17   19 am
    44   19   49 1
    45   19   50 1
    46   20   25 1
    47   20   21 1
    48   20   59 1
    49   21   22 1
    50   21   51 1
    51   21   52 1
    52   22   23 1
    53   22   53 1
    54   22   54 1
    55   23   24 1
    56   23   55 1
    57   23   56 1
    58   24   25 1
    59   24   26 1
    60   24   27 1
    61   25   57 1
    62   25   58 1
@<TRIPOS>MOLECULE
CHEMBL371262
   62    67     0     0     0
SMALL
USER_CHARGES

@<TRIPOS>ATOM
      1 C1          0.4263    1.1880   -0.8604 C.3       1 <0>         0.0458
      2 N1          0.3760   -0.2752   -0.9128 N.am      1 <0>        -0.4915
      3 C2         -0.7978   -0.9078   -0.7068 C.2       1 <0>         0.1957
      4 C3         -0.8706   -2.2705   -0.7505 C.2       1 <0>        -0.1461
      5 C4          0.2938   -3.0250   -1.0144 C.2       1 <0>         0.0159
      6 C5          1.4716   -2.3739   -1.2209 C.2       1 <0>        -0.2365
      7 C6          1.5003   -0.9684   -1.1714 C.2       1 <0>         0.5137
      8 O1          2.5499   -0.3752   -1.3596 O.2       1 <0>        -0.5344
      9 C7         -2.1662   -2.9552   -0.5214 C.2       1 <0>         0.3184
     10 N2         -2.3636   -4.2859   -0.5334 N.2       1 <0>        -0.5335
     11 C8         -3.6160   -4.5531   -0.2961 C.2       1 <0>         0.3105
     12 O2         -4.2714   -3.3982   -0.1223 O.3       1 <0>        -0.0952
     13 N3         -3.3088   -2.3649   -0.2679 N.2       1 <0>        -0.3486
     14 C9         -4.2251   -5.9299   -0.2290 C.3       1 <0>         0.0293
     15 C10        -4.0287   -6.6405   -1.5696 C.3       1 <0>        -0.1007
     16 C11        -4.6471   -8.0383   -1.5014 C.3       1 <0>        -0.1085
     17 C12        -5.2558   -8.2596   -0.1153 C.3       1 <0>         0.0302
     18 C13        -6.3391   -7.2096    0.1395 C.3       1 <0>        -0.0935
     19 C14        -5.7207   -5.8118    0.0713 C.3       1 <0>        -0.1152
     20 C15        -4.1628   -8.1330    0.9478 C.3       1 <0>        -0.1102
     21 C16        -3.5444   -6.7352    0.8796 C.3       1 <0>        -0.1005
     22 C17        -5.8649   -9.6363   -0.0481 C.2       1 <0>         0.2004
     23 N4         -7.1316   -9.9143    0.1071 N.2       1 <0>        -0.2731
     24 N5         -7.3051  -11.1879    0.1210 N.2       1 <0>        -0.2546
     25 C18        -6.1483  -11.7946   -0.0260 C.2       1 <0>         0.1914
     26 N6         -5.1968  -10.8180   -0.1440 N.pl3     1 <0>        -0.4639
     27 C19        -3.7561  -11.0059   -0.3321 C.3       1 <0>         0.0492
     28 C20        -5.9193  -13.2557   -0.0632 C.ar      1 <0>         0.0364
     29 C21        -4.6186  -13.7610   -0.0704 C.ar      1 <0>        -0.1271
     30 C22        -4.4117  -15.1245   -0.1047 C.ar      1 <0>        -0.0827
     31 C23        -5.4905  -15.9905   -0.1318 C.ar      1 <0>        -0.1080
     32 C24        -6.7823  -15.4959   -0.1253 C.ar      1 <0>        -0.0678
     33 C25        -7.0027  -14.1342   -0.0853 C.ar      1 <0>        -0.1485
     34 C26        -8.4107  -13.5972   -0.0715 C.3       1 <0>         0.5145
     35 F1         -9.3165  -14.6630   -0.0984 F         1 <0>        -0.1835
     36 F2         -8.6111  -12.8441    1.0903 F         1 <0>        -0.1572
     37 F3         -8.6115  -12.7861   -1.1935 F         1 <0>        -0.1663
     38 H1          1.4452    1.5238   -1.0534 H         1 <0>         0.1098
     39 H2         -0.2418    1.6018   -1.6157 H         1 <0>         0.0862
     40 H3          0.1129    1.5271    0.1270 H         1 <0>         0.0862
     41 H4         -1.6882   -0.3308   -0.5050 H         1 <0>         0.1736
     42 H5          0.2506   -4.1035   -1.0515 H         1 <0>         0.1507
     43 H6          2.3743   -2.9309   -1.4239 H         1 <0>         0.1599
     44 H7         -4.5136   -6.0667   -2.3594 H         1 <0>         0.0773
     45 H8         -2.9632   -6.7246   -1.7836 H         1 <0>         0.0868
     46 H9         -5.4257   -8.1284   -2.2588 H         1 <0>         0.0805
     47 H10        -3.8753   -8.7863   -1.6830 H         1 <0>         0.0719
     48 H11        -7.1178   -7.2998   -0.6179 H         1 <0>         0.0845
     49 H12        -6.7728   -7.3673    1.1270 H         1 <0>         0.0821
     50 H13        -5.8607   -5.3056    1.0265 H         1 <0>         0.0810
     51 H14        -6.2057   -5.2381   -0.7184 H         1 <0>         0.0813
     52 H15        -4.5965   -8.2907    1.9353 H         1 <0>         0.0791
     53 H16        -3.3910   -8.8810    0.7663 H         1 <0>         0.0724
     54 H17        -2.4789   -6.8194    0.6657 H         1 <0>         0.0868
     55 H18        -3.6843   -6.2290    1.8348 H         1 <0>         0.0769
     56 H19        -3.2834  -11.1814    0.6343 H         1 <0>         0.0912
     57 H20        -3.5834  -11.8635   -0.9822 H         1 <0>         0.1008
     58 H21        -3.3297  -10.1125   -0.7882 H         1 <0>         0.1041
     59 H22        -3.7757  -13.0861   -0.0496 H         1 <0>         0.1432
     60 H23        -3.4055  -15.5168   -0.1107 H         1 <0>         0.1407
     61 H24        -5.3233  -17.0571   -0.1586 H         1 <0>         0.1417
     62 H25        -7.6202  -16.1770   -0.1473 H         1 <0>         0.1477
@<TRIPOS>BOND
     1    1    2 1
     2    1   38 1
     3    1   39 1
     4    1   40 1
     5    2    7 am
     6    2    3 1
     7    3    4 2
     8    3   41 1
     9    4    5 1
    10    4    9 1
    11    5    6 2
    12    5   42 1
    13    6    7 1
    14    6   43 1
    15    7    8 2
    16    9   13 2
    17    9   10 1
    18   10   11 2
    19   11   12 1
    20   11   14 1
    21   12   13 1
    22   14   19 1
    23   14   21 1
    24   14   15 1
    25   15   16 1
    26   15   44 1
    27   15   45 1
    28   16   17 1
    29   16   46 1
    30   16   47 1
    31   17   18 1
    32   17   20 1
    33   17   22 1
    34   18   19 1
    35   18   48 1
    36   18   49 1
    37   19   50 1
    38   19   51 1
    39   20   21 1
    40   20   52 1
    41   20   53 1
    42   21   54 1
    43   21   55 1
    44   22   26 1
    45   22   23 2
    46   23   24 1
    47   24   25 2
    48   25   26 1
    49   25   28 1
    50   26   27 1
    51   27   56 1
    52   27   57 1
    53   27   58 1
    54   28   33 ar
    55   28   29 ar
    56   29   30 ar
    57   29   59 1
    58   30   31 ar
    59   30   60 1
    60   31   32 ar
    61   31   61 1
    62   32   33 ar
    63   32   62 1
    64   33   34 1
    65   34   35 1
    66   34   36 1
    67   34   37 1
@<TRIPOS>MOLECULE
CHEMBL260262
   55    58     0     0     0
SMALL
USER_CHARGES

@<TRIPOS>ATOM
      1 C1          0.8316    1.0315    0.6428 C.3       1 <0>        -0.1318
      2 C2          0.5834   -0.4645    0.3958 C.3       1 <0>        -0.0681
      3 C3         -0.9294   -0.8167    0.3760 C.3       1 <0>        -0.1241
      4 C4         -0.8667   -2.1833   -0.3514 C.3       1 <0>         0.1411
      5 H1         -1.8427   -2.4657   -0.7663 H         1 <0>         0.0982
      6 C5         -0.3505   -3.2085    0.6553 C.3       1 <0>        -0.1180
      7 C6          0.9823   -2.8382    1.2805 C.3       1 <0>        -0.0520
      8 C7          1.2441   -1.3532    1.4481 C.3       1 <0>        -0.0967
      9 C8          2.1264   -3.4903    0.4911 C.3       1 <0>        -0.1432
     10 C9          1.0130   -3.4701    2.6950 C.3       1 <0>        -0.1472
     11 N1          0.1397   -1.9999   -1.4160 N.am      1 <0>        -0.6042
     12 C10         1.0426   -0.9117   -1.0103 C.3       1 <0>         0.1015
     13 C11         0.2136   -2.6990   -2.5664 C.2       1 <0>         0.5822
     14 O1         -0.5356   -3.6370   -2.7568 O.2       1 <0>        -0.5248
     15 C12         1.2060   -2.3248   -3.5964 C.ar      1 <0>        -0.1828
     16 C13         1.8762   -3.3107   -4.3308 C.ar      1 <0>         0.0046
     17 C14         2.7951   -2.9077   -5.2835 C.ar      1 <0>        -0.1478
     18 C15         3.0203   -1.5566   -5.4781 C.ar      1 <0>         0.1479
     19 N2          2.3738   -0.6496   -4.7711 N.ar      1 <0>        -0.4817
     20 C16         1.4863   -0.9831   -3.8570 C.ar      1 <0>         0.1388
     21 C17         3.5431   -3.9298   -6.1001 C.3       1 <0>         0.1129
     22 O2          2.8042   -4.2246   -7.2871 O.3       1 <0>        -0.3104
     23 C18         3.3442   -5.1349   -8.1403 C.ar      1 <0>         0.1118
     24 C19         4.2002   -4.7187   -9.1504 C.ar      1 <0>        -0.0455
     25 C20         4.7480   -5.6467  -10.0166 C.ar      1 <0>        -0.0942
     26 C21         4.4437   -6.9882   -9.8773 C.ar      1 <0>        -0.0972
     27 C22         3.5913   -7.4057   -8.8721 C.ar      1 <0>        -0.0941
     28 C23         3.0451   -6.4828   -7.9993 C.ar      1 <0>        -0.0464
     29 Cl1         1.9810   -7.0088   -6.7325 Cl        1 <0>        -0.0400
     30 Cl2         4.5824   -3.0344   -9.3264 Cl        1 <0>        -0.0420
     31 H2          1.9031    1.2303    0.6226 H         1 <0>         0.0614
     32 H3          0.3391    1.6148   -0.1353 H         1 <0>         0.0626
     33 H4          0.4285    1.3108    1.6163 H         1 <0>         0.0649
     34 H5         -1.3266   -0.9196    1.3852 H         1 <0>         0.0896
     35 H6         -1.4987   -0.0860   -0.1982 H         1 <0>         0.0776
     36 H7         -1.0971   -3.3302    1.4549 H         1 <0>         0.0721
     37 H8         -0.2568   -4.1856    0.1607 H         1 <0>         0.0675
     38 H9          2.3313   -1.1783    1.4298 H         1 <0>         0.0640
     39 H10         0.8967   -1.0408    2.4458 H         1 <0>         0.0665
     40 H11         2.1024   -3.1391   -0.5405 H         1 <0>         0.0536
     41 H12         3.0804   -3.2209    0.9444 H         1 <0>         0.0531
     42 H13         2.0088   -4.5738    0.5089 H         1 <0>         0.0528
     43 H14         0.9150   -4.5525    2.6117 H         1 <0>         0.0543
     44 H15         1.9580   -3.2272    3.1811 H         1 <0>         0.0545
     45 H16         0.1877   -3.0751    3.2874 H         1 <0>         0.0549
     46 H17         0.9421   -0.0770   -1.7108 H         1 <0>         0.0690
     47 H18         2.0746   -1.2457   -0.9944 H         1 <0>         0.0762
     48 H19         1.6811   -4.3588   -4.1579 H         1 <0>         0.1446
     49 H20         3.7372   -1.2392   -6.2208 H         1 <0>         0.1628
     50 H21         0.9739   -0.2114   -3.3016 H         1 <0>         0.1663
     51 H22         4.5218   -3.5332   -6.3704 H         1 <0>         0.0738
     52 H23         3.6692   -4.8407   -5.5150 H         1 <0>         0.0712
     53 H24         5.4139   -5.3234  -10.8030 H         1 <0>         0.1465
     54 H25         4.8725   -7.7113  -10.5554 H         1 <0>         0.1475
     55 H26         3.3551   -8.4542   -8.7658 H         1 <0>         0.1463
@<TRIPOS>BOND
     1    1    2 1
     2    1   31 1
     3    1   32 1
     4    1   33 1
     5    2    8 1
     6    2   12 1
     7    2    3 1
     8    3    4 1
     9    3   34 1
    10    3   35 1
    11    4    5 1
    12    4    6 1
    13    4   11 1
    14    6    7 1
    15    6   36 1
    16    6   37 1
    17    7    8 1
    18    7    9 1
    19    7   10 1
    20    8   38 1
    21    8   39 1
    22    9   40 1
    23    9   41 1
    24    9   42 1
    25   10   43 1
    26   10   44 1
    27   10   45 1
    28   11   12 1
    29   11   13 am
    30   12   46 1
    31   12   47 1
    32   13   14 2
    33   13   15 1
    34   15   20 ar
    35   15   16 ar
    36   16   17 ar
    37   16   48 1
    38   17   18 ar
    39   17   21 1
    40   18   19 ar
    41   18   49 1
    42   19   20 ar
    43   20   50 1
    44   21   22 1
    45   21   51 1
    46   21   52 1
    47   22   23 1
    48   23   28 ar
    49   23   24 ar
    50   24   25 ar
    51   24   30 1
    52   25   26 ar
    53   25   53 1
    54   26   27 ar
    55   26   54 1
    56   27   28 ar
    57   27   55 1
    58   28   29 1
@<TRIPOS>MOLECULE
CHEMBL497121
   50    54     0     0     0
SMALL
USER_CHARGES

@<TRIPOS>ATOM
      1 C1         -1.0201    1.3523    0.2280 C.3       1 <0>         0.0656
      2 N1         -0.3628    0.0475    0.1211 N.pl3     1 <0>        -0.4627
      3 C2          0.1336   -0.5366   -1.0133 C.2       1 <0>         0.2034
      4 N2          0.6359   -1.6989   -0.6582 N.2       1 <0>        -0.2505
      5 N3          0.4839   -1.8686    0.6068 N.2       1 <0>        -0.2810
      6 C3         -0.1141   -0.8316    1.1296 C.2       1 <0>         0.2053
      7 C4         -0.4667   -0.6443    2.5828 C.3       1 <0>         0.0357
      8 C5         -0.4097   -1.9439    3.4029 C.3       1 <0>        -0.1061
      9 C6         -1.6817   -1.4566    4.1166 C.3       1 <0>        -0.1380
     10 C7         -1.9805   -0.6328    2.8529 C.3       1 <0>        -0.1318
     11 C8          0.2689    0.5064    3.2198 C.ar      1 <0>        -0.0606
     12 C9          1.6437    0.4570    3.3561 C.ar      1 <0>        -0.0888
     13 C10         2.3189    1.5121    3.9403 C.ar      1 <0>        -0.1056
     14 C11         1.6186    2.6178    4.3886 C.ar      1 <0>        -0.0314
     15 C12         0.2428    2.6668    4.2519 C.ar      1 <0>        -0.1073
     16 C13        -0.4307    1.6135    3.6624 C.ar      1 <0>        -0.1038
     17 Cl1         2.4660    3.9432    5.1229 Cl        1 <0>        -0.0653
     18 C14         0.1088    0.0309   -2.3779 C.ar      1 <0>         0.0003
     19 C15         0.2720    1.4050   -2.5663 C.ar      1 <0>        -0.0974
     20 C16         0.2488    1.9330   -3.8374 C.ar      1 <0>        -0.0734
     21 C17         0.0619    1.0962   -4.9382 C.ar      1 <0>        -0.0203
     22 C18        -0.1013   -0.2762   -4.7523 C.ar      1 <0>        -0.0926
     23 C19        -0.0721   -0.8078   -3.4808 C.ar      1 <0>        -0.0025
     24 Cl2        -0.2680   -2.5171   -3.2492 Cl        1 <0>        -0.0305
     25 C20         0.0362    1.6666   -6.3064 C.ar      1 <0>         0.1602
     26 C21        -0.1567    0.8267   -7.4019 C.ar      1 <0>        -0.1579
     27 C22        -0.1787    1.3739   -8.6729 C.ar      1 <0>        -0.0705
     28 C23        -0.0070    2.7446   -8.8072 C.ar      1 <0>        -0.1686
     29 C24         0.1797    3.5187   -7.6769 C.ar      1 <0>         0.1065
     30 N4          0.1915    2.9732   -6.4776 N.ar      1 <0>        -0.4752
     31 H1         -0.2902    2.1033    0.5302 H         1 <0>         0.0856
     32 H2         -1.4441    1.6259   -0.7381 H         1 <0>         0.0957
     33 H3         -1.8153    1.2987    0.9716 H         1 <0>         0.0929
     34 H4         -0.5612   -2.8436    2.8065 H         1 <0>         0.1004
     35 H5          0.4598   -2.0098    4.0569 H         1 <0>         0.0793
     36 H6         -2.4077   -2.2478    4.3038 H         1 <0>         0.0785
     37 H7         -1.4817   -0.8471    4.9979 H         1 <0>         0.0867
     38 H8         -2.3791    0.3597    3.0628 H         1 <0>         0.0804
     39 H9         -2.5614   -1.1741    2.1061 H         1 <0>         0.0902
     40 H10         2.1902   -0.4064    3.0064 H         1 <0>         0.1339
     41 H11         3.3929    1.4732    4.0470 H         1 <0>         0.1363
     42 H12        -0.3045    3.5295    4.6019 H         1 <0>         0.1369
     43 H13        -1.5042    1.6536    3.5513 H         1 <0>         0.1374
     44 H14         0.4161    2.0535   -1.7147 H         1 <0>         0.1358
     45 H15         0.3750    2.9958   -3.9827 H         1 <0>         0.1492
     46 H16        -0.2463   -0.9232   -5.6048 H         1 <0>         0.1457
     47 H17        -0.2867   -0.2361   -7.2610 H         1 <0>         0.1396
     48 H18        -0.3259    0.7482   -9.5408 H         1 <0>         0.1399
     49 H19        -0.0188    3.2022   -9.7854 H         1 <0>         0.1392
     50 H20         0.3139    4.5855   -7.7781 H         1 <0>         0.1614
@<TRIPOS>BOND
     1    1    2 1
     2    1   31 1
     3    1   32 1
     4    1   33 1
     5    2    6 1
     6    2    3 1
     7    3    4 2
     8    3   18 1
     9    4    5 1
    10    5    6 2
    11    6    7 1
    12    7   10 1
    13    7    8 1
    14    7   11 1
    15    8    9 1
    16    8   34 1
    17    8   35 1
    18    9   10 1
    19    9   36 1
    20    9   37 1
    21   10   38 1
    22   10   39 1
    23   11   16 ar
    24   11   12 ar
    25   12   13 ar
    26   12   40 1
    27   13   14 ar
    28   13   41 1
    29   14   15 ar
    30   14   17 1
    31   15   16 ar
    32   15   42 1
    33   16   43 1
    34   18   23 ar
    35   18   19 ar
    36   19   20 ar
    37   19   44 1
    38   20   21 ar
    39   20   45 1
    40   21   22 ar
    41   21   25 1
    42   22   23 ar
    43   22   46 1
    44   23   24 1
    45   25   30 ar
    46   25   26 ar
    47   26   27 ar
    48   26   47 1
    49   27   28 ar
    50   27   48 1
    51   28   29 ar
    52   28   49 1
    53   29   30 ar
    54   29   50 1
@<TRIPOS>MOLECULE
CHEMBL221261
   64    67     0     0     0
SMALL
USER_CHARGES

@<TRIPOS>ATOM
      1 C1         -0.9557    2.8425    0.5408 C.ar      1 <0>         0.0083
      2 C2         -0.0128    3.8743    0.5158 C.ar      1 <0>        -0.1911
      3 C3         -0.4346    5.1997    0.3764 C.ar      1 <0>        -0.0823
      4 C4         -1.7772    5.4856    0.2641 C.ar      1 <0>        -0.1352
      5 C5         -2.7143    4.4557    0.2893 C.ar      1 <0>         0.2731
      6 C6         -2.2970    3.1343    0.4280 C.ar      1 <0>        -0.1238
      7 Cl1        -3.4686    1.8537    0.4584 Cl        1 <0>        -0.0494
      8 N1         -4.0704    4.7476    0.1756 N.pl3     1 <0>        -0.8503
      9 Cl2        -2.3018    7.1314    0.0915 Cl        1 <0>        -0.0470
     10 C7          1.4245    3.5649    0.6368 C.2       1 <0>         0.5949
     11 O1          1.7970    2.6955    1.4009 O.2       1 <0>        -0.4925
     12 N2          2.3247    4.2460   -0.0996 N.am      1 <0>        -0.6186
     13 C8          2.2337    5.7045   -0.2025 C.3       1 <0>         0.1532
     14 C9          1.7929    6.2842    1.1431 C.3       1 <0>        -0.1921
     15 C10         1.6979    7.8075    1.0356 C.3       1 <0>        -0.0959
     16 C11         0.6753    8.1801   -0.0398 C.3       1 <0>        -0.1420
     17 C12         1.1161    7.6003   -1.3854 C.3       1 <0>        -0.1078
     18 C13         1.2112    6.0771   -1.2779 C.3       1 <0>        -0.1839
     19 C14         0.5817    9.6804   -0.1457 C.2       1 <0>         0.5213
     20 O2          1.2655   10.3826    0.5686 O.2       1 <0>        -0.5344
     21 N3         -0.2619   10.2419   -1.0342 N.am      1 <0>        -0.7298
     22 C15        -0.3529   11.7005   -1.1371 C.3       1 <0>         0.1215
     23 C16        -1.3755   12.0731   -2.2126 C.3       1 <0>        -0.0988
     24 C17        -0.8736   11.6014   -3.5788 C.3       1 <0>        -0.1149
     25 C18        -1.8961   11.9740   -4.6542 C.3       1 <0>        -0.1202
     26 C19        -2.0831   13.4924   -4.6759 C.3       1 <0>        -0.1218
     27 C20        -2.5850   13.9640   -3.3097 C.3       1 <0>        -0.1191
     28 C21        -1.5625   13.5914   -2.2343 C.3       1 <0>        -0.1122
     29 C22         3.3942    3.5277   -0.7970 C.3       1 <0>         0.0840
     30 C23         3.3062    2.0010   -0.8436 C.3       1 <0>        -0.1873
     31 C24         4.3455    2.6805    0.0503 C.3       1 <0>        -0.1878
     32 H1         -0.6324    1.8172    0.6439 H         1 <0>         0.1478
     33 H2          0.2917    5.9988    0.3572 H         1 <0>         0.2227
     34 H3         -4.3620    5.6677    0.0789 H         1 <0>         0.4081
     35 H4         -4.7238    4.0310    0.1930 H         1 <0>         0.4091
     36 H5          3.2085    6.1113   -0.4715 H         1 <0>         0.1021
     37 H6          0.8181    5.8775    1.4121 H         1 <0>         0.1079
     38 H7          2.5214    6.0188    1.9092 H         1 <0>         0.0876
     39 H8          1.3838    8.2205    1.9942 H         1 <0>         0.0818
     40 H9          2.6727    8.2143    0.7665 H         1 <0>         0.0805
     41 H10        -0.2995    7.7733    0.2292 H         1 <0>         0.1128
     42 H11         0.3876    7.8658   -2.1515 H         1 <0>         0.0741
     43 H12         2.0909    8.0071   -1.6544 H         1 <0>         0.0769
     44 H13         1.5252    5.6641   -2.2365 H         1 <0>         0.0827
     45 H14         0.2363    5.6703   -1.0088 H         1 <0>         0.1071
     46 H15        -0.8088    9.6804   -1.6055 H         1 <0>         0.3982
     47 H16        -0.6669   12.1135   -0.1785 H         1 <0>         0.0682
     48 H17         0.6219   12.1073   -1.4062 H         1 <0>         0.0694
     49 H18        -2.3283   11.5928   -1.9899 H         1 <0>         0.0757
     50 H19         0.0793   12.0817   -3.8014 H         1 <0>         0.0657
     51 H20        -0.7403   10.5197   -3.5633 H         1 <0>         0.0602
     52 H21        -1.5385   11.6380   -5.6275 H         1 <0>         0.0627
     53 H22        -2.8489   11.4937   -4.4315 H         1 <0>         0.0613
     54 H23        -1.1303   13.9726   -4.8986 H         1 <0>         0.0622
     55 H24        -2.8116   13.7578   -5.4420 H         1 <0>         0.0615
     56 H25        -2.7182   15.0457   -3.3252 H         1 <0>         0.0639
     57 H26        -3.5378   13.4837   -3.0870 H         1 <0>         0.0616
     58 H27        -1.9200   13.9274   -1.2610 H         1 <0>         0.0654
     59 H28        -0.6096   14.0717   -2.4570 H         1 <0>         0.0664
     60 H29         3.8114    4.0349   -1.6670 H         1 <0>         0.1324
     61 H30         2.4526    1.5309   -0.3553 H         1 <0>         0.1012
     62 H31         3.6655    1.5034   -1.7444 H         1 <0>         0.1019
     63 H32         5.3885    2.6299   -0.2624 H         1 <0>         0.0969
     64 H33         4.1756    2.6574    1.1268 H         1 <0>         0.1057
@<TRIPOS>BOND
     1    1    6 ar
     2    1    2 ar
     3    1   32 1
     4    2    3 ar
     5    2   10 1
     6    3    4 ar
     7    3   33 1
     8    4    5 ar
     9    4    9 1
    10    5    6 ar
    11    5    8 1
    12    6    7 1
    13    8   34 1
    14    8   35 1
    15   10   11 2
    16   10   12 am
    17   12   13 1
    18   12   29 1
    19   13   18 1
    20   13   14 1
    21   13   36 1
    22   14   15 1
    23   14   37 1
    24   14   38 1
    25   15   16 1
    26   15   39 1
    27   15   40 1
    28   16   17 1
    29   16   19 1
    30   16   41 1
    31   17   18 1
    32   17   42 1
    33   17   43 1
    34   18   44 1
    35   18   45 1
    36   19   20 2
    37   19   21 am
    38   21   22 1
    39   21   46 1
    40   22   23 1
    41   22   47 1
    42   22   48 1
    43   23   28 1
    44   23   24 1
    45   23   49 1
    46   24   25 1
    47   24   50 1
    48   24   51 1
    49   25   26 1
    50   25   52 1
    51   25   53 1
    52   26   27 1
    53   26   54 1
    54   26   55 1
    55   27   28 1
    56   27   56 1
    57   27   57 1
    58   28   58 1
    59   28   59 1
    60   29   31 1
    61   29   30 1
    62   29   60 1
    63   30   31 1
    64   30   61 1
    65   30   62 1
    66   31   63 1
    67   31   64 1
@<TRIPOS>MOLECULE
CHEMBL370642
   62    67     0     0     0
SMALL
USER_CHARGES

@<TRIPOS>ATOM
      1 C1         -1.6490    0.8550   -0.1445 C.3       1 <0>         0.0608
      2 N1         -0.7141   -0.2702   -0.0659 N.pl3     1 <0>        -0.4631
      3 C2         -0.0558   -0.8707   -1.1047 C.2       1 <0>         0.2039
      4 N2          0.6780   -1.8320   -0.5898 N.2       1 <0>        -0.2478
      5 N3          0.5178   -1.8643    0.6852 N.2       1 <0>        -0.2734
      6 C3         -0.3164   -0.9302    1.0557 C.2       1 <0>         0.1834
      7 C4         -0.7597   -0.6387    2.4663 C.3       1 <0>         0.0354
      8 C5         -0.5519    0.8465    2.7695 C.3       1 <0>        -0.1145
      9 C6         -1.0019    1.1424    4.2016 C.3       1 <0>        -0.1177
     10 C7         -1.5097   -0.1455    4.8531 C.3       1 <0>        -0.0070
     11 C8         -0.3854   -1.1830    4.8759 C.3       1 <0>        -0.1114
     12 C9          0.0646   -1.4789    3.4438 C.3       1 <0>        -0.0973
     13 C10        -2.6916   -0.6918    4.0497 C.3       1 <0>        -0.1081
     14 C11        -2.2416   -0.9877    2.6176 C.3       1 <0>        -0.1120
     15 C12        -1.9529    0.1460    6.2636 C.cat     1 <0>         0.3429
     16 N4         -1.9163    1.3561    6.8633 N.pl3     1 <0>        -0.5010
     17 H1         -1.6035    2.1842    6.4666 H         1 <0>         0.4656
     18 C13        -2.4017    1.1992    8.1318 C.2       1 <0>         0.0373
     19 C14        -2.7221   -0.1140    8.2672 C.2       1 <0>         0.0937
     20 N5         -2.4387   -0.7277    7.1003 N.pl3     1 <0>        -0.4723
     21 C15        -3.2879   -0.7565    9.4792 C.ar      1 <0>        -0.0758
     22 C16        -3.5648   -2.1222    9.4815 C.ar      1 <0>        -0.0703
     23 C17        -4.0909   -2.7155   10.6108 C.ar      1 <0>        -0.1435
     24 C18        -4.3442   -1.9554   11.7410 C.ar      1 <0>         0.1383
     25 C19        -4.0709   -0.5972   11.7430 C.ar      1 <0>        -0.1439
     26 C20        -3.5384    0.0031   10.6204 C.ar      1 <0>        -0.0514
     27 F1         -4.8598   -2.5402   12.8443 F         1 <0>        -0.1211
     28 C21        -0.1518   -0.5069   -2.5355 C.ar      1 <0>         0.0232
     29 C22        -0.0249    0.8257   -2.9296 C.ar      1 <0>        -0.1008
     30 C23        -0.1155    1.1584   -4.2653 C.ar      1 <0>        -0.0840
     31 C24        -0.3317    0.1741   -5.2134 C.ar      1 <0>        -0.0988
     32 C25        -0.4583   -1.1487   -4.8292 C.ar      1 <0>        -0.0688
     33 C26        -0.3639   -1.4952   -3.4968 C.ar      1 <0>        -0.1447
     34 C27        -0.4958   -2.9376   -3.0805 C.3       1 <0>         0.5041
     35 F2         -0.7015   -3.7329   -4.2129 F         1 <0>        -0.1762
     36 F3          0.6747   -3.3445   -2.4312 F         1 <0>        -0.1489
     37 F4         -1.5832   -3.0744   -2.2109 F         1 <0>        -0.1811
     38 H2         -1.1096    1.7878    0.0200 H         1 <0>         0.0889
     39 H3         -2.1138    0.8730   -1.1303 H         1 <0>         0.0982
     40 H4         -2.4193    0.7413    0.6183 H         1 <0>         0.0948
     41 H5          0.5038    1.0952    2.6617 H         1 <0>         0.0871
     42 H6         -1.1391    1.4451    2.0731 H         1 <0>         0.0809
     43 H7         -0.1599    1.5316    4.7739 H         1 <0>         0.0856
     44 H8         -1.8029    1.8816    4.1853 H         1 <0>         0.0835
     45 H9          0.4566   -0.7938    5.4482 H         1 <0>         0.0862
     46 H10        -0.7471   -2.1005    5.3400 H         1 <0>         0.0788
     47 H11        -0.0834   -2.5370    3.2278 H         1 <0>         0.0929
     48 H12         1.1203   -1.2303    3.3360 H         1 <0>         0.0891
     49 H13        -3.0533   -1.6093    4.5138 H         1 <0>         0.0802
     50 H14        -3.4925    0.0474    4.0334 H         1 <0>         0.0855
     51 H15        -2.8288   -0.3891    1.9212 H         1 <0>         0.0785
     52 H16        -2.3896   -2.0458    2.4016 H         1 <0>         0.0886
     53 H17        -2.5095    1.9698    8.8808 H         1 <0>         0.2311
     54 H18        -3.3683   -2.7153    8.6006 H         1 <0>         0.1317
     55 H19        -4.3059   -3.7739   10.6134 H         1 <0>         0.1520
     56 H20        -4.2705   -0.0083   12.6260 H         1 <0>         0.1541
     57 H21        -3.3208    1.0609   10.6245 H         1 <0>         0.1452
     58 H22         0.1435    1.5949   -2.1905 H         1 <0>         0.1341
     59 H23        -0.0178    2.1895   -4.5716 H         1 <0>         0.1431
     60 H24        -0.4022    0.4397   -6.2579 H         1 <0>         0.1451
     61 H25        -0.6269   -1.9124   -5.5740 H         1 <0>         0.1497
     62 H26        -2.5727   -1.6701    6.9139 H         1 <0>         0.4610
@<TRIPOS>BOND
     1    1    2 1
     2    1   38 1
     3    1   39 1
     4    1   40 1
     5    2    6 1
     6    2    3 1
     7    3    4 2
     8    3   28 1
     9    4    5 1
    10    5    6 2
    11    6    7 1
    12    7   12 1
    13    7   14 1
    14    7    8 1
    15    8    9 1
    16    8   41 1
    17    8   42 1
    18    9   10 1
    19    9   43 1
    20    9   44 1
    21   10   11 1
    22   10   13 1
    23   10   15 1
    24   11   12 1
    25   11   45 1
    26   11   46 1
    27   12   47 1
    28   12   48 1
    29   13   14 1
    30   13   49 1
    31   13   50 1
    32   14   51 1
    33   14   52 1
    34   15   20 2
    35   15   16 1
    36   16   17 1
    37   16   18 1
    38   18   19 2
    39   18   53 1
    40   19   20 1
    41   19   21 1
    42   20   62 1
    43   21   26 ar
    44   21   22 ar
    45   22   23 ar
    46   22   54 1
    47   23   24 ar
    48   23   55 1
    49   24   25 ar
    50   24   27 1
    51   25   26 ar
    52   25   56 1
    53   26   57 1
    54   28   33 ar
    55   28   29 ar
    56   29   30 ar
    57   29   58 1
    58   30   31 ar
    59   30   59 1
    60   31   32 ar
    61   31   60 1
    62   32   33 ar
    63   32   61 1
    64   33   34 1
    65   34   35 1
    66   34   36 1
    67   34   37 1
@<TRIPOS>MOLECULE
CHEMBL370642__1
   61    66     0     0     0
SMALL
USER_CHARGES

@<TRIPOS>ATOM
      1 C1         -1.6490    0.8550   -0.1445 C.3       1 <0>         0.0618
      2 N1         -0.7141   -0.2702   -0.0659 N.pl3     1 <0>        -0.4624
      3 C2         -0.0558   -0.8707   -1.1047 C.2       1 <0>         0.1866
      4 N2          0.6780   -1.8320   -0.5898 N.2       1 <0>        -0.2506
      5 N3          0.5178   -1.8643    0.6852 N.2       1 <0>        -0.2802
      6 C3         -0.3164   -0.9302    1.0557 C.2       1 <0>         0.2014
      7 C4         -0.7597   -0.6387    2.4663 C.3       1 <0>         0.0331
      8 C5         -0.5519    0.8465    2.7695 C.3       1 <0>        -0.1156
      9 C6         -1.0019    1.1424    4.2016 C.3       1 <0>        -0.0886
     10 C7         -1.5097   -0.1455    4.8531 C.3       1 <0>         0.0290
     11 C8         -0.3854   -1.1830    4.8759 C.3       1 <0>        -0.1062
     12 C9          0.0646   -1.4789    3.4438 C.3       1 <0>        -0.0938
     13 C10        -2.6916   -0.6918    4.0497 C.3       1 <0>        -0.1076
     14 C11        -2.2416   -0.9877    2.6176 C.3       1 <0>        -0.1069
     15 C12        -1.9529    0.1460    6.2636 C.2       1 <0>         0.2363
     16 N4         -1.6678    1.2257    6.9404 N.2       1 <0>        -0.4786
     17 H1         -3.0710   -1.5305    6.7762 H         1 <0>         0.4180
     18 C13        -2.2221    1.1515    8.1560 C.2       1 <0>         0.0074
     19 C14        -2.8857   -0.0333    8.2412 C.2       1 <0>         0.0093
     20 N5         -2.7143   -0.6649    7.0303 N.pl3     1 <0>        -0.5591
     21 C15        -3.6467   -0.5400    9.4039 C.ar      1 <0>        -0.0179
     22 C16        -4.2725   -1.7856    9.3421 C.ar      1 <0>        -0.0939
     23 C17        -4.9805   -2.2537   10.4295 C.ar      1 <0>        -0.1436
     24 C18        -5.0709   -1.4893   11.5817 C.ar      1 <0>         0.0980
     25 C19        -4.4517   -0.2514   11.6481 C.ar      1 <0>        -0.1423
     26 C20        -3.7364    0.2235   10.5685 C.ar      1 <0>        -0.0738
     27 F1         -5.7656   -1.9523   12.6439 F         1 <0>        -0.1365
     28 C21        -0.1518   -0.5069   -2.5355 C.ar      1 <0>         0.0339
     29 C22        -0.0249    0.8257   -2.9296 C.ar      1 <0>        -0.1019
     30 C23        -0.1155    1.1584   -4.2653 C.ar      1 <0>        -0.0843
     31 C24        -0.3317    0.1741   -5.2134 C.ar      1 <0>        -0.1046
     32 C25        -0.4583   -1.1487   -4.8292 C.ar      1 <0>        -0.0704
     33 C26        -0.3639   -1.4952   -3.4968 C.ar      1 <0>        -0.1471
     34 C27        -0.4958   -2.9376   -3.0805 C.3       1 <0>         0.5043
     35 F2         -0.7015   -3.7329   -4.2129 F         1 <0>        -0.1794
     36 F3          0.6747   -3.3445   -2.4312 F         1 <0>        -0.1483
     37 F4         -1.5832   -3.0744   -2.2109 F         1 <0>        -0.1793
     38 H2         -1.1096    1.7878    0.0200 H         1 <0>         0.0888
     39 H3         -2.1138    0.8730   -1.1303 H         1 <0>         0.0937
     40 H4         -2.4193    0.7413    0.6183 H         1 <0>         0.0980
     41 H5          0.5038    1.0952    2.6617 H         1 <0>         0.0744
     42 H6         -1.1391    1.4451    2.0731 H         1 <0>         0.0679
     43 H7         -0.1599    1.5316    4.7739 H         1 <0>         0.0836
     44 H8         -1.8029    1.8816    4.1853 H         1 <0>         0.0737
     45 H9          0.4566   -0.7938    5.4482 H         1 <0>         0.0768
     46 H10        -0.7471   -2.1005    5.3400 H         1 <0>         0.0660
     47 H11        -0.0834   -2.5370    3.2278 H         1 <0>         0.0800
     48 H12         1.1203   -1.2303    3.3360 H         1 <0>         0.0782
     49 H13        -3.0533   -1.6093    4.5138 H         1 <0>         0.0656
     50 H14        -3.4925    0.0474    4.0334 H         1 <0>         0.0747
     51 H15        -2.8288   -0.3891    1.9212 H         1 <0>         0.0678
     52 H16        -2.3896   -2.0458    2.4016 H         1 <0>         0.0762
     53 H17        -2.1548    1.8995    8.9321 H         1 <0>         0.1748
     54 H18        -4.2030   -2.3820    8.4444 H         1 <0>         0.1252
     55 H19        -5.4656   -3.2175   10.3826 H         1 <0>         0.1392
     56 H20        -4.5258    0.3408   12.5482 H         1 <0>         0.1424
     57 H21        -3.2504    1.1864   10.6229 H         1 <0>         0.1406
     58 H22         0.1435    1.5949   -2.1905 H         1 <0>         0.1353
     59 H23        -0.0178    2.1895   -4.5716 H         1 <0>         0.1413
     60 H24        -0.4022    0.4397   -6.2579 H         1 <0>         0.1423
     61 H25        -0.6269   -1.9124   -5.5740 H         1 <0>         0.1472
@<TRIPOS>BOND
     1    1    2 1
     2    1   38 1
     3    1   39 1
     4    1   40 1
     5    2    6 1
     6    2    3 1
     7    3    4 2
     8    3   28 1
     9    4    5 1
    10    5    6 2
    11    6    7 1
    12    7   12 1
    13    7   14 1
    14    7    8 1
    15    8    9 1
    16    8   41 1
    17    8   42 1
    18    9   10 1
    19    9   43 1
    20    9   44 1
    21   10   11 1
    22   10   13 1
    23   10   15 1
    24   11   12 1
    25   11   45 1
    26   11   46 1
    27   12   47 1
    28   12   48 1
    29   13   14 1
    30   13   49 1
    31   13   50 1
    32   14   51 1
    33   14   52 1
    34   15   16 2
    35   15   20 1
    36   16   18 1
    37   17   20 1
    38   18   53 1
    39   18   19 2
    40   19   21 1
    41   19   20 1
    42   21   26 ar
    43   21   22 ar
    44   22   23 ar
    45   22   54 1
    46   23   24 ar
    47   23   55 1
    48   24   25 ar
    49   24   27 1
    50   25   26 ar
    51   25   56 1
    52   26   57 1
    53   28   33 ar
    54   28   29 ar
    55   29   30 ar
    56   29   58 1
    57   30   31 ar
    58   30   59 1
    59   31   32 ar
    60   31   60 1
    61   32   33 ar
    62   32   61 1
    63   33   34 1
    64   34   35 1
    65   34   36 1
    66   34   37 1
@<TRIPOS>MOLECULE
CHEMBL370642__2
   61    66     0     0     0
SMALL
USER_CHARGES

@<TRIPOS>ATOM
      1 C1         -1.6490    0.8550   -0.1445 C.3       1 <0>         0.0618
      2 N1         -0.7141   -0.2702   -0.0659 N.pl3     1 <0>        -0.4624
      3 C2         -0.0558   -0.8707   -1.1047 C.2       1 <0>         0.1867
      4 N2          0.6780   -1.8320   -0.5898 N.2       1 <0>        -0.2506
      5 N3          0.5178   -1.8643    0.6852 N.2       1 <0>        -0.2802
      6 C3         -0.3164   -0.9302    1.0557 C.2       1 <0>         0.2013
      7 C4         -0.7597   -0.6387    2.4663 C.3       1 <0>         0.0332
      8 C5         -0.5519    0.8465    2.7695 C.3       1 <0>        -0.1156
      9 C6         -1.0019    1.1424    4.2016 C.3       1 <0>        -0.0888
     10 C7         -1.5097   -0.1455    4.8531 C.3       1 <0>         0.0299
     11 C8         -0.3854   -1.1830    4.8759 C.3       1 <0>        -0.1060
     12 C9          0.0646   -1.4789    3.4438 C.3       1 <0>        -0.0939
     13 C10        -2.6916   -0.6918    4.0497 C.3       1 <0>        -0.1070
     14 C11        -2.2416   -0.9877    2.6176 C.3       1 <0>        -0.1070
     15 C12        -1.9529    0.1460    6.2636 C.2       1 <0>         0.2301
     16 N4         -2.7054   -0.6698    7.0340 N.pl3     1 <0>        -0.5612
     17 H1         -3.0531   -1.5392    6.7805 H         1 <0>         0.4213
     18 C13        -2.8864   -0.0451    8.2366 C.2       1 <0>        -0.0317
     19 C14        -2.2324    1.1432    8.1613 C.2       1 <0>         0.0377
     20 N5         -1.6674    1.2236    6.9394 N.2       1 <0>        -0.4692
     21 C15        -2.1496    2.1662    9.2329 C.ar      1 <0>        -0.0103
     22 C16        -1.5363    3.3922    8.9827 C.ar      1 <0>        -0.0662
     23 C17        -1.4615    4.3406    9.9822 C.ar      1 <0>        -0.1522
     24 C18        -1.9946    4.0752   11.2331 C.ar      1 <0>         0.0955
     25 C19        -2.6048    2.8576   11.4863 C.ar      1 <0>        -0.1508
     26 C20        -2.6900    1.9059   10.4907 C.ar      1 <0>        -0.0842
     27 F1         -1.9187    5.0065   12.2089 F         1 <0>        -0.1399
     28 C21        -0.1518   -0.5069   -2.5355 C.ar      1 <0>         0.0339
     29 C22        -0.0249    0.8257   -2.9296 C.ar      1 <0>        -0.1019
     30 C23        -0.1155    1.1584   -4.2653 C.ar      1 <0>        -0.0843
     31 C24        -0.3317    0.1741   -5.2134 C.ar      1 <0>        -0.1045
     32 C25        -0.4583   -1.1487   -4.8292 C.ar      1 <0>        -0.0704
     33 C26        -0.3639   -1.4952   -3.4968 C.ar      1 <0>        -0.1470
     34 C27        -0.4958   -2.9376   -3.0805 C.3       1 <0>         0.5044
     35 F2         -0.7015   -3.7329   -4.2129 F         1 <0>        -0.1794
     36 F3          0.6747   -3.3445   -2.4312 F         1 <0>        -0.1483
     37 F4         -1.5832   -3.0744   -2.2109 F         1 <0>        -0.1793
     38 H2         -1.1096    1.7878    0.0200 H         1 <0>         0.0886
     39 H3         -2.1138    0.8730   -1.1303 H         1 <0>         0.0937
     40 H4         -2.4193    0.7413    0.6183 H         1 <0>         0.0980
     41 H5          0.5038    1.0952    2.6617 H         1 <0>         0.0741
     42 H6         -1.1391    1.4451    2.0731 H         1 <0>         0.0678
     43 H7         -0.1599    1.5316    4.7739 H         1 <0>         0.0829
     44 H8         -1.8029    1.8816    4.1853 H         1 <0>         0.0734
     45 H9          0.4566   -0.7938    5.4482 H         1 <0>         0.0761
     46 H10        -0.7471   -2.1005    5.3400 H         1 <0>         0.0662
     47 H11        -0.0834   -2.5370    3.2278 H         1 <0>         0.0799
     48 H12         1.1203   -1.2303    3.3360 H         1 <0>         0.0778
     49 H13        -3.0533   -1.6093    4.5138 H         1 <0>         0.0664
     50 H14        -3.4925    0.0474    4.0334 H         1 <0>         0.0744
     51 H15        -2.8288   -0.3891    1.9212 H         1 <0>         0.0675
     52 H16        -2.3896   -2.0458    2.4016 H         1 <0>         0.0761
     53 H17        -3.4416   -0.4231    9.0824 H         1 <0>         0.1808
     54 H18        -1.1198    3.5997    8.0081 H         1 <0>         0.1404
     55 H19        -0.9863    5.2911    9.7892 H         1 <0>         0.1370
     56 H20        -3.0185    2.6546   12.4631 H         1 <0>         0.1375
     57 H21        -3.1705    0.9589   10.6875 H         1 <0>         0.1322
     58 H22         0.1435    1.5949   -2.1905 H         1 <0>         0.1352
     59 H23        -0.0178    2.1895   -4.5716 H         1 <0>         0.1413
     60 H24        -0.4022    0.4397   -6.2579 H         1 <0>         0.1423
     61 H25        -0.6269   -1.9124   -5.5740 H         1 <0>         0.1472
@<TRIPOS>BOND
     1    1    2 1
     2    1   38 1
     3    1   39 1
     4    1   40 1
     5    2    6 1
     6    2    3 1
     7    3    4 2
     8    3   28 1
     9    4    5 1
    10    5    6 2
    11    6    7 1
    12    7   12 1
    13    7   14 1
    14    7    8 1
    15    8    9 1
    16    8   41 1
    17    8   42 1
    18    9   10 1
    19    9   43 1
    20    9   44 1
    21   10   11 1
    22   10   13 1
    23   10   15 1
    24   11   12 1
    25   11   45 1
    26   11   46 1
    27   12   47 1
    28   12   48 1
    29   13   14 1
    30   13   49 1
    31   13   50 1
    32   14   51 1
    33   14   52 1
    34   15   20 2
    35   15   16 1
    36   16   17 1
    37   16   18 1
    38   18   19 2
    39   18   53 1
    40   19   20 1
    41   19   21 1
    42   21   26 ar
    43   21   22 ar
    44   22   23 ar
    45   22   54 1
    46   23   24 ar
    47   23   55 1
    48   24   25 ar
    49   24   27 1
    50   25   26 ar
    51   25   56 1
    52   26   57 1
    53   28   33 ar
    54   28   29 ar
    55   29   30 ar
    56   29   58 1
    57   30   31 ar
    58   30   59 1
    59   31   32 ar
    60   31   60 1
    61   32   33 ar
    62   32   61 1
    63   33   34 1
    64   34   35 1
    65   34   36 1
    66   34   37 1
@<TRIPOS>MOLECULE
CHEMBL410876
   53    55     0     0     0
SMALL
USER_CHARGES

@<TRIPOS>ATOM
      1 C1         12.2705    1.9708   -2.2278 C.ar      1 <0>        -0.0372
      2 C2         11.4202    2.6018   -1.3393 C.ar      1 <0>        -0.1261
      3 C3         10.7319    1.8608   -0.3952 C.ar      1 <0>         0.0563
      4 C4         10.8943    0.4882   -0.3408 C.ar      1 <0>        -0.6628
      5 C5         11.7450   -0.1428   -1.2305 C.ar      1 <0>         0.0573
      6 C6         12.4333    0.5993   -2.1739 C.ar      1 <0>        -0.1267
      7 Cl1        11.9500   -1.8654   -1.1627 Cl        1 <0>        -0.0115
      8 S1         10.0185   -0.4561    0.8617 S.o2      1 <0>         2.4783
      9 O1         10.8170   -1.6136    1.0657 O.2       1 <0>        -0.9049
     10 O2          9.7731    0.4517    1.9270 O.2       1 <0>        -0.9031
     11 C7          8.4584   -0.9077    0.0538 C.3       1 <0>        -0.5584
     12 C8          7.6205   -1.7266    1.0016 C.ar      1 <0>        -0.1540
     13 C9          7.7408   -3.1051    1.0288 C.ar      1 <0>        -0.0282
     14 C10         6.9415   -3.8232    1.9260 C.ar      1 <0>        -0.1785
     15 C11         6.0605   -3.1241    2.7524 C.ar      1 <0>         0.1657
     16 N1          5.9821   -1.8113    2.6889 N.ar      1 <0>        -0.4733
     17 C12         6.7273   -1.1080    1.8575 C.ar      1 <0>         0.1432
     18 C13         7.0288   -5.2973    1.9967 C.2       1 <0>         0.5574
     19 O3          6.0144   -5.9637    2.0634 O.2       1 <0>        -0.5291
     20 N2          8.2331   -5.9023    1.9872 N.am      1 <0>        -0.6124
     21 C14         9.4516   -5.0552    2.0465 C.3       1 <0>         0.0948
     22 C15        10.2455   -5.5772    3.2826 C.3       1 <0>        -0.1345
     23 C16        11.6822   -5.8503    2.8140 C.3       1 <0>        -0.1282
     24 C17        11.8451   -6.8926    1.6819 C.3       1 <0>        -0.1242
     25 C18        11.1882   -8.2102    2.2391 C.3       1 <0>        -0.1255
     26 C19        10.2400   -8.6952    1.1165 C.3       1 <0>        -0.1256
     27 C20         9.1568   -7.7029    0.6687 C.3       1 <0>        -0.1356
     28 C21         8.2800   -7.3855    1.9241 C.3       1 <0>         0.1125
     29 Cl2         9.6649    2.6536    0.7214 Cl        1 <0>        -0.0092
     30 H1         12.8044    2.5491   -2.9673 H         1 <0>         0.1537
     31 H2         11.2935    3.6735   -1.3818 H         1 <0>         0.1527
     32 H3         13.0975    0.1067   -2.8686 H         1 <0>         0.1522
     33 H4          7.9164   -0.0029   -0.2213 H         1 <0>         0.1523
     34 H5          8.6690   -1.4917   -0.8422 H         1 <0>         0.1492
     35 H6          8.4332   -3.6137    0.3744 H         1 <0>         0.1500
     36 H7          5.4375   -3.6646    3.4496 H         1 <0>         0.1725
     37 H8          6.6347   -0.0321    1.8416 H         1 <0>         0.1705
     38 H9         10.0419   -5.1767    1.1383 H         1 <0>         0.0860
     39 H10         9.1791   -4.0090    2.1856 H         1 <0>         0.0926
     40 H11        10.2482   -4.8219    4.0684 H         1 <0>         0.0737
     41 H12         9.7940   -6.4978    3.6524 H         1 <0>         0.0789
     42 H13        12.1125   -4.9088    2.4729 H         1 <0>         0.0615
     43 H14        12.2606   -6.1896    3.6733 H         1 <0>         0.0586
     44 H15        11.3237   -6.5605    0.7841 H         1 <0>         0.0695
     45 H16        12.9012   -7.0574    1.4686 H         1 <0>         0.0676
     46 H17        11.9541   -8.9600    2.4374 H         1 <0>         0.0675
     47 H18        10.6224   -7.9964    3.1459 H         1 <0>         0.0711
     48 H19        10.8461   -8.9510    0.2473 H         1 <0>         0.0578
     49 H20         9.7464   -9.6048    1.4586 H         1 <0>         0.0561
     50 H21         9.6208   -6.7887    0.2983 H         1 <0>         0.0759
     51 H22         8.5423   -8.1512   -0.1120 H         1 <0>         0.0729
     52 H23         8.7435   -7.7884    2.8246 H         1 <0>         0.0810
     53 H24         7.2761   -7.7911    1.7991 H         1 <0>         0.0994
@<TRIPOS>BOND
     1    1    6 ar
     2    1    2 ar
     3    1   30 1
     4    2    3 ar
     5    2   31 1
     6    3    4 ar
     7    3   29 1
     8    4    5 ar
     9    4    8 1
    10    5    6 ar
    11    5    7 1
    12    6   32 1
    13    8    9 2
    14    8   10 2
    15    8   11 1
    16   11   12 1
    17   11   33 1
    18   11   34 1
    19   12   17 ar
    20   12   13 ar
    21   13   14 ar
    22   13   35 1
    23   14   15 ar
    24   14   18 1
    25   15   16 ar
    26   15   36 1
    27   16   17 ar
    28   17   37 1
    29   18   19 2
    30   18   20 am
    31   20   28 1
    32   20   21 1
    33   21   22 1
    34   21   38 1
    35   21   39 1
    36   22   23 1
    37   22   40 1
    38   22   41 1
    39   23   24 1
    40   23   42 1
    41   23   43 1
    42   24   25 1
    43   24   44 1
    44   24   45 1
    45   25   26 1
    46   25   46 1
    47   25   47 1
    48   26   27 1
    49   26   48 1
    50   26   49 1
    51   27   28 1
    52   27   50 1
    53   27   51 1
    54   28   52 1
    55   28   53 1
@<TRIPOS>MOLECULE
CHEMBL561274
   52    53     0     0     0
SMALL
USER_CHARGES

@<TRIPOS>ATOM
      1 C1         -0.5108   -4.2029    3.6869 C.3       1 <0>        -0.1783
      2 C2         -0.0439   -3.7127    2.3148 C.3       1 <0>         0.1199
      3 C3          1.2375   -2.9000    2.4736 C.3       1 <0>        -0.1410
      4 C4          2.0854   -2.8646    1.2721 C.3       1 <0>        -0.1400
      5 C5          1.3363   -2.1750    0.1053 C.3       1 <0>         0.1280
      6 N1          0.2791   -3.0390   -0.3702 N.pl3     1 <0>        -0.9749
      7 C6         -1.0949   -2.9881    0.1666 C.3       1 <0>         0.1276
      8 C7         -1.1137   -2.8447    1.6995 C.3       1 <0>        -0.1148
      9 S1          0.6239   -4.1305   -1.5670 S.o2      1 <0>         2.6928
     10 O1          2.0297   -4.3353   -1.5371 O.2       1 <0>        -0.9585
     11 O2         -0.3045   -5.1968   -1.4239 O.2       1 <0>        -0.9469
     12 C8          0.2612   -3.3499   -3.1044 C.ar      1 <0>        -0.6871
     13 C9         -1.0103   -3.4355   -3.6401 C.ar      1 <0>        -0.0184
     14 C10        -1.2948   -2.8231   -4.8462 C.ar      1 <0>        -0.1372
     15 C11        -0.3080   -2.1246   -5.5165 C.ar      1 <0>        -0.0145
     16 C12         0.9632   -2.0382   -4.9804 C.ar      1 <0>        -0.1429
     17 C13         1.2466   -2.6470   -3.7721 C.ar      1 <0>        -0.0195
     18 C14        -0.6180   -1.4578   -6.8319 C.3       1 <0>        -0.0385
     19 C15        -1.7297   -0.4260   -6.6312 C.3       1 <0>        -0.1398
     20 C16         0.6374   -0.7590   -7.3577 C.3       1 <0>        -0.1477
     21 C17        -1.0763   -2.5113   -7.8423 C.3       1 <0>        -0.1411
     22 O3          0.2053   -4.8356    1.4668 O.3       1 <0>        -0.3671
     23 C18         1.1271   -5.7820    2.0113 C.3       1 <0>         0.0196
     24 H1         -1.4273   -4.7818    3.5734 H         1 <0>         0.0665
     25 H2          0.2623   -4.8299    4.1311 H         1 <0>         0.0609
     26 H3         -0.6999   -3.3462    4.3338 H         1 <0>         0.0668
     27 H4          0.9682   -1.8772    2.7374 H         1 <0>         0.0695
     28 H5          1.8170   -3.3240    3.2937 H         1 <0>         0.0614
     29 H6          2.9988   -2.3116    1.4913 H         1 <0>         0.0748
     30 H7          2.3440   -3.8832    0.9830 H         1 <0>         0.0781
     31 H8          0.9078   -1.2354    0.4540 H         1 <0>         0.0796
     32 H9          2.0350   -1.9755   -0.7071 H         1 <0>         0.0771
     33 H10        -1.6162   -2.1388   -0.2751 H         1 <0>         0.0619
     34 H11        -1.6170   -3.9042   -0.1097 H         1 <0>         0.0969
     35 H12        -2.0890   -3.1494    2.0792 H         1 <0>         0.0836
     36 H13        -0.9328   -1.8037    1.9672 H         1 <0>         0.0792
     37 H14        -1.7812   -3.9813   -3.1164 H         1 <0>         0.1383
     38 H15        -2.2880   -2.8906   -5.2651 H         1 <0>         0.1315
     39 H16         1.7342   -1.4927   -5.5042 H         1 <0>         0.1367
     40 H17         2.2388   -2.5764   -3.3514 H         1 <0>         0.1379
     41 H18        -1.4032    0.3246   -5.9113 H         1 <0>         0.0578
     42 H19        -1.9539    0.0563   -7.5826 H         1 <0>         0.0634
     43 H20        -2.6241   -0.9238   -6.2565 H         1 <0>         0.0592
     44 H21         1.4295   -1.4940   -7.5007 H         1 <0>         0.0610
     45 H22         0.4133   -0.2766   -8.3092 H         1 <0>         0.0628
     46 H23         0.9640   -0.0084   -6.6379 H         1 <0>         0.0606
     47 H24        -1.9707   -3.0091   -7.4676 H         1 <0>         0.0595
     48 H25        -1.3005   -2.0290   -8.7937 H         1 <0>         0.0637
     49 H26        -0.2842   -3.2464   -7.9853 H         1 <0>         0.0585
     50 H27         2.0419   -5.2689    2.3079 H         1 <0>         0.0453
     51 H28         0.6819   -6.2633    2.8821 H         1 <0>         0.0445
     52 H29         1.3608   -6.5357    1.2594 H         1 <0>         0.0836
@<TRIPOS>BOND
     1    1    2 1
     2    1   24 1
     3    1   25 1
     4    1   26 1
     5    2    8 1
     6    2    3 1
     7    2   22 1
     8    3    4 1
     9    3   27 1
    10    3   28 1
    11    4    5 1
    12    4   29 1
    13    4   30 1
    14    5    6 1
    15    5   31 1
    16    5   32 1
    17    6    7 1
    18    6    9 1
    19    7    8 1
    20    7   33 1
    21    7   34 1
    22    8   35 1
    23    8   36 1
    24    9   10 2
    25    9   11 2
    26    9   12 1
    27   12   17 ar
    28   12   13 ar
    29   13   14 ar
    30   13   37 1
    31   14   15 ar
    32   14   38 1
    33   15   16 ar
    34   15   18 1
    35   16   17 ar
    36   16   39 1
    37   17   40 1
    38   18   19 1
    39   18   20 1
    40   18   21 1
    41   19   41 1
    42   19   42 1
    43   19   43 1
    44   20   44 1
    45   20   45 1
    46   20   46 1
    47   21   47 1
    48   21   48 1
    49   21   49 1
    50   22   23 1
    51   23   50 1
    52   23   51 1
    53   23   52 1
@<TRIPOS>MOLECULE
CHEMBL561274__1
   52    53     0     0     0
SMALL
USER_CHARGES

@<TRIPOS>ATOM
      1 C1          0.1127    1.5818    1.2564 C.3       1 <0>        -0.1662
      2 C2          0.1366    0.0520    1.2585 C.3       1 <0>         0.1249
      3 C3         -0.0167   -0.4614   -0.1701 C.3       1 <0>        -0.1382
      4 C4          0.6283    0.3808   -1.1890 C.3       1 <0>        -0.1514
      5 C5          2.1592    0.4251   -0.9599 C.3       1 <0>         0.1117
      6 N1          2.4505    1.2078    0.2203 N.pl3     1 <0>        -0.9896
      7 C6          2.5513    0.6128    1.5673 C.3       1 <0>         0.1174
      8 C7          1.4491   -0.4302    1.8252 C.3       1 <0>        -0.1544
      9 S1          2.6799    2.8394    0.0541 S.o2      1 <0>         2.6840
     10 O1          2.8639    3.3592    1.3637 O.2       1 <0>        -0.9540
     11 O2          3.6435    3.0112   -0.9761 O.2       1 <0>        -0.9542
     12 C8          1.1705    3.5189   -0.5499 C.ar      1 <0>        -0.6892
     13 C9          0.9508    3.6129   -1.9114 C.ar      1 <0>        -0.0147
     14 C10        -0.2334    4.1460   -2.3853 C.ar      1 <0>        -0.1398
     15 C11        -1.1980    4.5846   -1.4975 C.ar      1 <0>        -0.0061
     16 C12        -0.9787    4.4897   -0.1360 C.ar      1 <0>        -0.1467
     17 C13         0.2037    3.9527    0.3378 C.ar      1 <0>        -0.0037
     18 C14        -2.4885    5.1666   -2.0141 C.3       1 <0>        -0.0386
     19 C15        -3.2154    4.1219   -2.8633 C.3       1 <0>        -0.1398
     20 C16        -3.3744    5.5704   -0.8338 C.3       1 <0>        -0.1481
     21 C17        -2.1861    6.3985   -2.8696 C.3       1 <0>        -0.1409
     22 O3         -0.9387   -0.4405    2.0605 O.3       1 <0>        -0.3780
     23 C18        -1.0276   -1.8662    2.1015 C.3       1 <0>         0.0255
     24 H1          0.7855    1.9546    0.4841 H         1 <0>         0.0736
     25 H2         -0.9005    1.9291    1.0542 H         1 <0>         0.0700
     26 H3          0.4362    1.9515    2.2294 H         1 <0>         0.0696
     27 H4          0.4121   -1.4620   -0.2261 H         1 <0>         0.0632
     28 H5         -1.0797   -0.5308   -0.4007 H         1 <0>         0.0691
     29 H6          0.4233   -0.0288   -2.1781 H         1 <0>         0.0808
     30 H7          0.2252    1.3917   -1.1294 H         1 <0>         0.0790
     31 H8          2.5355   -0.5889   -0.8248 H         1 <0>         0.0903
     32 H9          2.6427    0.8790   -1.8249 H         1 <0>         0.0879
     33 H10         3.5241    0.1320    1.6700 H         1 <0>         0.0759
     34 H11         2.4697    1.4052    2.3113 H         1 <0>         0.1020
     35 H12         1.3436   -0.5867    2.8987 H         1 <0>         0.0897
     36 H13         1.7239   -1.3719    1.3498 H         1 <0>         0.0722
     37 H14         1.7044    3.2702   -2.6050 H         1 <0>         0.1387
     38 H15        -0.4048    4.2201   -3.4490 H         1 <0>         0.1317
     39 H16        -1.7322    4.8327    0.5575 H         1 <0>         0.1376
     40 H17         0.3735    3.8751    1.4016 H         1 <0>         0.1420
     41 H18        -3.4309    3.2443   -2.2538 H         1 <0>         0.0581
     42 H19        -4.1488    4.5428   -3.2369 H         1 <0>         0.0632
     43 H20        -2.5843    3.8342   -3.7042 H         1 <0>         0.0591
     44 H21        -2.8566    6.3147   -0.2288 H         1 <0>         0.0611
     45 H22        -4.3078    5.9914   -1.2074 H         1 <0>         0.0626
     46 H23        -3.5899    4.6928   -0.2243 H         1 <0>         0.0612
     47 H24        -1.5550    6.1108   -3.7105 H         1 <0>         0.0594
     48 H25        -3.1195    6.8194   -3.2433 H         1 <0>         0.0635
     49 H26        -1.6683    7.1427   -2.2647 H         1 <0>         0.0586
     50 H27        -1.2401   -2.2459    1.1021 H         1 <0>         0.0421
     51 H28        -0.0823   -2.2791    2.4537 H         1 <0>         0.0435
     52 H29        -1.8281   -2.1609    2.7800 H         1 <0>         0.0844
@<TRIPOS>BOND
     1    1    2 1
     2    1   24 1
     3    1   25 1
     4    1   26 1
     5    2    8 1
     6    2    3 1
     7    2   22 1
     8    3    4 1
     9    3   27 1
    10    3   28 1
    11    4    5 1
    12    4   29 1
    13    4   30 1
    14    5    6 1
    15    5   31 1
    16    5   32 1
    17    6    7 1
    18    6    9 1
    19    7    8 1
    20    7   33 1
    21    7   34 1
    22    8   35 1
    23    8   36 1
    24    9   10 2
    25    9   11 2
    26    9   12 1
    27   12   17 ar
    28   12   13 ar
    29   13   14 ar
    30   13   37 1
    31   14   15 ar
    32   14   38 1
    33   15   16 ar
    34   15   18 1
    35   16   17 ar
    36   16   39 1
    37   17   40 1
    38   18   19 1
    39   18   20 1
    40   18   21 1
    41   19   41 1
    42   19   42 1
    43   19   43 1
    44   20   44 1
    45   20   45 1
    46   20   46 1
    47   21   47 1
    48   21   48 1
    49   21   49 1
    50   22   23 1
    51   23   50 1
    52   23   51 1
    53   23   52 1
@<TRIPOS>MOLECULE
CHEMBL444567
   52    54     0     0     0
SMALL
USER_CHARGES

@<TRIPOS>ATOM
      1 C1          7.5833    2.0836    5.0582 C.3       1 <0>        -0.1500
      2 C2          7.0911    1.3501    6.3074 C.3       1 <0>         0.1434
      3 C3          5.8845    0.5175    5.9584 C.ar      1 <0>        -0.1056
      4 C4          5.0387    0.9230    4.9413 C.ar      1 <0>        -0.1068
      5 C5          3.9324    0.1654    4.6167 C.ar      1 <0>        -0.0556
      6 C6          3.6671   -1.0124    5.3171 C.ar      1 <0>        -0.1356
      7 C7          4.5244   -1.4158    6.3421 C.ar      1 <0>        -0.1574
      8 C8          5.6304   -0.6519    6.6528 C.ar      1 <0>        -0.1187
      9 C9          2.4831   -1.8290    4.9750 C.2       1 <0>         0.5829
     10 O1          1.4958   -1.3000    4.5029 O.2       1 <0>        -0.5055
     11 N1          2.4983   -3.1599    5.1867 N.am      1 <0>        -0.6336
     12 C10         1.8987   -4.0650    4.2031 C.3       1 <0>         0.1515
     13 C11         2.9818   -4.5693    3.2473 C.3       1 <0>        -0.1799
     14 C12         2.9041   -4.1146    1.7885 C.3       1 <0>        -0.1781
     15 C13         2.5590   -5.5584    2.1592 C.3       1 <0>        -0.1716
     16 C14         3.1146   -3.7016    6.4004 C.3       1 <0>         0.1495
     17 C15         2.9054   -2.7239    7.5585 C.3       1 <0>        -0.2161
     18 C16         3.5490   -3.2896    8.8261 C.3       1 <0>        -0.1164
     19 C17         5.0477   -3.4894    8.5916 C.3       1 <0>        -0.1390
     20 C18         5.2569   -4.4670    7.4334 C.3       1 <0>        -0.1202
     21 C19         4.6133   -3.9013    6.1659 C.3       1 <0>        -0.1893
     22 C20         6.7128    2.3709    7.3824 C.3       1 <0>         0.4259
     23 F1          5.6966    3.2022    6.8990 F         1 <0>        -0.1729
     24 F2          6.2628    1.7002    8.5247 F         1 <0>        -0.1804
     25 F3          7.8330    3.1439    7.7064 F         1 <0>        -0.1715
     26 O2          8.1291    0.5010    6.8011 O.3       1 <0>        -0.5189
     27 H1          6.7916    2.7313    4.6816 H         1 <0>         0.0898
     28 H2          8.4561    2.6858    5.3106 H         1 <0>         0.0844
     29 H3          7.8528    1.3563    4.2923 H         1 <0>         0.0925
     30 H4          5.2449    1.8348    4.4004 H         1 <0>         0.1387
     31 H5          3.2728    0.4832    3.8228 H         1 <0>         0.1390
     32 H6          4.3247   -2.3261    6.8878 H         1 <0>         0.2345
     33 H7          6.2969   -0.9652    7.4428 H         1 <0>         0.1301
     34 H8          1.4452   -4.9121    4.7178 H         1 <0>         0.0812
     35 H9          1.1344   -3.5320    3.6374 H         1 <0>         0.0869
     36 H10         3.9727   -4.6945    3.6837 H         1 <0>         0.1097
     37 H11         2.0814   -3.4562    1.5096 H         1 <0>         0.0953
     38 H12         3.8441   -3.9404    1.2648 H         1 <0>         0.0935
     39 H13         3.2719   -6.3340    1.8794 H         1 <0>         0.0964
     40 H14         1.5092   -5.8497    2.1242 H         1 <0>         0.0965
     41 H15         2.6544   -4.6589    6.6454 H         1 <0>         0.0972
     42 H16         3.3656   -1.7667    7.3135 H         1 <0>         0.1312
     43 H17         1.8377   -2.5817    7.7256 H         1 <0>         0.0766
     44 H18         3.4000   -2.5931    9.6511 H         1 <0>         0.0735
     45 H19         3.0889   -4.2469    9.0710 H         1 <0>         0.0703
     46 H20         5.5079   -2.5321    8.3466 H         1 <0>         0.0670
     47 H21         5.5062   -3.8924    9.4946 H         1 <0>         0.0741
     48 H22         6.3246   -4.6093    7.2664 H         1 <0>         0.0717
     49 H23         4.7967   -5.4243    7.6784 H         1 <0>         0.0689
     50 H24         4.7623   -4.5978    5.3408 H         1 <0>         0.0759
     51 H25         5.0734   -2.9441    5.9209 H         1 <0>         0.1091
     52 H26         7.8865    0.0037    7.5942 H         1 <0>         0.3858
@<TRIPOS>BOND
     1    1    2 1
     2    1   27 1
     3    1   28 1
     4    1   29 1
     5    2    3 1
     6    2   22 1
     7    2   26 1
     8    3    8 ar
     9    3    4 ar
    10    4    5 ar
    11    4   30 1
    12    5    6 ar
    13    5   31 1
    14    6    7 ar
    15    6    9 1
    16    7    8 ar
    17    7   32 1
    18    8   33 1
    19    9   10 2
    20    9   11 am
    21   11   12 1
    22   11   16 1
    23   12   13 1
    24   12   34 1
    25   12   35 1
    26   13   15 1
    27   13   14 1
    28   13   36 1
    29   14   15 1
    30   14   37 1
    31   14   38 1
    32   15   39 1
    33   15   40 1
    34   16   21 1
    35   16   17 1
    36   16   41 1
    37   17   18 1
    38   17   42 1
    39   17   43 1
    40   18   19 1
    41   18   44 1
    42   18   45 1
    43   19   20 1
    44   19   46 1
    45   19   47 1
    46   20   21 1
    47   20   48 1
    48   20   49 1
    49   21   50 1
    50   21   51 1
    51   22   23 1
    52   22   24 1
    53   22   25 1
    54   26   52 1
@<TRIPOS>MOLECULE
CHEMBL444567__1
   52    54     0     0     0
SMALL
USER_CHARGES

@<TRIPOS>ATOM
      1 C1          1.4422    2.4481    9.0843 C.3       1 <0>        -0.1502
      2 C2          2.7467    1.6496    9.0482 C.3       1 <0>         0.1434
      3 C3          2.6838    0.6345    7.9361 C.ar      1 <0>        -0.1056
      4 C4          1.9393    0.9020    6.8009 C.ar      1 <0>        -0.1068
      5 C5          1.8775   -0.0229    5.7792 C.ar      1 <0>        -0.0557
      6 C6          2.5680   -1.2306    5.8925 C.ar      1 <0>        -0.1355
      7 C7          3.3171   -1.4941    7.0403 C.ar      1 <0>        -0.1573
      8 C8          3.3752   -0.5583    8.0523 C.ar      1 <0>        -0.1185
      9 C9          2.5059   -2.2266    4.8016 C.2       1 <0>         0.5831
     10 O1          1.5265   -2.2814    4.0838 O.2       1 <0>        -0.5056
     11 N1          3.5351   -3.0738    4.6032 N.am      1 <0>        -0.6337
     12 C10         3.9636   -3.3993    3.2406 C.3       1 <0>         0.1517
     13 C11         5.1154   -2.4778    2.8342 C.3       1 <0>        -0.1802
     14 C12         4.8484   -1.4616    1.7221 C.3       1 <0>        -0.1780
     15 C13         5.7284   -2.6826    1.4475 C.3       1 <0>        -0.1715
     16 C14         4.2254   -3.6691    5.7500 C.3       1 <0>         0.1496
     17 C15         3.2249   -3.8987    6.8845 C.3       1 <0>        -0.2159
     18 C16         3.9459   -4.5205    8.0823 C.3       1 <0>        -0.1161
     19 C17         5.0502   -3.5752    8.5597 C.3       1 <0>        -0.1389
     20 C18         6.0507   -3.3457    7.4251 C.3       1 <0>        -0.1205
     21 C19         5.3298   -2.7239    6.2274 C.3       1 <0>        -0.1895
     22 C20         3.9203    2.6006    8.8049 C.3       1 <0>         0.4260
     23 F1          3.9787    3.5429    9.8373 F         1 <0>        -0.1714
     24 F2          5.1132    1.8704    8.7718 F         1 <0>        -0.1805
     25 F3          3.7420    3.2581    7.5829 F         1 <0>        -0.1733
     26 O2          2.9288    0.9780   10.2963 O.3       1 <0>        -0.5188
     27 H1          0.6061    1.7706    9.2577 H         1 <0>         0.0929
     28 H2          1.4877    3.1823    9.8887 H         1 <0>         0.0844
     29 H3          1.3033    2.9604    8.1323 H         1 <0>         0.0897
     30 H4          1.4052    1.8367    6.7146 H         1 <0>         0.1387
     31 H5          1.2958    0.1869    4.8937 H         1 <0>         0.1390
     32 H6          3.8537   -2.4267    7.1342 H         1 <0>         0.2345
     33 H7          3.9580   -0.7590    8.9391 H         1 <0>         0.1301
     34 H8          4.2972   -4.4363    3.2026 H         1 <0>         0.0813
     35 H9          3.1282   -3.2611    2.5542 H         1 <0>         0.0869
     36 H10         5.7842   -2.1776    3.6409 H         1 <0>         0.1096
     37 H11         3.8522   -1.4495    1.2799 H         1 <0>         0.0954
     38 H12         5.3415   -0.4924    1.7969 H         1 <0>         0.0935
     39 H13         6.8005   -2.5168    1.3417 H         1 <0>         0.0964
     40 H14         5.3112   -3.4739    0.8246 H         1 <0>         0.0965
     41 H15         4.6651   -4.6219    5.4549 H         1 <0>         0.0972
     42 H16         2.7853   -2.9460    7.1796 H         1 <0>         0.1316
     43 H17         2.4382   -4.5721    6.5444 H         1 <0>         0.0765
     44 H18         3.2331   -4.6840    8.8905 H         1 <0>         0.0736
     45 H19         4.3855   -5.4732    7.7872 H         1 <0>         0.0701
     46 H20         4.6106   -2.6225    8.8548 H         1 <0>         0.0671
     47 H21         5.5638   -4.0182    9.4130 H         1 <0>         0.0741
     48 H22         6.8375   -2.6723    7.7652 H         1 <0>         0.0715
     49 H23         6.4904   -4.2984    7.1301 H         1 <0>         0.0691
     50 H24         6.0426   -2.5604    5.4191 H         1 <0>         0.0760
     51 H25         4.8901   -1.7712    6.5225 H         1 <0>         0.1085
     52 H26         3.7380    0.4508   10.3450 H         1 <0>         0.3857
@<TRIPOS>BOND
     1    1    2 1
     2    1   27 1
     3    1   28 1
     4    1   29 1
     5    2    3 1
     6    2   22 1
     7    2   26 1
     8    3    8 ar
     9    3    4 ar
    10    4    5 ar
    11    4   30 1
    12    5    6 ar
    13    5   31 1
    14    6    7 ar
    15    6    9 1
    16    7    8 ar
    17    7   32 1
    18    8   33 1
    19    9   10 2
    20    9   11 am
    21   11   12 1
    22   11   16 1
    23   12   13 1
    24   12   34 1
    25   12   35 1
    26   13   15 1
    27   13   14 1
    28   13   36 1
    29   14   15 1
    30   14   37 1
    31   14   38 1
    32   15   39 1
    33   15   40 1
    34   16   21 1
    35   16   17 1
    36   16   41 1
    37   17   18 1
    38   17   42 1
    39   17   43 1
    40   18   19 1
    41   18   44 1
    42   18   45 1
    43   19   20 1
    44   19   46 1
    45   19   47 1
    46   20   21 1
    47   20   48 1
    48   20   49 1
    49   21   50 1
    50   21   51 1
    51   22   23 1
    52   22   24 1
    53   22   25 1
    54   26   52 1
@<TRIPOS>MOLECULE
CHEMBL260833
   47    49     0     0     0
SMALL
USER_CHARGES

@<TRIPOS>ATOM
      1 C1         -5.1588   -0.0524    3.0956 C.3       1 <0>        -0.1480
      2 C2         -4.5255   -1.4002    2.7446 C.3       1 <0>        -0.0938
      3 C3         -3.5359   -1.7997    3.8415 C.3       1 <0>        -0.1309
      4 C4         -2.9296   -3.1655    3.5040 C.3       1 <0>         0.0932
      5 N1         -2.3453   -3.1038    2.1573 N.am      1 <0>        -0.6037
      6 C5         -3.1856   -2.6447    1.0430 C.3       1 <0>         0.1104
      7 C6         -3.7890   -1.2848    1.4080 C.3       1 <0>        -0.1305
      8 C7         -1.0626   -3.4610    1.9484 C.2       1 <0>         0.5673
      9 O1         -0.6108   -3.4717    0.8200 O.2       1 <0>        -0.5212
     10 C8         -0.2052   -3.8399    3.0915 C.ar      1 <0>        -0.1759
     11 C9         -0.6422   -4.7863    4.0264 C.ar      1 <0>        -0.0293
     12 C10         0.1984   -5.1062    5.0776 C.ar      1 <0>        -0.1520
     13 C11         1.4321   -4.4869    5.1708 C.ar      1 <0>         0.1431
     14 N2          1.8175   -3.5986    4.2749 N.ar      1 <0>        -0.4719
     15 C12         1.0556   -3.2648    3.2539 C.ar      1 <0>         0.1644
     16 C13        -0.2254   -6.1183    6.1107 C.3       1 <0>        -0.5578
     17 S1          0.3017   -7.7734    5.5875 S.o2      1 <0>         2.4774
     18 O2         -0.4260   -8.1776    4.4359 O.2       1 <0>        -0.9042
     19 O3          1.7192   -7.8683    5.6190 O.2       1 <0>        -0.9024
     20 C14        -0.2496   -8.8502    6.8686 C.ar      1 <0>        -0.6623
     21 C15         0.5723   -9.1185    7.9484 C.ar      1 <0>         0.0566
     22 C16         0.1388   -9.9642    8.9541 C.ar      1 <0>        -0.1260
     23 C17        -1.1150  -10.5412    8.8797 C.ar      1 <0>        -0.0375
     24 C18        -1.9367  -10.2734    7.8010 C.ar      1 <0>        -0.1264
     25 C19        -1.5068   -9.4230    6.7978 C.ar      1 <0>         0.0564
     26 Cl1        -2.5419   -9.0807    5.4469 Cl        1 <0>        -0.0115
     27 Cl2         2.1475   -8.3949    8.0415 Cl        1 <0>        -0.0094
     28 H1         -5.8646    0.2317    2.3151 H         1 <0>         0.0572
     29 H2         -5.6834   -0.1344    4.0475 H         1 <0>         0.0561
     30 H3         -4.3795    0.7057    3.1744 H         1 <0>         0.0550
     31 H4         -5.3049   -2.1580    2.6654 H         1 <0>         0.0736
     32 H5         -2.7424   -1.0550    3.9044 H         1 <0>         0.0692
     33 H6         -4.0566   -1.8589    4.7972 H         1 <0>         0.0781
     34 H7         -2.1528   -3.4096    4.2286 H         1 <0>         0.0895
     35 H8         -3.7086   -3.9275    3.5297 H         1 <0>         0.0760
     36 H9         -2.5776   -2.5452    0.1437 H         1 <0>         0.0965
     37 H10        -3.9855   -3.3642    0.8680 H         1 <0>         0.0720
     38 H11        -4.4898   -0.9775    0.6318 H         1 <0>         0.0791
     39 H12        -2.9931   -0.5449    1.4939 H         1 <0>         0.0685
     40 H13        -1.6108   -5.2542    3.9295 H         1 <0>         0.1509
     41 H14         2.0901   -4.7345    5.9906 H         1 <0>         0.1713
     42 H15         1.4080   -2.5366    2.5384 H         1 <0>         0.1718
     43 H16         0.2361   -5.8756    7.0678 H         1 <0>         0.1529
     44 H17        -1.3102   -6.0986    6.2150 H         1 <0>         0.1494
     45 H18         0.7804  -10.1738    9.7971 H         1 <0>         0.1527
     46 H19        -1.4526  -11.2018    9.6645 H         1 <0>         0.1537
     47 H20        -2.9161  -10.7248    7.7432 H         1 <0>         0.1522
@<TRIPOS>BOND
     1    1    2 1
     2    1   28 1
     3    1   29 1
     4    1   30 1
     5    2    7 1
     6    2    3 1
     7    2   31 1
     8    3    4 1
     9    3   32 1
    10    3   33 1
    11    4    5 1
    12    4   34 1
    13    4   35 1
    14    5    6 1
    15    5    8 am
    16    6    7 1
    17    6   36 1
    18    6   37 1
    19    7   38 1
    20    7   39 1
    21    8    9 2
    22    8   10 1
    23   10   15 ar
    24   10   11 ar
    25   11   12 ar
    26   11   40 1
    27   12   13 ar
    28   12   16 1
    29   13   14 ar
    30   13   41 1
    31   14   15 ar
    32   15   42 1
    33   16   17 1
    34   16   43 1
    35   16   44 1
    36   17   18 2
    37   17   19 2
    38   17   20 1
    39   20   25 ar
    40   20   21 ar
    41   21   22 ar
    42   21   27 1
    43   22   23 ar
    44   22   45 1
    45   23   24 ar
    46   23   46 1
    47   24   25 ar
    48   24   47 1
    49   25   26 1
@<TRIPOS>MOLECULE
CHEMBL218569
   57    60     0     0     0
SMALL
USER_CHARGES

@<TRIPOS>ATOM
      1 C1         -0.0187    1.5258    0.0104 C.3       1 <0>        -0.1401
      2 C2          0.0021   -0.0041    0.0020 C.3       1 <0>        -0.0856
      3 C3          0.8030   -0.5278   -1.2126 C.3       1 <0>        -0.0962
      4 C4          1.5014   -1.7704   -0.6172 C.3       1 <0>         0.1054
      5 N1          1.5956   -1.5135    0.8246 N.am      1 <0>        -0.6100
      6 C5          0.7602   -0.5299    1.2009 C.2       1 <0>         0.5267
      7 O1          0.6330   -0.1230    2.3363 O.2       1 <0>        -0.5162
      8 C6          2.4857   -2.2361    1.7367 C.3       1 <0>         0.1879
      9 C7          2.1408   -3.7265    1.7116 C.3       1 <0>        -0.1219
     10 C8          3.0704   -4.4812    2.6641 C.3       1 <0>        -0.0898
     11 C9          4.0350   -3.4939    3.3242 C.3       1 <0>        -0.0779
     12 C10         3.2382   -2.4501    4.1095 C.3       1 <0>        -0.1064
     13 C11         2.3086   -1.6955    3.1570 C.3       1 <0>        -0.1029
     14 C12         4.8667   -2.7956    2.2464 C.3       1 <0>        -0.1009
     15 C13         3.9371   -2.0409    1.2939 C.3       1 <0>        -0.1197
     16 C14         4.9506   -4.2372    4.2623 C.2       1 <0>         0.5281
     17 O2          4.8423   -5.4383    4.3904 O.2       1 <0>        -0.5389
     18 N2          5.8898   -3.5672    4.9591 N.am      1 <0>        -0.8544
     19 C15         1.8295    0.5066   -1.6787 C.3       1 <0>         0.0747
     20 O3          2.4687    0.0405   -2.8688 O.3       1 <0>        -0.2973
     21 C16         3.4125    0.8450   -3.4159 C.ar      1 <0>         0.3520
     22 C17         4.0640    0.4451   -4.5784 C.ar      1 <0>        -0.1882
     23 C18         5.0235    1.2684   -5.1312 C.ar      1 <0>         0.0081
     24 C19         5.3052    2.4855   -4.4929 C.ar      1 <0>        -0.1203
     25 C20         4.6088    2.8162   -3.3296 C.ar      1 <0>         0.1998
     26 N3          3.6969    2.0022   -2.8394 N.ar      1 <0>        -0.5379
     27 C21         6.2927    3.3747   -5.0265 C.1       1 <0>         0.2563
     28 N4          7.0761    4.0801   -5.4498 N.1       1 <0>        -0.4064
     29 C22        -1.4242   -0.5576   -0.0146 C.3       1 <0>        -0.1314
     30 H1          1.0039    1.9031    0.0027 H         1 <0>         0.0636
     31 H2         -0.5459    1.8868   -0.8726 H         1 <0>         0.0697
     32 H3         -0.5289    1.8773    0.9072 H         1 <0>         0.0718
     33 H4          0.1362   -0.8082   -2.0279 H         1 <0>         0.1124
     34 H5          0.9049   -2.6636   -0.8031 H         1 <0>         0.0782
     35 H6          2.4971   -1.8850   -1.0458 H         1 <0>         0.0851
     36 H7          1.1067   -3.8655    2.0270 H         1 <0>         0.0707
     37 H8          2.2669   -4.1116    0.6997 H         1 <0>         0.0697
     38 H9          2.4778   -4.9786    3.4319 H         1 <0>         0.0748
     39 H10         3.6380   -5.2247    2.1046 H         1 <0>         0.0747
     40 H11         2.6456   -2.9476    4.8773 H         1 <0>         0.0722
     41 H12         3.9254   -1.7468    4.5797 H         1 <0>         0.0696
     42 H13         2.5543   -0.6337    3.1749 H         1 <0>         0.0803
     43 H14         1.2746   -1.8345    3.4724 H         1 <0>         0.0812
     44 H15         5.5539   -2.0922    2.7167 H         1 <0>         0.0709
     45 H16         5.4343   -3.5392    1.6869 H         1 <0>         0.0734
     46 H17         4.0633   -2.4261    0.2821 H         1 <0>         0.0705
     47 H18         4.1828   -0.9791    1.3118 H         1 <0>         0.0707
     48 H19         5.9764   -2.6065    4.8566 H         1 <0>         0.4010
     49 H20         6.4791   -4.0456    5.5629 H         1 <0>         0.4023
     50 H21         1.3262    1.4516   -1.8829 H         1 <0>         0.0845
     51 H22         2.5767    0.6540   -0.8989 H         1 <0>         0.0732
     52 H23         3.8217   -0.4993   -5.0428 H         1 <0>         0.1549
     53 H24         5.5450    0.9827   -6.0328 H         1 <0>         0.1535
     54 H25         4.8169    3.7502   -2.8288 H         1 <0>         0.1715
     55 H26        -1.9364   -0.2151   -0.9137 H         1 <0>         0.0722
     56 H27        -1.3912   -1.6470   -0.0078 H         1 <0>         0.0612
     57 H28        -1.9611   -0.2048    0.8661 H         1 <0>         0.0697
@<TRIPOS>BOND
     1    1    2 1
     2    1   30 1
     3    1   31 1
     4    1   32 1
     5    2    6 1
     6    2    3 1
     7    2   29 1
     8    3    4 1
     9    3   19 1
    10    3   33 1
    11    4    5 1
    12    4   34 1
    13    4   35 1
    14    5    6 am
    15    5    8 1
    16    6    7 2
    17    8   13 1
    18    8   15 1
    19    8    9 1
    20    9   10 1
    21    9   36 1
    22    9   37 1
    23   10   11 1
    24   10   38 1
    25   10   39 1
    26   11   12 1
    27   11   14 1
    28   11   16 1
    29   12   13 1
    30   12   40 1
    31   12   41 1
    32   13   42 1
    33   13   43 1
    34   14   15 1
    35   14   44 1
    36   14   45 1
    37   15   46 1
    38   15   47 1
    39   16   17 2
    40   16   18 am
    41   18   48 1
    42   18   49 1
    43   19   20 1
    44   19   50 1
    45   19   51 1
    46   20   21 1
    47   21   26 ar
    48   21   22 ar
    49   22   23 ar
    50   22   52 1
    51   23   24 ar
    52   23   53 1
    53   24   25 ar
    54   24   27 1
    55   25   26 ar
    56   25   54 1
    57   27   28 3
    58   29   55 1
    59   29   56 1
    60   29   57 1
@<TRIPOS>MOLECULE
CHEMBL218569__1
   57    60     0     0     0
SMALL
USER_CHARGES

@<TRIPOS>ATOM
      1 C1         -0.0187    1.5258    0.0104 C.3       1 <0>        -0.1324
      2 C2          0.0021   -0.0041    0.0020 C.3       1 <0>        -0.0859
      3 C3          0.8030   -0.5278   -1.2126 C.3       1 <0>        -0.0955
      4 C4          1.5014   -1.7704   -0.6172 C.3       1 <0>         0.1074
      5 N1          1.5956   -1.5135    0.8246 N.am      1 <0>        -0.6101
      6 C5          0.7602   -0.5299    1.2009 C.2       1 <0>         0.5293
      7 O1          0.6330   -0.1230    2.3363 O.2       1 <0>        -0.5160
      8 C6          2.4857   -2.2361    1.7367 C.3       1 <0>         0.1874
      9 C7          2.1408   -3.7265    1.7116 C.3       1 <0>        -0.1222
     10 C8          3.0704   -4.4812    2.6641 C.3       1 <0>        -0.0897
     11 C9          4.0350   -3.4939    3.3242 C.3       1 <0>        -0.0781
     12 C10         3.2382   -2.4501    4.1095 C.3       1 <0>        -0.1064
     13 C11         2.3086   -1.6955    3.1570 C.3       1 <0>        -0.1031
     14 C12         4.8667   -2.7956    2.2464 C.3       1 <0>        -0.1011
     15 C13         3.9371   -2.0409    1.2939 C.3       1 <0>        -0.1204
     16 C14         4.9506   -4.2372    4.2623 C.2       1 <0>         0.5281
     17 O2          4.8423   -5.4383    4.3904 O.2       1 <0>        -0.5390
     18 N2          5.8898   -3.5672    4.9591 N.am      1 <0>        -0.8543
     19 C15        -0.1330   -0.9215   -2.3571 C.3       1 <0>         0.0795
     20 O3          0.6412   -1.2893   -3.5005 O.3       1 <0>        -0.2978
     21 C16        -0.0403   -1.6674   -4.6094 C.ar      1 <0>         0.3519
     22 C17         0.6615   -2.0419   -5.7510 C.ar      1 <0>        -0.1881
     23 C18        -0.0375   -2.4263   -6.8768 C.ar      1 <0>         0.0081
     24 C19        -1.4395   -2.4238   -6.8238 C.ar      1 <0>        -0.1203
     25 C20        -2.0710   -2.0350   -5.6416 C.ar      1 <0>         0.2001
     26 N3         -1.3639   -1.6803   -4.5888 N.ar      1 <0>        -0.5382
     27 C21        -2.2108   -2.8139   -7.9656 C.1       1 <0>         0.2563
     28 N4         -2.8226   -3.1233   -8.8713 N.1       1 <0>        -0.4065
     29 C22        -1.4242   -0.5576   -0.0146 C.3       1 <0>        -0.1397
     30 H1          1.0039    1.9031    0.0027 H         1 <0>         0.0601
     31 H2         -0.5459    1.8868   -0.8726 H         1 <0>         0.0678
     32 H3         -0.5289    1.8773    0.9072 H         1 <0>         0.0712
     33 H4          1.5343    0.2091   -1.5447 H         1 <0>         0.1056
     34 H5          0.9049   -2.6636   -0.8031 H         1 <0>         0.0741
     35 H6          2.4971   -1.8850   -1.0458 H         1 <0>         0.0851
     36 H7          1.1067   -3.8655    2.0270 H         1 <0>         0.0703
     37 H8          2.2669   -4.1116    0.6997 H         1 <0>         0.0695
     38 H9          2.4778   -4.9786    3.4319 H         1 <0>         0.0747
     39 H10         3.6380   -5.2247    2.1046 H         1 <0>         0.0748
     40 H11         2.6456   -2.9476    4.8773 H         1 <0>         0.0721
     41 H12         3.9254   -1.7468    4.5797 H         1 <0>         0.0698
     42 H13         2.5543   -0.6337    3.1749 H         1 <0>         0.0806
     43 H14         1.2746   -1.8345    3.4724 H         1 <0>         0.0810
     44 H15         5.5539   -2.0922    2.7167 H         1 <0>         0.0713
     45 H16         5.4343   -3.5392    1.6869 H         1 <0>         0.0736
     46 H17         4.0633   -2.4261    0.2821 H         1 <0>         0.0713
     47 H18         4.1828   -0.9791    1.3118 H         1 <0>         0.0721
     48 H19         5.9764   -2.6065    4.8566 H         1 <0>         0.4010
     49 H20         6.4791   -4.0456    5.5629 H         1 <0>         0.4023
     50 H21        -0.7491   -1.7660   -2.0484 H         1 <0>         0.0802
     51 H22        -0.7742   -0.0768   -2.6089 H         1 <0>         0.0814
     52 H23         1.7414   -2.0314   -5.7560 H         1 <0>         0.1547
     53 H24         0.4817   -2.7214   -7.7767 H         1 <0>         0.1534
     54 H25        -3.1497   -2.0286   -5.5884 H         1 <0>         0.1719
     55 H26        -1.9364   -0.2151   -0.9137 H         1 <0>         0.0750
     56 H27        -1.3912   -1.6470   -0.0078 H         1 <0>         0.0614
     57 H28        -1.9611   -0.2048    0.8661 H         1 <0>         0.0702
@<TRIPOS>BOND
     1    1    2 1
     2    1   30 1
     3    1   31 1
     4    1   32 1
     5    2    6 1
     6    2    3 1
     7    2   29 1
     8    3    4 1
     9    3   19 1
    10    3   33 1
    11    4    5 1
    12    4   34 1
    13    4   35 1
    14    5    6 am
    15    5    8 1
    16    6    7 2
    17    8   13 1
    18    8   15 1
    19    8    9 1
    20    9   10 1
    21    9   36 1
    22    9   37 1
    23   10   11 1
    24   10   38 1
    25   10   39 1
    26   11   12 1
    27   11   14 1
    28   11   16 1
    29   12   13 1
    30   12   40 1
    31   12   41 1
    32   13   42 1
    33   13   43 1
    34   14   15 1
    35   14   44 1
    36   14   45 1
    37   15   46 1
    38   15   47 1
    39   16   17 2
    40   16   18 am
    41   18   48 1
    42   18   49 1
    43   19   20 1
    44   19   50 1
    45   19   51 1
    46   20   21 1
    47   21   26 ar
    48   21   22 ar
    49   22   23 ar
    50   22   52 1
    51   23   24 ar
    52   23   53 1
    53   24   25 ar
    54   24   27 1
    55   25   26 ar
    56   25   54 1
    57   27   28 3
    58   29   55 1
    59   29   56 1
    60   29   57 1
@<TRIPOS>MOLECULE
CHEMBL245393
   43    46     0     0     0
SMALL
USER_CHARGES

@<TRIPOS>ATOM
      1 C1          0.2329    1.4428   -0.5351 C.3       1 <0>        -0.1210
      2 C2          1.6365    2.0074   -0.3041 C.3       1 <0>        -0.1350
      3 C3          2.1466    1.5516    1.0666 C.3       1 <0>         0.1093
      4 N1          2.0663    0.0863    1.1378 N.am      1 <0>        -0.6131
      5 C4          0.7831   -0.5660    0.8438 C.3       1 <0>         0.1041
      6 C5          0.2883   -0.0865   -0.5244 C.3       1 <0>        -0.1373
      7 C6          3.1494   -0.6456    1.4661 C.2       1 <0>         0.5241
      8 O1          4.2256   -0.1052    1.6097 O.2       1 <0>        -0.5329
      9 C7          3.0231   -2.1354    1.6547 C.3       1 <0>        -0.0955
     10 C8          2.1202   -2.4227    2.8559 C.3       1 <0>        -0.0790
     11 C9          2.7301   -1.7993    4.1131 C.3       1 <0>        -0.1086
     12 C10         4.1148   -2.4013    4.3604 C.3       1 <0>        -0.0859
     13 C11         3.9866   -3.9138    4.5519 C.3       1 <0>        -0.1088
     14 C12         3.3767   -4.5372    3.2948 C.3       1 <0>        -0.0872
     15 C13         1.9920   -3.9352    3.0474 C.3       1 <0>        -0.1067
     16 C14         4.2796   -4.2499    2.0935 C.3       1 <0>        -0.1093
     17 C15         4.4078   -2.7373    1.9020 C.3       1 <0>        -0.0630
     18 C16         5.0178   -2.1140    3.1591 C.3       1 <0>        -0.1230
     19 H1         -0.4321    1.7877    0.2567 H         1 <0>         0.0648
     20 H2         -0.1423    1.7859   -1.4993 H         1 <0>         0.0664
     21 H3          2.3078    1.6430   -1.0817 H         1 <0>         0.0662
     22 H4          1.6003    3.0964   -0.3351 H         1 <0>         0.0751
     23 H5          3.1819    1.8676    1.1948 H         1 <0>         0.0923
     24 H6          1.5290    1.9899    1.8506 H         1 <0>         0.0659
     25 H7          0.9188   -1.6474    0.8249 H         1 <0>         0.0883
     26 H8          0.0543   -0.3005    1.6096 H         1 <0>         0.0700
     27 H9         -0.7076   -0.4879   -0.7123 H         1 <0>         0.0767
     28 H10         0.9723   -0.4313   -1.2999 H         1 <0>         0.0671
     29 H11         2.5886   -2.5795    0.7591 H         1 <0>         0.0921
     30 H12         1.1337   -1.9938    2.6797 H         1 <0>         0.0762
     31 H13         2.8214   -0.7218    3.9766 H         1 <0>         0.0591
     32 H14         2.0868   -2.0040    4.9688 H         1 <0>         0.0641
     33 H15         4.5493   -1.9572    5.2560 H         1 <0>         0.0679
     34 H16         4.9731   -4.3427    4.7281 H         1 <0>         0.0619
     35 H17         3.3433   -4.1185    5.4077 H         1 <0>         0.0602
     36 H18         3.2853   -5.6147    3.4312 H         1 <0>         0.0707
     37 H19         1.3487   -4.1399    3.9032 H         1 <0>         0.0669
     38 H20         1.5574   -4.3793    2.1518 H         1 <0>         0.0636
     39 H21         5.2661   -4.6787    2.2697 H         1 <0>         0.0664
     40 H22         3.8451   -4.6940    1.1979 H         1 <0>         0.0613
     41 H23         5.0511   -2.5327    1.0462 H         1 <0>         0.0730
     42 H24         5.1091   -1.0364    3.0227 H         1 <0>         0.0947
     43 H25         6.0043   -2.5428    3.3353 H         1 <0>         0.0576
@<TRIPOS>BOND
     1    1    6 1
     2    1    2 1
     3    1   19 1
     4    1   20 1
     5    2    3 1
     6    2   21 1
     7    2   22 1
     8    3    4 1
     9    3   23 1
    10    3   24 1
    11    4    5 1
    12    4    7 am
    13    5    6 1
    14    5   25 1
    15    5   26 1
    16    6   27 1
    17    6   28 1
    18    7    8 2
    19    7    9 1
    20    9   17 1
    21    9   10 1
    22    9   29 1
    23   10   15 1
    24   10   11 1
    25   10   30 1
    26   11   12 1
    27   11   31 1
    28   11   32 1
    29   12   18 1
    30   12   13 1
    31   12   33 1
    32   13   14 1
    33   13   34 1
    34   13   35 1
    35   14   15 1
    36   14   16 1
    37   14   36 1
    38   15   37 1
    39   15   38 1
    40   16   17 1
    41   16   39 1
    42   16   40 1
    43   17   18 1
    44   17   41 1
    45   18   42 1
    46   18   43 1
@<TRIPOS>MOLECULE
CHEMBL522701
   50    54     0     0     0
SMALL
USER_CHARGES

@<TRIPOS>ATOM
      1 C1         -1.0215    1.3518    0.2265 C.3       1 <0>         0.0658
      2 N1         -0.3637    0.0471    0.1204 N.pl3     1 <0>        -0.4634
      3 C2          0.1328   -0.5378   -1.0135 C.2       1 <0>         0.2036
      4 N2          0.6356   -1.6995   -0.6575 N.2       1 <0>        -0.2512
      5 N3          0.4838   -1.8684    0.6077 N.2       1 <0>        -0.2808
      6 C3         -0.1145   -0.8313    1.1298 C.2       1 <0>         0.2058
      7 C4         -0.4675   -0.6435    2.5828 C.3       1 <0>         0.0356
      8 C5         -0.4100   -1.9426    3.4036 C.3       1 <0>        -0.1062
      9 C6         -1.6825   -1.4556    4.1167 C.3       1 <0>        -0.1380
     10 C7         -1.9814   -0.6327    2.8525 C.3       1 <0>        -0.1318
     11 C8          0.2673    0.5080    3.2194 C.ar      1 <0>        -0.0607
     12 C9          1.6421    0.4594    3.3560 C.ar      1 <0>        -0.0889
     13 C10         2.3166    1.5152    3.9397 C.ar      1 <0>        -0.1056
     14 C11         1.6156    2.6208    4.3874 C.ar      1 <0>        -0.0315
     15 C12         0.2397    2.6688    4.2503 C.ar      1 <0>        -0.1073
     16 C13        -0.4330    1.6149    3.6613 C.ar      1 <0>        -0.1038
     17 Cl1         2.4620    3.9470    5.1212 Cl        1 <0>        -0.0650
     18 C14         0.1083    0.0290   -2.3785 C.ar      1 <0>        -0.0075
     19 C15         0.2717    1.4029   -2.5677 C.ar      1 <0>        -0.0874
     20 C16         0.2493    1.9300   -3.8393 C.ar      1 <0>        -0.1041
     21 C17         0.0634    1.0925   -4.9394 C.ar      1 <0>        -0.0117
     22 C18        -0.1000   -0.2796   -4.7528 C.ar      1 <0>        -0.1017
     23 C19        -0.0726   -0.8104   -3.4809 C.ar      1 <0>         0.0045
     24 Cl2        -0.2693   -2.5194   -3.2484 Cl        1 <0>        -0.0299
     25 C20         0.0390    1.6621   -6.3084 C.ar      1 <0>        -0.1055
     26 C21        -0.1523    0.8345   -7.4190 C.ar      1 <0>        -0.0621
     27 C22        -0.1675    1.4150   -8.6753 C.ar      1 <0>        -0.1671
     28 C23         0.0054    2.7825   -8.7909 C.ar      1 <0>         0.1049
     29 N4          0.1843    3.5380   -7.7247 N.ar      1 <0>        -0.4807
     30 C24         0.2006    3.0317   -6.5086 C.ar      1 <0>         0.1156
     31 H1         -0.2918    2.1032    0.5280 H         1 <0>         0.0854
     32 H2         -1.4457    1.6244   -0.7399 H         1 <0>         0.0953
     33 H3         -1.8166    1.2984    0.9702 H         1 <0>         0.0930
     34 H4         -0.5608   -2.8427    2.8077 H         1 <0>         0.1004
     35 H5          0.4594   -2.0076    4.0578 H         1 <0>         0.0794
     36 H6         -2.4080   -2.2471    4.3042 H         1 <0>         0.0786
     37 H7         -1.4830   -0.8456    4.9978 H         1 <0>         0.0868
     38 H8         -2.3806    0.3598    3.0618 H         1 <0>         0.0805
     39 H9         -2.5618   -1.1746    2.1058 H         1 <0>         0.0901
     40 H10         2.1892   -0.4039    3.0069 H         1 <0>         0.1339
     41 H11         3.3906    1.4769    4.0468 H         1 <0>         0.1364
     42 H12        -0.3080    3.5315    4.5998 H         1 <0>         0.1370
     43 H13        -1.5066    1.6544    3.5500 H         1 <0>         0.1374
     44 H14         0.4153    2.0520   -1.7165 H         1 <0>         0.1362
     45 H15         0.3753    2.9926   -3.9852 H         1 <0>         0.1412
     46 H16        -0.2438   -0.9271   -5.6051 H         1 <0>         0.1441
     47 H17        -0.2845   -0.2307   -7.2996 H         1 <0>         0.1394
     48 H18        -0.3125    0.8068   -9.5559 H         1 <0>         0.1414
     49 H19        -0.0059    3.2388   -9.7697 H         1 <0>         0.1602
     50 H20         0.3451    3.6832   -5.6595 H         1 <0>         0.1592
@<TRIPOS>BOND
     1    1    2 1
     2    1   31 1
     3    1   32 1
     4    1   33 1
     5    2    6 1
     6    2    3 1
     7    3    4 2
     8    3   18 1
     9    4    5 1
    10    5    6 2
    11    6    7 1
    12    7   10 1
    13    7    8 1
    14    7   11 1
    15    8    9 1
    16    8   34 1
    17    8   35 1
    18    9   10 1
    19    9   36 1
    20    9   37 1
    21   10   38 1
    22   10   39 1
    23   11   16 ar
    24   11   12 ar
    25   12   13 ar
    26   12   40 1
    27   13   14 ar
    28   13   41 1
    29   14   15 ar
    30   14   17 1
    31   15   16 ar
    32   15   42 1
    33   16   43 1
    34   18   23 ar
    35   18   19 ar
    36   19   20 ar
    37   19   44 1
    38   20   21 ar
    39   20   45 1
    40   21   22 ar
    41   21   25 1
    42   22   23 ar
    43   22   46 1
    44   23   24 1
    45   25   30 ar
    46   25   26 ar
    47   26   27 ar
    48   26   47 1
    49   27   28 ar
    50   27   48 1
    51   28   29 ar
    52   28   49 1
    53   29   30 ar
    54   30   50 1
@<TRIPOS>MOLECULE
CHEMBL245590
   43    46     0     0     0
SMALL
USER_CHARGES

@<TRIPOS>ATOM
      1 C1         -0.2397    1.6225    1.9580 C.3       1 <0>        -0.1207
      2 C2         -0.2335    0.1032    2.1415 C.3       1 <0>        -0.1387
      3 C3          0.7278   -0.5257    1.1279 C.3       1 <0>         0.0796
      4 N1          2.0468    0.1051    1.2728 N.am      1 <0>        -0.6095
      5 C4          2.1410    1.5697    1.2036 C.3       1 <0>         0.1090
      6 C5          1.1640    2.1750    2.2163 C.3       1 <0>        -0.1348
      7 C6          3.1494   -0.6456    1.4661 C.2       1 <0>         0.5250
      8 O1          4.2432   -0.1221    1.4882 O.2       1 <0>        -0.5383
      9 C7          3.0231   -2.1354    1.6547 C.3       1 <0>        -0.0677
     10 C8          2.1202   -2.4227    2.8559 C.3       1 <0>        -0.1152
     11 C9          1.9920   -3.9352    3.0474 C.3       1 <0>        -0.0841
     12 C10         3.3767   -4.5372    3.2948 C.3       1 <0>        -0.1102
     13 C11         4.2796   -4.2499    2.0935 C.3       1 <0>        -0.0869
     14 C12         4.4078   -2.7373    1.9020 C.3       1 <0>        -0.0864
     15 C13         3.6697   -4.8732    0.8364 C.3       1 <0>        -0.1102
     16 C14         2.2850   -4.2713    0.5890 C.3       1 <0>        -0.0840
     17 C15         1.3820   -4.5586    1.7903 C.3       1 <0>        -0.1106
     18 C16         2.4132   -2.7587    0.3976 C.3       1 <0>        -0.1165
     19 H1         -0.5432    1.8640    0.9393 H         1 <0>         0.0648
     20 H2         -0.9414    2.0704    2.6616 H         1 <0>         0.0666
     21 H3          0.0938   -0.1398    3.1524 H         1 <0>         0.0685
     22 H4         -1.2384   -0.2868    1.9803 H         1 <0>         0.0766
     23 H5          0.8114   -1.5956    1.3187 H         1 <0>         0.1144
     24 H6          0.3529   -0.3607    0.1178 H         1 <0>         0.0690
     25 H7          3.1571    1.8823    1.4443 H         1 <0>         0.0914
     26 H8          1.8814    1.9055    0.1996 H         1 <0>         0.0663
     27 H9          1.1536    3.2596    2.1083 H         1 <0>         0.0757
     28 H10         1.4780    1.9125    3.2266 H         1 <0>         0.0660
     29 H11         2.5547   -1.9786    3.7515 H         1 <0>         0.0671
     30 H12         1.1337   -1.9938    2.6797 H         1 <0>         0.0808
     31 H13         1.3487   -4.1399    3.9032 H         1 <0>         0.0746
     32 H14         3.8112   -4.0931    4.1904 H         1 <0>         0.0628
     33 H15         3.2853   -5.6147    3.4312 H         1 <0>         0.0646
     34 H16         5.2661   -4.6787    2.2697 H         1 <0>         0.0742
     35 H17         5.0511   -2.5327    1.0462 H         1 <0>         0.0692
     36 H18         4.8424   -2.2933    2.7976 H         1 <0>         0.0681
     37 H19         4.3130   -4.6686   -0.0194 H         1 <0>         0.0631
     38 H20         3.5784   -5.9508    0.9728 H         1 <0>         0.0646
     39 H21         1.8505   -4.7154   -0.3065 H         1 <0>         0.0750
     40 H22         1.2907   -5.6361    1.9267 H         1 <0>         0.0666
     41 H23         0.3956   -4.1297    1.6141 H         1 <0>         0.0626
     42 H24         1.4267   -2.3299    0.2214 H         1 <0>         0.0793
     43 H25         3.0565   -2.5541   -0.4582 H         1 <0>         0.0683
@<TRIPOS>BOND
     1    1    6 1
     2    1    2 1
     3    1   19 1
     4    1   20 1
     5    2    3 1
     6    2   21 1
     7    2   22 1
     8    3    4 1
     9    3   23 1
    10    3   24 1
    11    4    5 1
    12    4    7 am
    13    5    6 1
    14    5   25 1
    15    5   26 1
    16    6   27 1
    17    6   28 1
    18    7    8 2
    19    7    9 1
    20    9   14 1
    21    9   18 1
    22    9   10 1
    23   10   11 1
    24   10   29 1
    25   10   30 1
    26   11   17 1
    27   11   12 1
    28   11   31 1
    29   12   13 1
    30   12   32 1
    31   12   33 1
    32   13   14 1
    33   13   15 1
    34   13   34 1
    35   14   35 1
    36   14   36 1
    37   15   16 1
    38   15   37 1
    39   15   38 1
    40   16   17 1
    41   16   18 1
    42   16   39 1
    43   17   40 1
    44   17   41 1
    45   18   42 1
    46   18   43 1
@<TRIPOS>MOLECULE
CHEMBL563824
   72    76     0     0     0
SMALL
USER_CHARGES

@<TRIPOS>ATOM
      1 C1          2.0692    1.7219    1.1995 C.3       1 <0>        -0.1750
      2 C2          2.0654    0.2087    0.9732 C.3       1 <0>         0.0387
      3 C3          0.6764   -0.3505    1.2877 C.3       1 <0>        -0.0500
      4 C4          0.7047   -1.8536    1.1838 C.ar      1 <0>        -0.0593
      5 C5          0.4306   -2.4672   -0.0246 C.ar      1 <0>        -0.0905
      6 C6          0.4554   -3.8449   -0.1224 C.ar      1 <0>        -0.1127
      7 C7          0.7562   -4.6130    0.9932 C.ar      1 <0>         0.0772
      8 C8          1.0313   -3.9949    2.2045 C.ar      1 <0>        -0.1153
      9 C9          1.0102   -2.6166    2.2957 C.ar      1 <0>        -0.0797
     10 O1          0.7808   -5.9686    0.8997 O.3       1 <0>        -0.2438
     11 C10         1.8623   -6.5471    0.3227 C.ar      1 <0>         0.4257
     12 C11         1.9838   -7.9308    0.2850 C.ar      1 <0>        -0.3685
     13 C12         3.1118   -8.4813   -0.3184 C.ar      1 <0>         0.4982
     14 N1          4.0304   -7.6692   -0.8359 N.ar      1 <0>        -0.6419
     15 C13         3.8803   -6.3546   -0.7812 C.ar      1 <0>         0.6380
     16 N2          2.8176   -5.7979   -0.2193 N.ar      1 <0>        -0.6290
     17 N3          4.8565   -5.5414   -1.3296 N.pl3     1 <0>        -0.8150
     18 N4          3.2756   -9.8562   -0.3789 N.pl3     1 <0>        -0.5991
     19 C14         4.5497  -10.4461   -0.8171 C.3       1 <0>         0.1330
     20 C15         4.9919  -11.4790    0.2249 C.3       1 <0>         0.0397
     21 N5          3.9052  -12.4422    0.4466 N.3       1 <0>        -0.5310
     22 C16         2.7156  -11.7846    1.0036 C.3       1 <0>         0.0354
     23 C17         2.1821  -10.7642   -0.0007 C.3       1 <0>         0.1282
     24 C18         4.3481  -13.5465    1.3082 C.3       1 <0>         0.0929
     25 C19         3.3005  -14.6298    1.3149 C.ar      1 <0>        -0.0775
     26 C20         2.2857  -14.6042    2.2531 C.ar      1 <0>        -0.1154
     27 C21         1.3248  -15.5979    2.2592 C.ar      1 <0>        -0.1203
     28 C22         1.3784  -16.6170    1.3267 C.ar      1 <0>        -0.1207
     29 C23         2.3927  -16.6421    0.3879 C.ar      1 <0>        -0.1214
     30 C24         3.3512  -15.6461    0.3791 C.ar      1 <0>        -0.0979
     31 C25         3.0834   -0.4371    1.8774 C.2       1 <0>         0.4903
     32 O2          2.9857   -0.3199    3.0870 O.co2     1 <0>        -0.6885
     33 O3          4.0048   -1.0766    1.3993 O.co2     1 <0>        -0.6615
     34 O4          2.3937   -0.0700   -0.3894 O.3       1 <0>        -0.2974
     35 C26         3.5966    0.3760   -0.8378 C.ar      1 <0>         0.1695
     36 C27         4.4974    0.9523    0.0461 C.ar      1 <0>        -0.1572
     37 C28         5.7197    1.4044   -0.4121 C.ar      1 <0>        -0.0995
     38 C29         6.0455    1.2834   -1.7504 C.ar      1 <0>        -0.1754
     39 C30         5.1492    0.7099   -2.6334 C.ar      1 <0>        -0.0989
     40 C31         3.9281    0.2506   -2.1790 C.ar      1 <0>        -0.1723
     41 H1          1.7587    1.9371    2.2219 H         1 <0>         0.0729
     42 H2          3.0740    2.1112    1.0354 H         1 <0>         0.0698
     43 H3          1.3777    2.1953    0.5025 H         1 <0>         0.0514
     44 H4          0.3887   -0.0615    2.2985 H         1 <0>         0.0924
     45 H5         -0.0460    0.0494    0.5760 H         1 <0>         0.0698
     46 H6          0.1965   -1.8688   -0.8927 H         1 <0>         0.1231
     47 H7          0.2406   -4.3237   -1.0663 H         1 <0>         0.1169
     48 H8          1.2653   -4.5906    3.0744 H         1 <0>         0.1209
     49 H9          1.2282   -2.1348    3.2373 H         1 <0>         0.1357
     50 H10         1.2216   -8.5645    0.7139 H         1 <0>         0.1417
     51 H11         5.6381   -5.9359   -1.7471 H         1 <0>         0.4111
     52 H12         4.7592   -4.5768   -1.2964 H         1 <0>         0.4212
     53 H13         4.4144  -10.9344   -1.7822 H         1 <0>         0.0692
     54 H14         5.3051   -9.6648   -0.9016 H         1 <0>         0.0998
     55 H15         5.8758  -12.0047   -0.1363 H         1 <0>         0.0872
     56 H16         5.2264  -10.9733    1.1616 H         1 <0>         0.0398
     57 H17         1.9486  -12.5318    1.2071 H         1 <0>         0.0925
     58 H18         2.9818  -11.2746    1.9294 H         1 <0>         0.0404
     59 H19         1.3728  -10.1931    0.4544 H         1 <0>         0.0928
     60 H20         1.8148  -11.2836   -0.8857 H         1 <0>         0.0749
     61 H21         5.2862  -13.9505    0.9276 H         1 <0>         0.0848
     62 H22         4.4965  -13.1783    2.3234 H         1 <0>         0.0439
     63 H23         2.2438  -13.8080    2.9816 H         1 <0>         0.1189
     64 H24         0.5323  -15.5782    2.9927 H         1 <0>         0.1212
     65 H25         0.6281  -17.3937    1.3319 H         1 <0>         0.1199
     66 H26         2.4348  -17.4385   -0.3404 H         1 <0>         0.1208
     67 H27         4.1416  -15.6636   -0.3567 H         1 <0>         0.1221
     68 H28         4.2432    1.0476    1.0914 H         1 <0>         0.1396
     69 H29         6.4213    1.8530    0.2755 H         1 <0>         0.1115
     70 H30         7.0014    1.6379   -2.1067 H         1 <0>         0.1094
     71 H31         5.4058    0.6169   -3.6783 H         1 <0>         0.1148
     72 H32         3.2302   -0.2013   -2.8683 H         1 <0>         0.1171
@<TRIPOS>BOND
     1    1    2 1
     2    1   41 1
     3    1   42 1
     4    1   43 1
     5    2    3 1
     6    2   31 1
     7    2   34 1
     8    3    4 1
     9    3   44 1
    10    3   45 1
    11    4    9 ar
    12    4    5 ar
    13    5    6 ar
    14    5   46 1
    15    6    7 ar
    16    6   47 1
    17    7    8 ar
    18    7   10 1
    19    8    9 ar
    20    8   48 1
    21    9   49 1
    22   10   11 1
    23   11   16 ar
    24   11   12 ar
    25   12   13 ar
    26   12   50 1
    27   13   14 ar
    28   13   18 1
    29   14   15 ar
    30   15   16 ar
    31   15   17 1
    32   17   51 1
    33   17   52 1
    34   18   23 1
    35   18   19 1
    36   19   20 1
    37   19   53 1
    38   19   54 1
    39   20   21 1
    40   20   55 1
    41   20   56 1
    42   21   22 1
    43   21   24 1
    44   22   23 1
    45   22   57 1
    46   22   58 1
    47   23   59 1
    48   23   60 1
    49   24   25 1
    50   24   61 1
    51   24   62 1
    52   25   30 ar
    53   25   26 ar
    54   26   27 ar
    55   26   63 1
    56   27   28 ar
    57   27   64 1
    58   28   29 ar
    59   28   65 1
    60   29   30 ar
    61   29   66 1
    62   30   67 1
    63   31   32 2
    64   31   33 1
    65   34   35 1
    66   35   40 ar
    67   35   36 ar
    68   36   37 ar
    69   36   68 1
    70   37   38 ar
    71   37   69 1
    72   38   39 ar
    73   38   70 1
    74   39   40 ar
    75   39   71 1
    76   40   72 1
@<TRIPOS>MOLECULE
CHEMBL563824__1
   73    77     0     0     0
SMALL
USER_CHARGES

@<TRIPOS>ATOM
      1 C1          2.0647    1.7246    1.1749 C.3       1 <0>        -0.1764
      2 C2          2.0558    0.2108    0.9533 C.3       1 <0>         0.0394
      3 C3          0.6668   -0.3438    1.2757 C.3       1 <0>        -0.0534
      4 C4          0.6907   -1.8473    1.1764 C.ar      1 <0>        -0.0502
      5 C5          0.4096   -2.4639   -0.0288 C.ar      1 <0>        -0.0897
      6 C6          0.4304   -3.8420   -0.1224 C.ar      1 <0>        -0.1110
      7 C7          0.7341   -4.6074    0.9942 C.ar      1 <0>         0.0651
      8 C8          1.0162   -3.9862    2.2023 C.ar      1 <0>        -0.1122
      9 C9          0.9992   -2.6077    2.2893 C.ar      1 <0>        -0.0791
     10 O1          0.7548   -5.9634    0.9048 O.3       1 <0>        -0.2380
     11 C10         1.8375   -6.5471    0.3356 C.ar      1 <0>         0.4344
     12 C11         1.9542   -7.9313    0.3017 C.ar      1 <0>        -0.3644
     13 C12         3.0837   -8.4873   -0.2938 C.ar      1 <0>         0.4894
     14 N1          4.0083   -7.6798   -0.8076 N.ar      1 <0>        -0.6396
     15 C13         3.8627   -6.3645   -0.7569 C.ar      1 <0>         0.6436
     16 N2          2.7988   -5.8027   -0.2025 N.ar      1 <0>        -0.6150
     17 N3          4.8451   -5.5561   -1.3013 N.pl3     1 <0>        -0.8073
     18 N4          3.2429   -9.8630   -0.3501 N.pl3     1 <0>        -0.6171
     19 C14         4.5147  -10.4600   -0.7863 C.3       1 <0>         0.1069
     20 C15         4.9418  -11.5045    0.2503 C.3       1 <0>        -0.0226
     21 N5          3.8541  -12.4712    0.4463 N.4       1 <0>        -0.3812
     22 C16         2.6841  -11.7974    1.0234 C.3       1 <0>        -0.0275
     23 C17         2.1470  -10.7675    0.0305 C.3       1 <0>         0.1034
     24 C18         4.3036  -13.5333    1.3563 C.3       1 <0>         0.0437
     25 C19         3.2341  -14.5898    1.4624 C.ar      1 <0>        -0.1601
     26 C20         2.2536  -14.4858    2.4312 C.ar      1 <0>        -0.0978
     27 C21         1.2726  -15.4549    2.5286 C.ar      1 <0>        -0.1128
     28 C22         1.2719  -16.5277    1.6567 C.ar      1 <0>        -0.0853
     29 C23         2.2519  -16.6311    0.6873 C.ar      1 <0>        -0.1136
     30 C24         3.2304  -15.6598    0.5872 C.ar      1 <0>        -0.0937
     31 C25         3.0762   -0.4349    1.8550 C.2       1 <0>         0.4905
     32 O2          2.9842   -0.3137    3.0647 O.co2     1 <0>        -0.6867
     33 O3          3.9937   -1.0783    1.3749 O.co2     1 <0>        -0.6642
     34 O4          2.3774   -0.0730   -0.4098 O.3       1 <0>        -0.2992
     35 C26         3.5796    0.3681   -0.8648 C.ar      1 <0>         0.1679
     36 C27         4.4856    0.9451    0.0131 C.ar      1 <0>        -0.1570
     37 C28         5.7072    1.3923   -0.4518 C.ar      1 <0>        -0.0986
     38 C29         6.0270    1.2656   -1.7910 C.ar      1 <0>        -0.1737
     39 C30         5.1256    0.6914   -2.6681 C.ar      1 <0>        -0.0991
     40 C31         3.9052    0.2370   -2.2070 C.ar      1 <0>        -0.1727
     41 H1          1.7646    1.9436    2.1997 H         1 <0>         0.0740
     42 H2          3.0684    2.1116    0.9996 H         1 <0>         0.0707
     43 H3          1.3672    2.1971    0.4833 H         1 <0>         0.0528
     44 H4          0.3844   -0.0509    2.2870 H         1 <0>         0.0946
     45 H5         -0.0576    0.0557    0.5661 H         1 <0>         0.0723
     46 H6          0.1733   -1.8676   -0.8977 H         1 <0>         0.1261
     47 H7          0.2101   -4.3231   -1.0639 H         1 <0>         0.1171
     48 H8          1.2526   -4.5799    3.0731 H         1 <0>         0.1212
     49 H9          1.2227   -2.1235    3.2285 H         1 <0>         0.1386
     50 H10         1.1872   -8.5612    0.7276 H         1 <0>         0.1433
     51 H11         5.6277   -5.9544   -1.7133 H         1 <0>         0.4138
     52 H12         4.7511   -4.5911   -1.2709 H         1 <0>         0.4270
     53 H13         4.3806  -10.9397   -1.7559 H         1 <0>         0.0873
     54 H14         5.2770   -9.6845   -0.8604 H         1 <0>         0.1389
     55 H15         5.8315  -12.0252   -0.1038 H         1 <0>         0.1419
     56 H16         5.1625  -11.0090    1.1957 H         1 <0>         0.1337
     57 H17         1.9101  -12.5340    1.2391 H         1 <0>         0.1427
     58 H18         2.9731  -11.2931    1.9455 H         1 <0>         0.1350
     59 H19         1.3447  -10.1951    0.4962 H         1 <0>         0.1333
     60 H20         1.7697  -11.2788   -0.8551 H         1 <0>         0.0922
     61 H21         5.2189  -13.9805    0.9688 H         1 <0>         0.1375
     62 H22         4.4952  -13.1100    2.3423 H         1 <0>         0.1355
     63 H23         2.2542  -13.6477    3.1124 H         1 <0>         0.1323
     64 H24         0.5070  -15.3741    3.2860 H         1 <0>         0.1363
     65 H25         0.5059  -17.2852    1.7332 H         1 <0>         0.1350
     66 H26         2.2515  -17.4694    0.0064 H         1 <0>         0.1351
     67 H27         3.9939  -15.7387   -0.1725 H         1 <0>         0.1310
     68 H28         4.2360    1.0449    1.0591 H         1 <0>         0.1395
     69 H29         6.4129    1.8416    0.2313 H         1 <0>         0.1126
     70 H30         6.9824    1.6162   -2.1526 H         1 <0>         0.1106
     71 H31         5.3775    0.5939   -3.7138 H         1 <0>         0.1153
     72 H32         3.2032   -0.2155   -2.8917 H         1 <0>         0.1165
     73 H33         3.6025  -12.8774   -0.4424 H         1 <0>         0.4213
@<TRIPOS>BOND
     1    1    2 1
     2    1   41 1
     3    1   42 1
     4    1   43 1
     5    2    3 1
     6    2   31 1
     7    2   34 1
     8    3    4 1
     9    3   44 1
    10    3   45 1
    11    4    9 ar
    12    4    5 ar
    13    5    6 ar
    14    5   46 1
    15    6    7 ar
    16    6   47 1
    17    7    8 ar
    18    7   10 1
    19    8    9 ar
    20    8   48 1
    21    9   49 1
    22   10   11 1
    23   11   16 ar
    24   11   12 ar
    25   12   13 ar
    26   12   50 1
    27   13   14 ar
    28   13   18 1
    29   14   15 ar
    30   15   16 ar
    31   15   17 1
    32   17   51 1
    33   17   52 1
    34   18   23 1
    35   18   19 1
    36   19   20 1
    37   19   53 1
    38   19   54 1
    39   20   21 1
    40   20   55 1
    41   20   56 1
    42   21   22 1
    43   21   24 1
    44   21   73 1
    45   22   23 1
    46   22   57 1
    47   22   58 1
    48   23   59 1
    49   23   60 1
    50   24   25 1
    51   24   61 1
    52   24   62 1
    53   25   30 ar
    54   25   26 ar
    55   26   27 ar
    56   26   63 1
    57   27   28 ar
    58   27   64 1
    59   28   29 ar
    60   28   65 1
    61   29   30 ar
    62   29   66 1
    63   30   67 1
    64   31   32 2
    65   31   33 1
    66   34   35 1
    67   35   40 ar
    68   35   36 ar
    69   36   37 ar
    70   36   68 1
    71   37   38 ar
    72   37   69 1
    73   38   39 ar
    74   38   70 1
    75   39   40 ar
    76   39   71 1
    77   40   72 1
@<TRIPOS>MOLECULE
CHEMBL563824__2
   72    76     0     0     0
SMALL
USER_CHARGES

@<TRIPOS>ATOM
      1 C1          0.7424   -0.2658    3.6376 C.3       1 <0>        -0.1210
      2 C2         -0.0710   -0.0089    2.3675 C.3       1 <0>         0.0486
      3 C3          0.7448   -0.4335    1.1448 C.3       1 <0>        -0.1127
      4 C4          2.0782    0.2685    1.1620 C.ar      1 <0>        -0.0539
      5 C5          2.2183    1.4990    0.5470 C.ar      1 <0>        -0.0926
      6 C6          3.4396    2.1444    0.5610 C.ar      1 <0>        -0.1071
      7 C7          4.5260    1.5572    1.1933 C.ar      1 <0>         0.0767
      8 C8          4.3827    0.3226    1.8100 C.ar      1 <0>        -0.1153
      9 C9          3.1579   -0.3162    1.7977 C.ar      1 <0>        -0.1033
     10 O1          5.7287    2.1899    1.2080 O.3       1 <0>        -0.2405
     11 C10         5.8247    3.3583    1.8884 C.ar      1 <0>         0.4251
     12 C11         6.9978    4.1019    1.8475 C.ar      1 <0>        -0.3656
     13 C12         7.0511    5.2964    2.5615 C.ar      1 <0>         0.5001
     14 N1          5.9835    5.6839    3.2551 N.ar      1 <0>        -0.6402
     15 C13         4.8822    4.9486    3.2706 C.ar      1 <0>         0.6369
     16 N2          4.7957    3.8101    2.5988 N.ar      1 <0>        -0.6356
     17 N3          3.7918    5.3832    4.0036 N.pl3     1 <0>        -0.8170
     18 N4          8.2005    6.0708    2.5502 N.pl3     1 <0>        -0.5974
     19 C14         8.3523    7.2099    3.4682 C.3       1 <0>         0.1323
     20 C15         9.6947    7.0741    4.1946 C.3       1 <0>         0.0400
     21 N5         10.7704    6.9261    3.2052 N.3       1 <0>        -0.5312
     22 C16        10.6058    5.6960    2.4191 C.3       1 <0>         0.0357
     23 C17         9.3033    5.7716    1.6242 C.3       1 <0>         0.1271
     24 C18        12.0891    6.9654    3.8514 C.3       1 <0>         0.0935
     25 C19        13.1623    7.0583    2.7976 C.ar      1 <0>        -0.0786
     26 C20        13.7087    5.9060    2.2641 C.ar      1 <0>        -0.1157
     27 C21        14.6932    5.9912    1.2974 C.ar      1 <0>        -0.1202
     28 C22        15.1309    7.2287    0.8639 C.ar      1 <0>        -0.1200
     29 C23        14.5839    8.3810    1.3967 C.ar      1 <0>        -0.1210
     30 C24        13.5964    8.2957    2.3603 C.ar      1 <0>        -0.0977
     31 C25        -1.3492   -0.8054    2.4198 C.2       1 <0>         0.4821
     32 O2         -2.4256   -0.2341    2.3803 O.co2     1 <0>        -0.6660
     33 O3         -1.3070   -2.0211    2.5016 O.co2     1 <0>        -0.6839
     34 O4         -0.3806    1.3830    2.2735 O.3       1 <0>        -0.2963
     35 C26        -1.1218    1.7795    1.2057 C.ar      1 <0>         0.1700
     36 C27        -1.6046    0.8390    0.3073 C.ar      1 <0>        -0.1590
     37 C28        -2.3582    1.2445   -0.7771 C.ar      1 <0>        -0.0976
     38 C29        -2.6312    2.5865   -0.9677 C.ar      1 <0>        -0.1751
     39 C30        -2.1508    3.5258   -0.0741 C.ar      1 <0>        -0.0977
     40 C31        -1.4019    3.1248    1.0153 C.ar      1 <0>        -0.1727
     41 H1          1.7030    0.2439    3.5632 H         1 <0>         0.0582
     42 H2          0.1962    0.1127    4.5016 H         1 <0>         0.0557
     43 H3          0.9074   -1.3371    3.7529 H         1 <0>         0.0770
     44 H4          0.9017   -1.5119    1.1693 H         1 <0>         0.0927
     45 H5          0.2048   -0.1655    0.2367 H         1 <0>         0.0874
     46 H6          1.3723    1.9557    0.0550 H         1 <0>         0.1237
     47 H7          3.5487    3.1051    0.0799 H         1 <0>         0.1181
     48 H8          5.2269   -0.1368    2.3025 H         1 <0>         0.1250
     49 H9          3.0448   -1.2754    2.2811 H         1 <0>         0.1303
     50 H10         7.8484    3.7614    1.2757 H         1 <0>         0.1430
     51 H11         3.8404    6.2167    4.4973 H         1 <0>         0.4128
     52 H12         2.9789    4.8543    4.0235 H         1 <0>         0.4183
     53 H13         8.3348    8.1412    2.9021 H         1 <0>         0.0706
     54 H14         7.5403    7.2049    4.1954 H         1 <0>         0.0997
     55 H15         9.8743    7.9649    4.7965 H         1 <0>         0.0879
     56 H16         9.6715    6.1966    4.8407 H         1 <0>         0.0393
     57 H17        11.4461    5.5874    1.7335 H         1 <0>         0.0934
     58 H18        10.5699    4.8377    3.0900 H         1 <0>         0.0402
     59 H19         9.1198    4.8161    1.1328 H         1 <0>         0.0930
     60 H20         9.3790    6.5620    0.8774 H         1 <0>         0.0765
     61 H21        12.1469    7.8346    4.5065 H         1 <0>         0.0851
     62 H22        12.2334    6.0581    4.4380 H         1 <0>         0.0439
     63 H23        13.3668    4.9392    2.6028 H         1 <0>         0.1186
     64 H24        15.1206    5.0910    0.8812 H         1 <0>         0.1214
     65 H25        15.9006    7.2953    0.1092 H         1 <0>         0.1203
     66 H26        14.9261    9.3478    1.0582 H         1 <0>         0.1213
     67 H27        13.1663    9.1959    2.7739 H         1 <0>         0.1221
     68 H28        -1.3911   -0.2093    0.4554 H         1 <0>         0.1367
     69 H29        -2.7343    0.5127   -1.4767 H         1 <0>         0.1125
     70 H30        -3.2203    2.9016   -1.8163 H         1 <0>         0.1100
     71 H31        -2.3651    4.5735   -0.2253 H         1 <0>         0.1150
     72 H32        -1.0307    3.8585    1.7155 H         1 <0>         0.1173
@<TRIPOS>BOND
     1    1    2 1
     2    1   41 1
     3    1   42 1
     4    1   43 1
     5    2    3 1
     6    2   31 1
     7    2   34 1
     8    3    4 1
     9    3   44 1
    10    3   45 1
    11    4    9 ar
    12    4    5 ar
    13    5    6 ar
    14    5   46 1
    15    6    7 ar
    16    6   47 1
    17    7    8 ar
    18    7   10 1
    19    8    9 ar
    20    8   48 1
    21    9   49 1
    22   10   11 1
    23   11   16 ar
    24   11   12 ar
    25   12   13 ar
    26   12   50 1
    27   13   14 ar
    28   13   18 1
    29   14   15 ar
    30   15   16 ar
    31   15   17 1
    32   17   51 1
    33   17   52 1
    34   18   23 1
    35   18   19 1
    36   19   20 1
    37   19   53 1
    38   19   54 1
    39   20   21 1
    40   20   55 1
    41   20   56 1
    42   21   22 1
    43   21   24 1
    44   22   23 1
    45   22   57 1
    46   22   58 1
    47   23   59 1
    48   23   60 1
    49   24   25 1
    50   24   61 1
    51   24   62 1
    52   25   30 ar
    53   25   26 ar
    54   26   27 ar
    55   26   63 1
    56   27   28 ar
    57   27   64 1
    58   28   29 ar
    59   28   65 1
    60   29   30 ar
    61   29   66 1
    62   30   67 1
    63   31   32 2
    64   31   33 1
    65   34   35 1
    66   35   40 ar
    67   35   36 ar
    68   36   37 ar
    69   36   68 1
    70   37   38 ar
    71   37   69 1
    72   38   39 ar
    73   38   70 1
    74   39   40 ar
    75   39   71 1
    76   40   72 1
@<TRIPOS>MOLECULE
CHEMBL563824__3
   73    77     0     0     0
SMALL
USER_CHARGES

@<TRIPOS>ATOM
      1 C1          0.7402   -0.2669    3.6375 C.3       1 <0>        -0.1205
      2 C2         -0.0715   -0.0080    2.3667 C.3       1 <0>         0.0484
      3 C3          0.7454   -0.4320    1.1445 C.3       1 <0>        -0.1161
      4 C4          2.0793    0.2690    1.1640 C.ar      1 <0>        -0.0448
      5 C5          2.2211    1.4999    0.5505 C.ar      1 <0>        -0.0922
      6 C6          3.4428    2.1444    0.5665 C.ar      1 <0>        -0.1058
      7 C7          4.5281    1.5556    1.1994 C.ar      1 <0>         0.0642
      8 C8          4.3830    0.3205    1.8147 C.ar      1 <0>        -0.1116
      9 C9          3.1578   -0.3173    1.8003 C.ar      1 <0>        -0.1024
     10 O1          5.7312    2.1874    1.2163 O.3       1 <0>        -0.2350
     11 C10         5.8274    3.3549    1.8979 C.ar      1 <0>         0.4344
     12 C11         7.0011    4.0977    1.8592 C.ar      1 <0>        -0.3618
     13 C12         7.0545    5.2914    2.5745 C.ar      1 <0>         0.4920
     14 N1          5.9865    5.6790    3.2674 N.ar      1 <0>        -0.6378
     15 C13         4.8846    4.9445    3.2808 C.ar      1 <0>         0.6426
     16 N2          4.7980    3.8069    2.6077 N.ar      1 <0>        -0.6217
     17 N3          3.7937    5.3792    4.0130 N.pl3     1 <0>        -0.8095
     18 N4          8.2046    6.0649    2.5654 N.pl3     1 <0>        -0.6165
     19 C14         8.3575    7.2036    3.4841 C.3       1 <0>         0.1066
     20 C15         9.7077    7.0746    4.1970 C.3       1 <0>        -0.0222
     21 N5         10.7776    6.9533    3.1986 N.4       1 <0>        -0.3817
     22 C16        10.6124    5.7087    2.4372 C.3       1 <0>        -0.0271
     23 C17         9.3094    5.7667    1.6410 C.3       1 <0>         0.1025
     24 C18        12.0799    6.9402    3.8782 C.3       1 <0>         0.0442
     25 C19        13.1826    6.9397    2.8511 C.ar      1 <0>        -0.1611
     26 C20        13.6765    5.7424    2.3679 C.ar      1 <0>        -0.0981
     27 C21        14.6880    5.7419    1.4257 C.ar      1 <0>        -0.1128
     28 C22        15.2053    6.9387    0.9663 C.ar      1 <0>        -0.0845
     29 C23        14.7107    8.1360    1.4488 C.ar      1 <0>        -0.1132
     30 C24        13.6963    8.1365    2.3878 C.ar      1 <0>        -0.0934
     31 C25        -1.3504   -0.8035    2.4168 C.2       1 <0>         0.4809
     32 O2         -2.4263   -0.2313    2.3766 O.co2     1 <0>        -0.6637
     33 O3         -1.3093   -2.0194    2.4973 O.co2     1 <0>        -0.6818
     34 O4         -0.3799    1.3843    2.2739 O.3       1 <0>        -0.2980
     35 C26        -1.1196    1.7825    1.2057 C.ar      1 <0>         0.1676
     36 C27        -1.6021    0.8433    0.3057 C.ar      1 <0>        -0.1589
     37 C28        -2.3542    1.2506   -0.7791 C.ar      1 <0>        -0.0964
     38 C29        -2.6258    2.5930   -0.9686 C.ar      1 <0>        -0.1730
     39 C30        -2.1457    3.5310   -0.0734 C.ar      1 <0>        -0.0981
     40 C31        -1.3983    3.1282    1.0164 C.ar      1 <0>        -0.1734
     41 H1          1.7013    0.2420    3.5648 H         1 <0>         0.0554
     42 H2          0.1934    0.1111    4.5013 H         1 <0>         0.0569
     43 H3          0.9042   -1.3384    3.7519 H         1 <0>         0.0780
     44 H4          0.9013   -1.5105    1.1681 H         1 <0>         0.0951
     45 H5          0.2066   -0.1626    0.2361 H         1 <0>         0.0896
     46 H6          1.3760    1.9578    0.0580 H         1 <0>         0.1266
     47 H7          3.5532    3.1055    0.0866 H         1 <0>         0.1176
     48 H8          5.2264   -0.1400    2.3077 H         1 <0>         0.1258
     49 H9          3.0433   -1.2769    2.2826 H         1 <0>         0.1334
     50 H10         7.8521    3.7571    1.2880 H         1 <0>         0.1447
     51 H11         3.8424    6.2122    4.5077 H         1 <0>         0.4155
     52 H12         2.9804    4.8510    4.0315 H         1 <0>         0.4241
     53 H13         8.3288    8.1358    2.9199 H         1 <0>         0.0885
     54 H14         7.5527    7.1919    4.2191 H         1 <0>         0.1386
     55 H15         9.8811    7.9591    4.8099 H         1 <0>         0.1424
     56 H16         9.7005    6.1883    4.8314 H         1 <0>         0.1333
     57 H17        11.4524    5.5868    1.7533 H         1 <0>         0.1434
     58 H18        10.5778    4.8638    3.1249 H         1 <0>         0.1348
     59 H19         9.1336    4.8055    1.1580 H         1 <0>         0.1333
     60 H20         9.3784    6.5513    0.8875 H         1 <0>         0.0936
     61 H21        12.1701    7.8255    4.5077 H         1 <0>         0.1377
     62 H22        12.1584    6.0456    4.4960 H         1 <0>         0.1353
     63 H23        13.2724    4.8074    2.7269 H         1 <0>         0.1319
     64 H24        15.0744    4.8064    1.0488 H         1 <0>         0.1365
     65 H25        15.9960    6.9382    0.2307 H         1 <0>         0.1354
     66 H26        15.1151    9.0710    1.0901 H         1 <0>         0.1355
     67 H27        13.3073    9.0720    2.7620 H         1 <0>         0.1311
     68 H28        -1.3896   -0.2053    0.4530 H         1 <0>         0.1370
     69 H29        -2.7300    0.5199   -1.4800 H         1 <0>         0.1140
     70 H30        -3.2137    2.9094   -1.8176 H         1 <0>         0.1113
     71 H31        -2.3589    4.5790   -0.2238 H         1 <0>         0.1153
     72 H32        -1.0273    3.8609    1.7178 H         1 <0>         0.1161
     73 H33        10.7381    7.7398    2.5678 H         1 <0>         0.4220
@<TRIPOS>BOND
     1    1    2 1
     2    1   41 1
     3    1   42 1
     4    1   43 1
     5    2    3 1
     6    2   31 1
     7    2   34 1
     8    3    4 1
     9    3   44 1
    10    3   45 1
    11    4    9 ar
    12    4    5 ar
    13    5    6 ar
    14    5   46 1
    15    6    7 ar
    16    6   47 1
    17    7    8 ar
    18    7   10 1
    19    8    9 ar
    20    8   48 1
    21    9   49 1
    22   10   11 1
    23   11   16 ar
    24   11   12 ar
    25   12   13 ar
    26   12   50 1
    27   13   14 ar
    28   13   18 1
    29   14   15 ar
    30   15   16 ar
    31   15   17 1
    32   17   51 1
    33   17   52 1
    34   18   23 1
    35   18   19 1
    36   19   20 1
    37   19   53 1
    38   19   54 1
    39   20   21 1
    40   20   55 1
    41   20   56 1
    42   21   22 1
    43   21   24 1
    44   21   73 1
    45   22   23 1
    46   22   57 1
    47   22   58 1
    48   23   59 1
    49   23   60 1
    50   24   25 1
    51   24   61 1
    52   24   62 1
    53   25   30 ar
    54   25   26 ar
    55   26   27 ar
    56   26   63 1
    57   27   28 ar
    58   27   64 1
    59   28   29 ar
    60   28   65 1
    61   29   30 ar
    62   29   66 1
    63   30   67 1
    64   31   32 2
    65   31   33 1
    66   34   35 1
    67   35   40 ar
    68   35   36 ar
    69   36   37 ar
    70   36   68 1
    71   37   38 ar
    72   37   69 1
    73   38   39 ar
    74   38   70 1
    75   39   40 ar
    76   39   71 1
    77   40   72 1
@<TRIPOS>MOLECULE
CHEMBL509257
   57    60     0     0     0
SMALL
USER_CHARGES

@<TRIPOS>ATOM
      1 C1         -0.0187    1.5258    0.0104 C.3       1 <0>        -0.1606
      2 C2          0.0021   -0.0041    0.0020 C.3       1 <0>         0.1866
      3 H1          0.5123   -0.3556   -0.8948 H         1 <0>         0.1140
      4 C3          0.7309   -0.5033    1.2229 C.ar      1 <0>        -0.1125
      5 C4          0.0802   -0.5583    2.4414 C.ar      1 <0>        -0.0870
      6 C5          0.7475   -1.0164    3.5616 C.ar      1 <0>        -0.1469
      7 C6          2.0682   -1.4203    3.4632 C.ar      1 <0>         0.1067
      8 C7          2.7189   -1.3647    2.2423 C.ar      1 <0>        -0.1465
      9 C8          2.0480   -0.9112    1.1224 C.ar      1 <0>        -0.0708
     10 F1          2.7216   -1.8678    4.5577 F         1 <0>        -0.1350
     11 N1         -1.3723   -0.5112    0.0124 N.pl3     1 <0>        -0.6369
     12 C9         -2.0590   -0.6443   -1.1585 C.2       1 <0>         0.4763
     13 N2         -1.6229   -0.3658   -2.3731 N.2       1 <0>        -0.6865
     14 C10        -2.3336   -0.5158   -3.4621 C.2       1 <0>         0.5501
     15 O1         -1.9211   -0.2563   -4.5757 O.2       1 <0>        -0.4472
     16 C11        -3.7337   -1.0512   -3.1842 C.3       1 <0>        -0.0632
     17 S1         -3.6342   -1.2044   -1.3532 S.3       1 <0>        -0.0811
     18 C12        -3.9521   -2.4146   -3.8433 C.3       1 <0>        -0.1248
     19 C13        -4.7937   -0.0652   -3.6028 C.ar      1 <0>        -0.0372
     20 C14        -5.7409   -0.4298   -4.5431 C.ar      1 <0>        -0.1021
     21 C15        -6.7139    0.4681   -4.9306 C.ar      1 <0>        -0.0536
     22 C16        -6.7415    1.7468   -4.3719 C.ar      1 <0>        -0.1251
     23 C17        -5.7830    2.1083   -3.4238 C.ar      1 <0>        -0.0805
     24 C18        -4.8188    1.1989   -3.0409 C.ar      1 <0>        -0.1053
     25 C19        -7.7811    2.7144   -4.7829 C.2       1 <0>         0.5590
     26 O2         -8.6142    2.3969   -5.6090 O.2       1 <0>        -0.5309
     27 N3         -7.8050    3.9484   -4.2414 N.am      1 <0>        -0.7207
     28 C20        -8.8351    4.9071   -4.6487 C.3       1 <0>         0.1392
     29 C21        -8.3625    5.6964   -5.8870 C.3       1 <0>        -0.1359
     30 C22        -8.9068    7.1279   -5.6556 C.3       1 <0>        -0.1252
     31 C23        -8.7252    7.3200   -4.1294 C.3       1 <0>        -0.1250
     32 C24        -9.0657    5.9394   -3.5311 C.3       1 <0>        -0.1319
     33 H2          1.0039    1.9031    0.0027 H         1 <0>         0.0786
     34 H3         -0.5459    1.8868   -0.8726 H         1 <0>         0.0719
     35 H4         -0.5289    1.8773    0.9072 H         1 <0>         0.0632
     36 H5         -0.9498   -0.2429    2.5180 H         1 <0>         0.1304
     37 H6          0.2390   -1.0590    4.5135 H         1 <0>         0.1406
     38 H7          3.7492   -1.6791    2.1644 H         1 <0>         0.1417
     39 H8          2.5540   -0.8720    0.1690 H         1 <0>         0.1395
     40 H9         -1.7940   -0.7522    0.8520 H         1 <0>         0.4240
     41 H10        -3.2179   -3.1243   -3.4620 H         1 <0>         0.0760
     42 H11        -4.9560   -2.7722   -3.6145 H         1 <0>         0.0833
     43 H12        -3.8380   -2.3187   -4.9231 H         1 <0>         0.0921
     44 H13        -5.7182   -1.4195   -4.9750 H         1 <0>         0.1409
     45 H14        -7.4524    0.1823   -5.6650 H         1 <0>         0.1440
     46 H15        -5.7989    3.0962   -2.9877 H         1 <0>         0.1298
     47 H16        -4.0793    1.4759   -2.3041 H         1 <0>         0.1244
     48 H17        -7.1401    4.2017   -3.5821 H         1 <0>         0.3989
     49 H18        -9.7650    4.3837   -4.8711 H         1 <0>         0.0941
     50 H19        -7.2739    5.7062   -5.9405 H         1 <0>         0.0703
     51 H20        -8.7863    5.2695   -6.7960 H         1 <0>         0.0724
     52 H21        -8.3184    7.8592   -6.2097 H         1 <0>         0.0699
     53 H22        -9.9599    7.1898   -5.9301 H         1 <0>         0.0705
     54 H23        -7.6951    7.5920   -3.8991 H         1 <0>         0.0671
     55 H24        -9.4136    8.0780   -3.7557 H         1 <0>         0.0697
     56 H25       -10.1077    5.9176   -3.2118 H         1 <0>         0.0767
     57 H26        -8.4112    5.7271   -2.6858 H         1 <0>         0.0706
@<TRIPOS>BOND
     1    1    2 1
     2    1   33 1
     3    1   34 1
     4    1   35 1
     5    2    3 1
     6    2    4 1
     7    2   11 1
     8    4    9 ar
     9    4    5 ar
    10    5    6 ar
    11    5   36 1
    12    6    7 ar
    13    6   37 1
    14    7    8 ar
    15    7   10 1
    16    8    9 ar
    17    8   38 1
    18    9   39 1
    19   11   12 1
    20   11   40 1
    21   12   17 1
    22   12   13 2
    23   13   14 1
    24   14   15 2
    25   14   16 1
    26   16   17 1
    27   16   18 1
    28   16   19 1
    29   18   41 1
    30   18   42 1
    31   18   43 1
    32   19   24 ar
    33   19   20 ar
    34   20   21 ar
    35   20   44 1
    36   21   22 ar
    37   21   45 1
    38   22   23 ar
    39   22   25 1
    40   23   24 ar
    41   23   46 1
    42   24   47 1
    43   25   26 2
    44   25   27 am
    45   27   28 1
    46   27   48 1
    47   28   32 1
    48   28   29 1
    49   28   49 1
    50   29   30 1
    51   29   50 1
    52   29   51 1
    53   30   31 1
    54   30   52 1
    55   30   53 1
    56   31   32 1
    57   31   54 1
    58   31   55 1
    59   32   56 1
    60   32   57 1
@<TRIPOS>MOLECULE
CHEMBL509257__1
   56    59     0     0     0
SMALL
USER_CHARGES

@<TRIPOS>ATOM
      1 C1         -0.0187    1.5258    0.0104 C.3       1 <0>        -0.1529
      2 C2          0.0021   -0.0041    0.0020 C.3       1 <0>         0.1424
      3 H1         -1.0205   -0.3814    0.0098 H         1 <0>         0.0523
      4 C3          0.7074   -0.4901   -1.2379 C.ar      1 <0>        -0.0507
      5 C4          2.0890   -0.5106   -1.2833 C.ar      1 <0>        -0.0599
      6 C5          2.7369   -0.9565   -2.4196 C.ar      1 <0>        -0.1593
      7 C6          2.0019   -1.3828   -3.5128 C.ar      1 <0>         0.0769
      8 C7          0.6182   -1.3618   -3.4661 C.ar      1 <0>        -0.1574
      9 C8         -0.0275   -0.9204   -2.3268 C.ar      1 <0>        -0.0951
     10 F1          2.6342   -1.8185   -4.6244 F         1 <0>        -0.1495
     11 N1          0.7106   -0.4894    1.1889 N.2       1 <0>        -0.5991
     12 C9          0.2521   -0.1729    2.4338 C.2       1 <0>         0.3982
     13 N2         -0.8115    0.5510    2.7302 N.2       1 <0>        -0.7433
     14 C10        -1.2010    0.8205    3.9504 C.2       1 <0>         0.5332
     15 O1         -2.1828    1.4882    4.2113 O.2       1 <0>        -0.5519
     16 C11        -0.2920    0.2069    5.0094 C.3       1 <0>        -0.0806
     17 S1          0.9214   -0.6309    3.9086 S.3       1 <0>        -0.1604
     18 C12        -1.0456   -0.8048    5.8752 C.3       1 <0>        -0.1110
     19 C13         0.3643    1.2684    5.8542 C.ar      1 <0>         0.0007
     20 C14         0.1640    1.2806    7.2231 C.ar      1 <0>        -0.1196
     21 C15         0.7618    2.2496    8.0022 C.ar      1 <0>        -0.0567
     22 C16         1.5702    3.2189    7.4064 C.ar      1 <0>        -0.1499
     23 C17         1.7682    3.2009    6.0249 C.ar      1 <0>        -0.0820
     24 C18         1.1690    2.2230    5.2580 C.ar      1 <0>        -0.1041
     25 C19         2.2137    4.2606    8.2351 C.2       1 <0>         0.5658
     26 O2          2.0392    4.2741    9.4379 O.2       1 <0>        -0.5420
     27 N3          2.9938    5.1953    7.6568 N.am      1 <0>        -0.7245
     28 C20         3.6314    6.2275    8.4779 C.3       1 <0>         0.1405
     29 C21         2.6829    7.4330    8.6418 C.3       1 <0>        -0.1363
     30 C22         3.6228    8.6636    8.6046 C.3       1 <0>        -0.1243
     31 C23         4.6698    8.2618    7.5362 C.3       1 <0>        -0.1245
     32 C24         4.8947    6.7544    7.7750 C.3       1 <0>        -0.1325
     33 H2          1.0039    1.9031    0.0027 H         1 <0>         0.0427
     34 H3         -0.5459    1.8868   -0.8726 H         1 <0>         0.0388
     35 H4         -0.5289    1.8773    0.9072 H         1 <0>         0.0834
     36 H5          2.6621   -0.1777   -0.4306 H         1 <0>         0.1362
     37 H6          3.8163   -0.9721   -2.4550 H         1 <0>         0.1283
     38 H7          0.0439   -1.6937   -4.3184 H         1 <0>         0.1281
     39 H8         -1.1068   -0.9081   -2.2885 H         1 <0>         0.1271
     40 H9         -1.4423   -1.5995    5.2434 H         1 <0>         0.0659
     41 H10        -0.3644   -1.2317    6.6113 H         1 <0>         0.0643
     42 H11        -1.8669   -0.3039    6.3877 H         1 <0>         0.0726
     43 H12        -0.4621    0.5302    7.6828 H         1 <0>         0.1340
     44 H13         0.6044    2.2582    9.0706 H         1 <0>         0.1345
     45 H14         2.3925    3.9482    5.5578 H         1 <0>         0.1222
     46 H15         1.3249    2.2053    4.1895 H         1 <0>         0.1283
     47 H16         3.1330    5.1845    6.6969 H         1 <0>         0.4000
     48 H17         3.8904    5.8197    9.4550 H         1 <0>         0.0915
     49 H18         1.9701    7.4723    7.8181 H         1 <0>         0.0712
     50 H19         2.1608    7.3805    9.5971 H         1 <0>         0.0709
     51 H20         3.0786    9.5561    8.2957 H         1 <0>         0.0680
     52 H21         4.0984    8.8158    9.5734 H         1 <0>         0.0684
     53 H22         4.2779    8.4350    6.5339 H         1 <0>         0.0674
     54 H23         5.5976    8.8142    7.6847 H         1 <0>         0.0673
     55 H24         5.7666    6.6032    8.4113 H         1 <0>         0.0746
     56 H25         5.0333    6.2422    6.8229 H         1 <0>         0.0720
@<TRIPOS>BOND
     1    1    2 1
     2    1   33 1
     3    1   34 1
     4    1   35 1
     5    2    3 1
     6    2    4 1
     7    2   11 1
     8    4    9 ar
     9    4    5 ar
    10    5    6 ar
    11    5   36 1
    12    6    7 ar
    13    6   37 1
    14    7    8 ar
    15    7   10 1
    16    8    9 ar
    17    8   38 1
    18    9   39 1
    19   11   12 1
    20   12   17 1
    21   12   13 2
    22   13   14 1
    23   14   15 2
    24   14   16 1
    25   16   17 1
    26   16   18 1
    27   16   19 1
    28   18   40 1
    29   18   41 1
    30   18   42 1
    31   19   24 ar
    32   19   20 ar
    33   20   21 ar
    34   20   43 1
    35   21   22 ar
    36   21   44 1
    37   22   23 ar
    38   22   25 1
    39   23   24 ar
    40   23   45 1
    41   24   46 1
    42   25   26 2
    43   25   27 am
    44   27   28 1
    45   27   47 1
    46   28   32 1
    47   28   29 1
    48   28   48 1
    49   29   30 1
    50   29   49 1
    51   29   50 1
    52   30   31 1
    53   30   51 1
    54   30   52 1
    55   31   32 1
    56   31   53 1
    57   31   54 1
    58   32   55 1
    59   32   56 1
@<TRIPOS>MOLECULE
CHEMBL509257__2
   57    60     0     0     0
SMALL
USER_CHARGES

@<TRIPOS>ATOM
      1 C1         -0.0187    1.5258    0.0104 C.3       1 <0>        -0.1609
      2 C2          0.0021   -0.0041    0.0020 C.3       1 <0>         0.1867
      3 H1          0.5123   -0.3556   -0.8948 H         1 <0>         0.1139
      4 C3          0.7309   -0.5033    1.2229 C.ar      1 <0>        -0.1123
      5 C4          0.0802   -0.5583    2.4414 C.ar      1 <0>        -0.0870
      6 C5          0.7475   -1.0164    3.5616 C.ar      1 <0>        -0.1468
      7 C6          2.0682   -1.4203    3.4632 C.ar      1 <0>         0.1066
      8 C7          2.7189   -1.3647    2.2423 C.ar      1 <0>        -0.1466
      9 C8          2.0480   -0.9112    1.1224 C.ar      1 <0>        -0.0710
     10 F1          2.7216   -1.8678    4.5577 F         1 <0>        -0.1351
     11 N1         -1.3723   -0.5112    0.0124 N.pl3     1 <0>        -0.6369
     12 C9         -2.0590   -0.6443   -1.1585 C.2       1 <0>         0.4763
     13 N2         -1.6229   -0.3658   -2.3731 N.2       1 <0>        -0.6866
     14 C10        -2.3336   -0.5158   -3.4621 C.2       1 <0>         0.5500
     15 O1         -1.9211   -0.2563   -4.5757 O.2       1 <0>        -0.4472
     16 C11        -3.7337   -1.0512   -3.1842 C.3       1 <0>        -0.0632
     17 S1         -3.6342   -1.2044   -1.3532 S.3       1 <0>        -0.0811
     18 C12        -4.8099   -0.0501   -3.6092 C.3       1 <0>        -0.1243
     19 C13        -3.9488   -2.3941   -3.8334 C.ar      1 <0>        -0.0378
     20 C14        -4.9614   -2.5558   -4.7623 C.ar      1 <0>        -0.1020
     21 C15        -5.1636   -3.7825   -5.3603 C.ar      1 <0>        -0.0538
     22 C16        -4.3440   -4.8618   -5.0264 C.ar      1 <0>        -0.1251
     23 C17        -3.3244   -4.6919   -4.0885 C.ar      1 <0>        -0.0805
     24 C18        -3.1292   -3.4585   -3.5021 C.ar      1 <0>        -0.1051
     25 C19        -4.5553   -6.1793   -5.6629 C.2       1 <0>         0.5590
     26 O2         -5.4444   -6.3244   -6.4790 O.2       1 <0>        -0.5310
     27 N3         -3.7622   -7.2195   -5.3383 N.am      1 <0>        -0.7207
     28 C20        -3.9716   -8.5251   -5.9690 C.3       1 <0>         0.1390
     29 C21        -5.0036   -9.3416   -5.1639 C.3       1 <0>        -0.1352
     30 C22        -4.4796  -10.7971   -5.2404 C.3       1 <0>        -0.1252
     31 C23        -2.9449  -10.6136   -5.1397 C.3       1 <0>        -0.1248
     32 C24        -2.6627   -9.3339   -5.9537 C.3       1 <0>        -0.1324
     33 H2          1.0039    1.9031    0.0027 H         1 <0>         0.0785
     34 H3         -0.5459    1.8868   -0.8726 H         1 <0>         0.0724
     35 H4         -0.5289    1.8773    0.9072 H         1 <0>         0.0633
     36 H5         -0.9498   -0.2429    2.5180 H         1 <0>         0.1305
     37 H6          0.2390   -1.0590    4.5135 H         1 <0>         0.1406
     38 H7          3.7492   -1.6791    2.1644 H         1 <0>         0.1416
     39 H8          2.5540   -0.8720    0.1690 H         1 <0>         0.1394
     40 H9         -1.7940   -0.7522    0.8520 H         1 <0>         0.4240
     41 H10        -4.7290    0.1376   -4.6798 H         1 <0>         0.0922
     42 H11        -5.7952   -0.4590   -3.3854 H         1 <0>         0.0833
     43 H12        -4.6721    0.8842   -3.0650 H         1 <0>         0.0758
     44 H13        -5.5951   -1.7199   -5.0196 H         1 <0>         0.1409
     45 H14        -5.9546   -3.9075   -6.0850 H         1 <0>         0.1440
     46 H15        -2.6868   -5.5230   -3.8257 H         1 <0>         0.1298
     47 H16        -2.3378   -3.3245   -2.7795 H         1 <0>         0.1245
     48 H17        -3.0528   -7.1037   -4.6870 H         1 <0>         0.3989
     49 H18        -4.3169   -8.3930   -6.9944 H         1 <0>         0.0941
     50 H19        -5.0353   -9.0015   -4.1288 H         1 <0>         0.0700
     51 H20        -5.9901   -9.2667   -5.6214 H         1 <0>         0.0723
     52 H21        -4.8538  -11.3869   -4.4037 H         1 <0>         0.0698
     53 H22        -4.7522  -11.2563   -6.1906 H         1 <0>         0.0706
     54 H23        -2.6442  -10.4790   -4.1007 H         1 <0>         0.0670
     55 H24        -2.4290  -11.4671   -5.5797 H         1 <0>         0.0697
     56 H25        -2.3732   -9.5951   -6.9716 H         1 <0>         0.0769
     57 H26        -1.8716   -8.7551   -5.4769 H         1 <0>         0.0707
@<TRIPOS>BOND
     1    1    2 1
     2    1   33 1
     3    1   34 1
     4    1   35 1
     5    2    3 1
     6    2    4 1
     7    2   11 1
     8    4    9 ar
     9    4    5 ar
    10    5    6 ar
    11    5   36 1
    12    6    7 ar
    13    6   37 1
    14    7    8 ar
    15    7   10 1
    16    8    9 ar
    17    8   38 1
    18    9   39 1
    19   11   12 1
    20   11   40 1
    21   12   17 1
    22   12   13 2
    23   13   14 1
    24   14   15 2
    25   14   16 1
    26   16   17 1
    27   16   18 1
    28   16   19 1
    29   18   41 1
    30   18   42 1
    31   18   43 1
    32   19   24 ar
    33   19   20 ar
    34   20   21 ar
    35   20   44 1
    36   21   22 ar
    37   21   45 1
    38   22   23 ar
    39   22   25 1
    40   23   24 ar
    41   23   46 1
    42   24   47 1
    43   25   26 2
    44   25   27 am
    45   27   28 1
    46   27   48 1
    47   28   32 1
    48   28   29 1
    49   28   49 1
    50   29   30 1
    51   29   50 1
    52   29   51 1
    53   30   31 1
    54   30   52 1
    55   30   53 1
    56   31   32 1
    57   31   54 1
    58   31   55 1
    59   32   56 1
    60   32   57 1
@<TRIPOS>MOLECULE
CHEMBL509257__3
   56    59     0     0     0
SMALL
USER_CHARGES

@<TRIPOS>ATOM
      1 C1         -0.0187    1.5258    0.0104 C.3       1 <0>        -0.1533
      2 C2          0.0021   -0.0041    0.0020 C.3       1 <0>         0.1426
      3 H1         -1.0205   -0.3814    0.0098 H         1 <0>         0.0521
      4 C3          0.7074   -0.4901   -1.2379 C.ar      1 <0>        -0.0507
      5 C4          2.0890   -0.5106   -1.2833 C.ar      1 <0>        -0.0598
      6 C5          2.7369   -0.9565   -2.4196 C.ar      1 <0>        -0.1592
      7 C6          2.0019   -1.3828   -3.5128 C.ar      1 <0>         0.0769
      8 C7          0.6182   -1.3618   -3.4661 C.ar      1 <0>        -0.1574
      9 C8         -0.0275   -0.9204   -2.3268 C.ar      1 <0>        -0.0953
     10 F1          2.6342   -1.8185   -4.6244 F         1 <0>        -0.1495
     11 N1          0.7106   -0.4894    1.1889 N.2       1 <0>        -0.5992
     12 C9          0.2521   -0.1729    2.4338 C.2       1 <0>         0.3982
     13 N2         -0.8115    0.5510    2.7302 N.2       1 <0>        -0.7433
     14 C10        -1.2010    0.8205    3.9504 C.2       1 <0>         0.5332
     15 O1         -2.1828    1.4882    4.2113 O.2       1 <0>        -0.5519
     16 C11        -0.2920    0.2069    5.0094 C.3       1 <0>        -0.0805
     17 S1          0.9214   -0.6309    3.9086 S.3       1 <0>        -0.1605
     18 C12         0.3743    1.2846    5.8670 C.3       1 <0>        -0.1106
     19 C13        -1.0342   -0.7896    5.8622 C.ar      1 <0>         0.0001
     20 C14        -1.1240   -0.5946    7.2290 C.ar      1 <0>        -0.1195
     21 C15        -1.8020   -1.5030    8.0154 C.ar      1 <0>        -0.0569
     22 C16        -2.3981   -2.6206    7.4292 C.ar      1 <0>        -0.1499
     23 C17        -2.3038   -2.8114    6.0498 C.ar      1 <0>        -0.0822
     24 C18        -1.6277   -1.8924    5.2741 C.ar      1 <0>        -0.1038
     25 C19        -3.1259   -3.5985    8.2659 C.2       1 <0>         0.5658
     26 O2         -3.2060   -3.4300    9.4670 O.2       1 <0>        -0.5421
     27 N3         -3.7004   -4.6767    7.6968 N.am      1 <0>        -0.7245
     28 C20        -4.4215   -5.6456    8.5259 C.3       1 <0>         0.1404
     29 C21        -3.4461   -6.7165    9.0566 C.3       1 <0>        -0.1358
     30 C22        -4.2688   -8.0284    9.0257 C.3       1 <0>        -0.1242
     31 C23        -5.0950   -7.8832    7.7237 C.3       1 <0>        -0.1243
     32 C24        -5.4699   -6.3875    7.6784 C.3       1 <0>        -0.1329
     33 H2          1.0039    1.9031    0.0027 H         1 <0>         0.0429
     34 H3         -0.5459    1.8868   -0.8726 H         1 <0>         0.0387
     35 H4         -0.5289    1.8773    0.9072 H         1 <0>         0.0835
     36 H5          2.6621   -0.1777   -0.4306 H         1 <0>         0.1363
     37 H6          3.8163   -0.9721   -2.4550 H         1 <0>         0.1284
     38 H7          0.0439   -1.6937   -4.3184 H         1 <0>         0.1281
     39 H8         -1.1068   -0.9081   -2.2885 H         1 <0>         0.1270
     40 H9         -0.3919    1.8666    6.3792 H         1 <0>         0.0728
     41 H10         1.0247    0.8124    6.6033 H         1 <0>         0.0643
     42 H11         0.9648    1.9426    5.2296 H         1 <0>         0.0657
     43 H12        -0.6620    0.2705    7.6814 H         1 <0>         0.1340
     44 H13        -1.8711   -1.3498    9.0822 H         1 <0>         0.1344
     45 H14        -2.7628   -3.6742    5.5901 H         1 <0>         0.1222
     46 H15        -1.5577   -2.0365    4.2060 H         1 <0>         0.1284
     47 H16        -3.6364   -4.8112    6.7383 H         1 <0>         0.4000
     48 H17        -4.9069   -5.1362    9.3584 H         1 <0>         0.0915
     49 H18        -2.5760   -6.7964    8.4050 H         1 <0>         0.0711
     50 H19        -3.1401   -6.4820   10.0762 H         1 <0>         0.0708
     51 H20        -3.6109   -8.8958    8.9710 H         1 <0>         0.0679
     52 H21        -4.9245   -8.0937    9.8940 H         1 <0>         0.0684
     53 H22        -4.4912   -8.1516    6.8568 H         1 <0>         0.0674
     54 H23        -5.9924   -8.5002    7.7705 H         1 <0>         0.0673
     55 H24        -6.4640   -6.2388    8.1001 H         1 <0>         0.0746
     56 H25        -5.4422   -6.0266    6.6503 H         1 <0>         0.0720
@<TRIPOS>BOND
     1    1    2 1
     2    1   33 1
     3    1   34 1
     4    1   35 1
     5    2    3 1
     6    2    4 1
     7    2   11 1
     8    4    9 ar
     9    4    5 ar
    10    5    6 ar
    11    5   36 1
    12    6    7 ar
    13    6   37 1
    14    7    8 ar
    15    7   10 1
    16    8    9 ar
    17    8   38 1
    18    9   39 1
    19   11   12 1
    20   12   17 1
    21   12   13 2
    22   13   14 1
    23   14   15 2
    24   14   16 1
    25   16   17 1
    26   16   18 1
    27   16   19 1
    28   18   40 1
    29   18   41 1
    30   18   42 1
    31   19   24 ar
    32   19   20 ar
    33   20   21 ar
    34   20   43 1
    35   21   22 ar
    36   21   44 1
    37   22   23 ar
    38   22   25 1
    39   23   24 ar
    40   23   45 1
    41   24   46 1
    42   25   26 2
    43   25   27 am
    44   27   28 1
    45   27   47 1
    46   28   32 1
    47   28   29 1
    48   28   48 1
    49   29   30 1
    50   29   49 1
    51   29   50 1
    52   30   31 1
    53   30   51 1
    54   30   52 1
    55   31   32 1
    56   31   53 1
    57   31   54 1
    58   32   55 1
    59   32   56 1
@<TRIPOS>MOLECULE
CHEMBL524040
   49    53     0     0     0
SMALL
USER_CHARGES

@<TRIPOS>ATOM
      1 C1          0.4189    1.5875    0.2230 C.3       1 <0>         0.0612
      2 N1          0.2891    0.1334    0.1011 N.pl3     1 <0>        -0.4671
      3 C2          0.1661   -0.5908   -1.0540 C.2       1 <0>         0.2168
      4 N2          0.0773   -1.8556   -0.7064 N.2       1 <0>        -0.2738
      5 N3          0.1366   -1.9591    0.5734 N.2       1 <0>        -0.2794
      6 C3          0.2716   -0.7774    1.1128 C.2       1 <0>         0.2042
      7 C4          0.3839   -0.4769    2.5853 C.3       1 <0>         0.0348
      8 C5         -0.0925   -1.6279    3.4870 C.3       1 <0>        -0.1061
      9 C6         -0.7275   -0.5550    4.3873 C.3       1 <0>        -0.1378
     10 C7         -0.7953    0.3403    3.1389 C.3       1 <0>        -0.1323
     11 C8          1.7331    0.0742    2.9688 C.ar      1 <0>        -0.0611
     12 C9          2.8593   -0.7207    2.8641 C.ar      1 <0>        -0.0884
     13 C10         4.0969   -0.2158    3.2157 C.ar      1 <0>        -0.1052
     14 C11         4.2086    1.0854    3.6725 C.ar      1 <0>        -0.0312
     15 C12         3.0812    1.8804    3.7770 C.ar      1 <0>        -0.1068
     16 C13         1.8448    1.3762    3.4197 C.ar      1 <0>        -0.1056
     17 Cl1         5.7627    1.7200    4.1148 Cl        1 <0>        -0.0645
     18 C14         0.1381   -0.0526   -2.4311 C.ar      1 <0>        -0.0305
     19 C15        -0.0720    1.3106   -2.6452 C.ar      1 <0>        -0.0895
     20 C16        -0.0971    1.8090   -3.9298 C.ar      1 <0>        -0.1378
     21 C17         0.0865    0.9560   -5.0114 C.ar      1 <0>         0.1590
     22 C18         0.2954   -0.4018   -4.8018 C.ar      1 <0>        -0.1377
     23 C19         0.3274   -0.9058   -3.5195 C.ar      1 <0>        -0.0430
     24 N4          0.0604    1.4658   -6.3157 N.pl3     1 <0>        -0.4007
     25 C20        -0.1296    2.7750   -6.6555 C.2       1 <0>        -0.0176
     26 C21        -0.0897    2.8713   -7.9999 C.2       1 <0>        -0.1854
     27 C22         0.1328    1.5764   -8.5104 C.2       1 <0>        -0.1860
     28 C23         0.2266    0.7373   -7.4591 C.2       1 <0>        -0.0152
     29 H1          1.3971    1.8970   -0.1451 H         1 <0>         0.0887
     30 H2         -0.3606    2.0724   -0.3646 H         1 <0>         0.0953
     31 H3          0.3169    1.8749    1.2695 H         1 <0>         0.0971
     32 H4         -0.8203   -2.2840    3.0096 H         1 <0>         0.0999
     33 H5          0.7211   -2.1734    3.9651 H         1 <0>         0.0800
     34 H6         -1.7060   -0.8355    4.7771 H         1 <0>         0.0790
     35 H7         -0.0556   -0.1786    5.1586 H         1 <0>         0.0872
     36 H8         -0.5492    1.3837    3.3359 H         1 <0>         0.0805
     37 H9         -1.7153    0.2223    2.5663 H         1 <0>         0.0903
     38 H10         2.7719   -1.7365    2.5079 H         1 <0>         0.1344
     39 H11         4.9766   -0.8370    3.1343 H         1 <0>         0.1368
     40 H12         3.1677    2.8961    4.1338 H         1 <0>         0.1372
     41 H13         0.9653    1.9983    3.4967 H         1 <0>         0.1371
     42 H14        -0.2151    1.9741   -1.8051 H         1 <0>         0.1396
     43 H15        -0.2600    2.8636   -4.0962 H         1 <0>         0.1375
     44 H16         0.4370   -1.0622   -5.6446 H         1 <0>         0.1399
     45 H17         0.4946   -1.9603   -3.3571 H         1 <0>         0.1471
     46 H18        -0.2853    3.5919   -5.9664 H         1 <0>         0.1657
     47 H19        -0.2071    3.7750   -8.5794 H         1 <0>         0.1430
     48 H20         0.2174    1.3065   -9.5527 H         1 <0>         0.1433
     49 H21         0.4005   -0.3273   -7.5120 H         1 <0>         0.1671
@<TRIPOS>BOND
     1    1    2 1
     2    1   29 1
     3    1   30 1
     4    1   31 1
     5    2    6 1
     6    2    3 1
     7    3    4 2
     8    3   18 1
     9    4    5 1
    10    5    6 2
    11    6    7 1
    12    7   10 1
    13    7    8 1
    14    7   11 1
    15    8    9 1
    16    8   32 1
    17    8   33 1
    18    9   10 1
    19    9   34 1
    20    9   35 1
    21   10   36 1
    22   10   37 1
    23   11   16 ar
    24   11   12 ar
    25   12   13 ar
    26   12   38 1
    27   13   14 ar
    28   13   39 1
    29   14   15 ar
    30   14   17 1
    31   15   16 ar
    32   15   40 1
    33   16   41 1
    34   18   23 ar
    35   18   19 ar
    36   19   20 ar
    37   19   42 1
    38   20   21 ar
    39   20   43 1
    40   21   22 ar
    41   21   24 1
    42   22   23 ar
    43   22   44 1
    44   23   45 1
    45   24   28 1
    46   24   25 1
    47   25   26 2
    48   25   46 1
    49   26   27 1
    50   26   47 1
    51   27   28 2
    52   27   48 1
    53   28   49 1
@<TRIPOS>MOLECULE
CHEMBL493801
   52    56     0     0     0
SMALL
USER_CHARGES

@<TRIPOS>ATOM
      1 C1          1.0767    1.7994   -0.1944 C.3       1 <0>         0.0606
      2 N1          0.9330    0.3665   -0.4633 N.pl3     1 <0>        -0.4662
      3 C2          0.9398   -0.2491   -1.6858 C.2       1 <0>         0.2134
      4 N2          0.7828   -1.5362   -1.4683 N.2       1 <0>        -0.2714
      5 N3          0.6807   -1.7536   -0.2055 N.2       1 <0>        -0.2795
      6 C3          0.7712   -0.6288    0.4517 C.2       1 <0>         0.2054
      7 C4          0.7048   -0.4625    1.9480 C.3       1 <0>         0.0346
      8 C5          0.0977   -1.6734    2.6761 C.3       1 <0>        -0.1061
      9 C6         -0.6240   -0.6652    3.5857 C.3       1 <0>        -0.1378
     10 C7         -0.5184    0.3382    2.4251 C.3       1 <0>        -0.1323
     11 C8          2.0059    0.0116    2.5424 C.ar      1 <0>        -0.0615
     12 C9          3.1223   -0.8027    2.4997 C.ar      1 <0>        -0.0883
     13 C10         4.3159   -0.3684    3.0447 C.ar      1 <0>        -0.1051
     14 C11         4.3933    0.8814    3.6330 C.ar      1 <0>        -0.0311
     15 C12         3.2757    1.6958    3.6754 C.ar      1 <0>        -0.1067
     16 C13         2.0841    1.2627    3.1250 C.ar      1 <0>        -0.1054
     17 Cl1         5.8921    1.4273    4.3182 Cl        1 <0>        -0.0645
     18 C14         1.0942    0.4086   -3.0013 C.ar      1 <0>        -0.0135
     19 C15         0.9435    1.7916   -3.1140 C.ar      1 <0>        -0.1057
     20 C16         1.0887    2.4012   -4.3416 C.ar      1 <0>        -0.1172
     21 C17         1.3846    1.6409   -5.4658 C.ar      1 <0>         0.1000
     22 C18         1.5352    0.2643   -5.3575 C.ar      1 <0>        -0.1280
     23 C19         1.3968   -0.3515   -4.1322 C.ar      1 <0>        -0.0592
     24 O1          1.5265    2.2450   -6.6741 O.3       1 <0>        -0.2588
     25 C20         0.5111    2.1271   -7.5694 C.ar      1 <0>         0.1189
     26 C21        -0.6764    1.5136   -7.1967 C.ar      1 <0>        -0.1934
     27 C22        -1.7072    1.3955   -8.1087 C.ar      1 <0>        -0.0818
     28 C23        -1.5565    1.8881   -9.3918 C.ar      1 <0>        -0.1505
     29 C24        -0.3741    2.4996   -9.7659 C.ar      1 <0>        -0.0824
     30 C25         0.6577    2.6253   -8.8561 C.ar      1 <0>        -0.1442
     31 H1          2.0992    2.1089   -0.4107 H         1 <0>         0.0894
     32 H2          0.3865    2.3586   -0.8261 H         1 <0>         0.0959
     33 H3          0.8514    1.9968    0.8536 H         1 <0>         0.0972
     34 H4         -0.5774   -2.2626    2.0554 H         1 <0>         0.0999
     35 H5          0.8347   -2.2833    3.1985 H         1 <0>         0.0801
     36 H6         -1.6486   -0.9491    3.8256 H         1 <0>         0.0790
     37 H7         -0.0463   -0.3786    4.4645 H         1 <0>         0.0873
     38 H8         -0.2788    1.3522    2.7450 H         1 <0>         0.0806
     39 H9         -1.3619    0.2989    1.7359 H         1 <0>         0.0903
     40 H10         3.0616   -1.7784    2.0408 H         1 <0>         0.1344
     41 H11         5.1879   -1.0048    3.0117 H         1 <0>         0.1368
     42 H12         3.3355    2.6714    4.1347 H         1 <0>         0.1373
     43 H13         1.2129    1.9003    3.1538 H         1 <0>         0.1372
     44 H14         0.7131    2.3834   -2.2404 H         1 <0>         0.1397
     45 H15         0.9719    3.4712   -4.4297 H         1 <0>         0.1400
     46 H16         1.7653   -0.3236   -6.2337 H         1 <0>         0.1402
     47 H17         1.5181   -1.4214   -4.0480 H         1 <0>         0.1460
     48 H18        -0.7944    1.1283   -6.1947 H         1 <0>         0.1277
     49 H19        -2.6315    0.9177   -7.8192 H         1 <0>         0.1268
     50 H20        -2.3637    1.7948  -10.1033 H         1 <0>         0.1263
     51 H21        -0.2589    2.8832  -10.7689 H         1 <0>         0.1324
     52 H22         1.5795    3.1070   -9.1474 H         1 <0>         0.1332
@<TRIPOS>BOND
     1    1    2 1
     2    1   31 1
     3    1   32 1
     4    1   33 1
     5    2    6 1
     6    2    3 1
     7    3    4 2
     8    3   18 1
     9    4    5 1
    10    5    6 2
    11    6    7 1
    12    7   10 1
    13    7    8 1
    14    7   11 1
    15    8    9 1
    16    8   34 1
    17    8   35 1
    18    9   10 1
    19    9   36 1
    20    9   37 1
    21   10   38 1
    22   10   39 1
    23   11   16 ar
    24   11   12 ar
    25   12   13 ar
    26   12   40 1
    27   13   14 ar
    28   13   41 1
    29   14   15 ar
    30   14   17 1
    31   15   16 ar
    32   15   42 1
    33   16   43 1
    34   18   23 ar
    35   18   19 ar
    36   19   20 ar
    37   19   44 1
    38   20   21 ar
    39   20   45 1
    40   21   22 ar
    41   21   24 1
    42   22   23 ar
    43   22   46 1
    44   23   47 1
    45   24   25 1
    46   25   30 ar
    47   25   26 ar
    48   26   27 ar
    49   26   48 1
    50   27   28 ar
    51   27   49 1
    52   28   29 ar
    53   28   50 1
    54   29   30 ar
    55   29   51 1
    56   30   52 1
@<TRIPOS>MOLECULE
CHEMBL383352
   59    62     0     0     0
SMALL
USER_CHARGES

@<TRIPOS>ATOM
      1 C1          0.6906    1.3745    0.8392 C.3       1 <0>        -0.1547
      2 C2          0.6820   -0.1525    0.7444 C.3       1 <0>        -0.1251
      3 C3          1.1373   -0.5793   -0.6525 C.3       1 <0>        -0.1216
      4 C4          1.1287   -2.1064   -0.7474 C.3       1 <0>        -0.1233
      5 C5          1.5840   -2.5331   -2.1443 C.3       1 <0>        -0.1089
      6 C6          1.5754   -4.0602   -2.2392 C.3       1 <0>        -0.0561
      7 C7          2.5280   -4.6415   -1.1925 C.3       1 <0>        -0.1055
      8 C8          2.5194   -6.1686   -1.2874 C.3       1 <0>        -0.1111
      9 C9          1.5611   -6.6052   -2.3973 C.3       1 <0>         0.0351
     10 C10         2.0222   -6.0140   -3.7310 C.3       1 <0>        -0.0957
     11 C11         2.0308   -4.4870   -3.6361 C.3       1 <0>        -0.1079
     12 C12         0.1504   -6.1061   -2.0786 C.3       1 <0>        -0.1129
     13 C13         0.1589   -4.5791   -1.9838 C.3       1 <0>        -0.1053
     14 C14         1.5526   -8.1093   -2.4907 C.2       1 <0>         0.2033
     15 N1          1.9602   -8.8229   -3.5059 N.2       1 <0>        -0.2769
     16 N2          1.8128  -10.0745   -3.2526 N.2       1 <0>        -0.2551
     17 C15         1.2991  -10.2265   -2.0522 C.2       1 <0>         0.1866
     18 N3          1.1245   -8.9733   -1.5305 N.pl3     1 <0>        -0.4645
     19 C16         0.5854   -8.6324   -0.2117 C.3       1 <0>         0.0511
     20 C17         0.9768  -11.5089   -1.3887 C.ar      1 <0>         0.0385
     21 C18         0.2920  -11.5160   -0.1730 C.ar      1 <0>        -0.1281
     22 C19        -0.0060  -12.7152    0.4404 C.ar      1 <0>        -0.0826
     23 C20         0.3728  -13.9092   -0.1473 C.ar      1 <0>        -0.1091
     24 C21         1.0523  -13.9089   -1.3522 C.ar      1 <0>        -0.0677
     25 C22         1.3513  -12.7163   -1.9787 C.ar      1 <0>        -0.1493
     26 C23         2.0857  -12.7179   -3.2946 C.3       1 <0>         0.5146
     27 F1          2.3499  -14.0367   -3.6796 F         1 <0>        -0.1837
     28 F2          1.2976  -12.0966   -4.2693 F         1 <0>        -0.1572
     29 F3          3.2915  -12.0220   -3.1566 F         1 <0>        -0.1664
     30 H1          1.6997    1.7442    0.6573 H         1 <0>         0.0534
     31 H2          0.0119    1.7887    0.0936 H         1 <0>         0.0534
     32 H3          0.3662    1.6785    1.8344 H         1 <0>         0.0530
     33 H4          1.3606   -0.5667    1.4901 H         1 <0>         0.0596
     34 H5         -0.3272   -0.5222    0.9264 H         1 <0>         0.0595
     35 H6          0.4587   -0.1652   -1.3982 H         1 <0>         0.0604
     36 H7          2.1464   -0.2097   -0.8345 H         1 <0>         0.0604
     37 H8          1.8073   -2.5205   -0.0017 H         1 <0>         0.0637
     38 H9          0.1196   -2.4760   -0.5654 H         1 <0>         0.0636
     39 H10         0.9054   -2.1190   -2.8900 H         1 <0>         0.0639
     40 H11         2.5932   -2.1635   -2.3263 H         1 <0>         0.0640
     41 H12         3.5371   -4.2719   -1.3745 H         1 <0>         0.0683
     42 H13         2.2036   -4.3375   -0.1973 H         1 <0>         0.0698
     43 H14         3.5245   -6.5242   -1.5144 H         1 <0>         0.0704
     44 H15         2.1909   -6.5898   -0.3372 H         1 <0>         0.0616
     45 H16         3.0272   -6.3696   -3.9580 H         1 <0>         0.0747
     46 H17         1.3394   -6.3251   -4.5217 H         1 <0>         0.0722
     47 H18         1.3521   -4.0728   -4.3818 H         1 <0>         0.0668
     48 H19         3.0399   -4.1173   -3.8181 H         1 <0>         0.0672
     49 H20        -0.5324   -6.4172   -2.8693 H         1 <0>         0.0688
     50 H21        -0.1781   -6.5273   -1.1285 H         1 <0>         0.0623
     51 H22        -0.1654   -4.2750   -0.9886 H         1 <0>         0.0698
     52 H23        -0.5197   -4.1649   -2.7294 H         1 <0>         0.0678
     53 H24        -0.5039   -8.6361   -0.2523 H         1 <0>         0.0896
     54 H25         0.9242   -9.3658    0.5200 H         1 <0>         0.0995
     55 H26         0.9347   -7.6415    0.0786 H         1 <0>         0.1035
     56 H27        -0.0039  -10.5847    0.2869 H         1 <0>         0.1427
     57 H28        -0.5357  -12.7221    1.3816 H         1 <0>         0.1404
     58 H29         0.1372  -14.8454    0.3369 H         1 <0>         0.1416
     59 H30         1.3459  -14.8442   -1.8055 H         1 <0>         0.1476
@<TRIPOS>BOND
     1    1    2 1
     2    1   30 1
     3    1   31 1
     4    1   32 1
     5    2    3 1
     6    2   33 1
     7    2   34 1
     8    3    4 1
     9    3   35 1
    10    3   36 1
    11    4    5 1
    12    4   37 1
    13    4   38 1
    14    5    6 1
    15    5   39 1
    16    5   40 1
    17    6   11 1
    18    6   13 1
    19    6    7 1
    20    7    8 1
    21    7   41 1
    22    7   42 1
    23    8    9 1
    24    8   43 1
    25    8   44 1
    26    9   10 1
    27    9   12 1
    28    9   14 1
    29   10   11 1
    30   10   45 1
    31   10   46 1
    32   11   47 1
    33   11   48 1
    34   12   13 1
    35   12   49 1
    36   12   50 1
    37   13   51 1
    38   13   52 1
    39   14   18 1
    40   14   15 2
    41   15   16 1
    42   16   17 2
    43   17   18 1
    44   17   20 1
    45   18   19 1
    46   19   53 1
    47   19   54 1
    48   19   55 1
    49   20   25 ar
    50   20   21 ar
    51   21   22 ar
    52   21   56 1
    53   22   23 ar
    54   22   57 1
    55   23   24 ar
    56   23   58 1
    57   24   25 ar
    58   24   59 1
    59   25   26 1
    60   26   27 1
    61   26   28 1
    62   26   29 1
@<TRIPOS>MOLECULE
CHEMBL512114
   39    40     0     0     0
SMALL
USER_CHARGES

@<TRIPOS>ATOM
      1 C1         -0.0187    1.5258    0.0104 C.3       1 <0>        -0.1477
      2 C2          0.0021   -0.0041    0.0020 C.3       1 <0>        -0.1360
      3 C3          0.7421   -0.5109    1.2415 C.3       1 <0>        -0.0852
      4 C4          0.7628   -2.0407    1.2331 C.3       1 <0>        -0.0988
      5 C5          1.1383   -2.5855   -0.1405 C.2       1 <0>         0.5485
      6 O1          2.2096   -2.3789   -0.6763 O.2       1 <0>        -0.4613
      7 N1          0.1836   -3.2996   -0.6808 N.2       1 <0>        -0.6908
      8 C6         -0.9836   -3.5315   -0.1091 C.2       1 <0>         0.4799
      9 S1         -0.9345   -2.7372    1.3740 S.3       1 <0>        -0.1043
     10 N2         -2.0167   -4.2635   -0.6162 N.pl3     1 <0>        -0.6396
     11 C7         -1.8916   -4.8925   -1.9334 C.3       1 <0>         0.1441
     12 C8         -2.2677   -3.8819   -3.0189 C.3       1 <0>        -0.1287
     13 C9         -2.1371   -4.5388   -4.3945 C.3       1 <0>        -0.1168
     14 C10        -3.0741   -5.7457   -4.4745 C.3       1 <0>        -0.1239
     15 C11        -2.6979   -6.7562   -3.3890 C.3       1 <0>        -0.1153
     16 C12        -2.8286   -6.0993   -2.0134 C.3       1 <0>        -0.1283
     17 C13         1.6846   -2.5888    2.3244 C.3       1 <0>        -0.1195
     18 H1          1.0039    1.9031    0.0027 H         1 <0>         0.0571
     19 H2         -0.5459    1.8868   -0.8726 H         1 <0>         0.0568
     20 H3         -0.5289    1.8773    0.9072 H         1 <0>         0.0568
     21 H4         -1.0205   -0.3814    0.0098 H         1 <0>         0.0662
     22 H5          0.5123   -0.3556   -0.8948 H         1 <0>         0.0642
     23 H6          1.7647   -0.1336    1.2338 H         1 <0>         0.0932
     24 H7          0.2319   -0.1594    2.1383 H         1 <0>         0.0834
     25 H8         -2.8343   -4.3677   -0.1047 H         1 <0>         0.4236
     26 H9         -0.8630   -5.2205   -2.0831 H         1 <0>         0.1021
     27 H10        -3.2963   -3.5539   -2.8691 H         1 <0>         0.0658
     28 H11        -1.6002   -3.0222   -2.9619 H         1 <0>         0.0719
     29 H12        -2.4050   -3.8189   -5.1678 H         1 <0>         0.0684
     30 H13        -1.1084   -4.8669   -4.5443 H         1 <0>         0.0675
     31 H14        -4.1027   -5.4176   -4.3247 H         1 <0>         0.0637
     32 H15        -2.9810   -6.2136   -5.4545 H         1 <0>         0.0671
     33 H16        -3.3655   -7.6160   -3.4460 H         1 <0>         0.0713
     34 H17        -1.6693   -7.0843   -3.5387 H         1 <0>         0.0679
     35 H18        -2.5606   -6.8192   -1.2401 H         1 <0>         0.0725
     36 H19        -3.8572   -5.7712   -1.8636 H         1 <0>         0.0718
     37 H20         1.3334   -2.2516    3.2997 H         1 <0>         0.0773
     38 H21         1.6777   -3.6783    2.2925 H         1 <0>         0.0681
     39 H22         2.6993   -2.2268    2.1585 H         1 <0>         0.0871
@<TRIPOS>BOND
     1    1    2 1
     2    1   18 1
     3    1   19 1
     4    1   20 1
     5    2    3 1
     6    2   21 1
     7    2   22 1
     8    3    4 1
     9    3   23 1
    10    3   24 1
    11    4    9 1
    12    4    5 1
    13    4   17 1
    14    5    6 2
    15    5    7 1
    16    7    8 2
    17    8    9 1
    18    8   10 1
    19   10   11 1
    20   10   25 1
    21   11   16 1
    22   11   12 1
    23   11   26 1
    24   12   13 1
    25   12   27 1
    26   12   28 1
    27   13   14 1
    28   13   29 1
    29   13   30 1
    30   14   15 1
    31   14   31 1
    32   14   32 1
    33   15   16 1
    34   15   33 1
    35   15   34 1
    36   16   35 1
    37   16   36 1
    38   17   37 1
    39   17   38 1
    40   17   39 1
@<TRIPOS>MOLECULE
CHEMBL512114__1
   39    40     0     0     0
SMALL
USER_CHARGES

@<TRIPOS>ATOM
      1 C1         -0.0187    1.5258    0.0104 C.3       1 <0>        -0.1477
      2 C2          0.0021   -0.0041    0.0020 C.3       1 <0>        -0.1361
      3 C3          0.7421   -0.5109    1.2415 C.3       1 <0>        -0.0852
      4 C4          0.7628   -2.0407    1.2331 C.3       1 <0>        -0.0986
      5 C5         -0.6072   -2.6148    0.8896 C.2       1 <0>         0.5484
      6 O1         -1.5991   -2.4423    1.5708 O.2       1 <0>        -0.4613
      7 N1         -0.6011   -3.3128   -0.2177 N.2       1 <0>        -0.6908
      8 C6          0.4689   -3.5071   -0.9663 C.2       1 <0>         0.4799
      9 S1          1.7235   -2.6926   -0.1946 S.3       1 <0>        -0.1044
     10 N2          0.5426   -4.2212   -2.1260 N.pl3     1 <0>        -0.6395
     11 C7         -0.6550   -4.8722   -2.6627 C.3       1 <0>         0.1441
     12 C8         -0.8303   -6.2414   -2.0027 C.3       1 <0>        -0.1289
     13 C9         -2.0810   -6.9214   -2.5632 C.3       1 <0>        -0.1168
     14 C10        -1.9304   -7.0997   -4.0753 C.3       1 <0>        -0.1239
     15 C11        -1.7551   -5.7305   -4.7353 C.3       1 <0>        -0.1153
     16 C12        -0.5043   -5.0506   -4.1748 C.3       1 <0>        -0.1283
     17 C13         1.2863   -2.5955    2.5595 C.3       1 <0>        -0.1195
     18 H1          1.0039    1.9031    0.0027 H         1 <0>         0.0568
     19 H2         -0.5459    1.8868   -0.8726 H         1 <0>         0.0568
     20 H3         -0.5289    1.8773    0.9072 H         1 <0>         0.0571
     21 H4         -1.0205   -0.3814    0.0098 H         1 <0>         0.0642
     22 H5          0.5123   -0.3556   -0.8948 H         1 <0>         0.0662
     23 H6          1.7647   -0.1336    1.2338 H         1 <0>         0.0835
     24 H7          0.2319   -0.1594    2.1383 H         1 <0>         0.0932
     25 H8          1.3880   -4.2979   -2.5954 H         1 <0>         0.4236
     26 H9         -1.5285   -4.2542   -2.4550 H         1 <0>         0.1022
     27 H10         0.0432   -6.8594   -2.2104 H         1 <0>         0.0658
     28 H11        -0.9376   -6.1144   -0.9254 H         1 <0>         0.0718
     29 H12        -2.2059   -7.8968   -2.0930 H         1 <0>         0.0684
     30 H13        -2.9546   -6.3034   -2.3555 H         1 <0>         0.0675
     31 H14        -1.0568   -7.7177   -4.2830 H         1 <0>         0.0638
     32 H15        -2.8214   -7.5841   -4.4746 H         1 <0>         0.0671
     33 H16        -1.6477   -5.8576   -5.8125 H         1 <0>         0.0713
     34 H17        -2.6286   -5.1125   -4.5276 H         1 <0>         0.0679
     35 H18        -0.3794   -4.0752   -4.6450 H         1 <0>         0.0725
     36 H19         0.3692   -5.6686   -4.3825 H         1 <0>         0.0718
     37 H20         0.6419   -2.2614    3.3726 H         1 <0>         0.0871
     38 H21         1.2889   -3.6848    2.5220 H         1 <0>         0.0680
     39 H22         2.3011   -2.2354    2.7287 H         1 <0>         0.0773
@<TRIPOS>BOND
     1    1    2 1
     2    1   18 1
     3    1   19 1
     4    1   20 1
     5    2    3 1
     6    2   21 1
     7    2   22 1
     8    3    4 1
     9    3   23 1
    10    3   24 1
    11    4    9 1
    12    4    5 1
    13    4   17 1
    14    5    6 2
    15    5    7 1
    16    7    8 2
    17    8    9 1
    18    8   10 1
    19   10   11 1
    20   10   25 1
    21   11   16 1
    22   11   12 1
    23   11   26 1
    24   12   13 1
    25   12   27 1
    26   12   28 1
    27   13   14 1
    28   13   29 1
    29   13   30 1
    30   14   15 1
    31   14   31 1
    32   14   32 1
    33   15   16 1
    34   15   33 1
    35   15   34 1
    36   16   35 1
    37   16   36 1
    38   17   37 1
    39   17   38 1
    40   17   39 1
@<TRIPOS>MOLECULE
CHEMBL511828
   60    63     0     0     0
SMALL
USER_CHARGES

@<TRIPOS>ATOM
      1 C1          5.7607    3.3984    5.0469 C.3       1 <0>        -0.1506
      2 C2          5.7003    2.4585    6.2527 C.3       1 <0>         0.1434
      3 C3          4.7515    1.3251    5.9591 C.ar      1 <0>        -0.1062
      4 C4          3.6799    1.5269    5.1074 C.ar      1 <0>        -0.1030
      5 C5          2.8077    0.4936    4.8344 C.ar      1 <0>        -0.0577
      6 C6          3.0081   -0.7577    5.4195 C.ar      1 <0>        -0.1325
      7 C7          4.0911   -0.9546    6.2777 C.ar      1 <0>        -0.1541
      8 C8          4.9591    0.0856    6.5379 C.ar      1 <0>        -0.1141
      9 C9          2.0770   -1.8695    5.1318 C.2       1 <0>         0.5829
     10 O1          0.9102   -1.6363    4.8835 O.2       1 <0>        -0.4935
     11 N1          2.5220   -3.1417    5.1449 N.am      1 <0>        -0.6165
     12 C10         3.3979   -3.6002    6.2260 C.3       1 <0>         0.1535
     13 C11         3.0533   -2.8503    7.5144 C.3       1 <0>        -0.2036
     14 C12         3.9682   -3.3292    8.6434 C.3       1 <0>        -0.1079
     15 C13         5.4263   -3.0562    8.2689 C.3       1 <0>        -0.0660
     16 C14         5.7709   -3.8061    6.9805 C.3       1 <0>        -0.1116
     17 C15         4.8561   -3.3272    5.8515 C.3       1 <0>        -0.1899
     18 C16         6.3273   -3.5279    9.3809 C.ar      1 <0>        -0.0457
     19 C17         6.3242   -4.8610    9.7512 C.ar      1 <0>        -0.1149
     20 C18         7.1465   -5.2996   10.7683 C.ar      1 <0>        -0.0663
     21 C19         7.9835   -4.3948   11.4242 C.ar      1 <0>        -0.0307
     22 C20         7.9819   -3.0509   11.0451 C.ar      1 <0>        -0.0658
     23 C21         7.1581   -2.6269   10.0231 C.ar      1 <0>        -0.1167
     24 C22         8.8394   -4.8429   12.4813 C.1       1 <0>         0.2489
     25 N2          9.5183   -5.1984   13.3198 N.1       1 <0>        -0.4121
     26 C23         2.1297   -4.0659    4.0781 C.3       1 <0>         0.0833
     27 C24         1.4713   -3.4688    2.8328 C.3       1 <0>        -0.1873
     28 C25         0.6330   -4.2675    3.8329 C.3       1 <0>        -0.1879
     29 C26         5.2077    3.2315    7.4777 C.3       1 <0>         0.4259
     30 F1          3.9318    3.7456    7.2228 F         1 <0>        -0.1729
     31 F2          5.1525    2.3721    8.5803 F         1 <0>        -0.1804
     32 F3          6.0885    4.2837    7.7503 F         1 <0>        -0.1712
     33 O2          7.0036    1.9334    6.5131 O.3       1 <0>        -0.5179
     34 H1          4.7665    3.7989    4.8483 H         1 <0>         0.0898
     35 H2          6.4469    4.2182    5.2593 H         1 <0>         0.0847
     36 H3          6.1115    2.8477    4.1742 H         1 <0>         0.0929
     37 H4          3.5258    2.4957    4.6556 H         1 <0>         0.1393
     38 H5          1.9714    0.6525    4.1698 H         1 <0>         0.1388
     39 H6          4.2517   -1.9204    6.7337 H         1 <0>         0.2244
     40 H7          5.8000   -0.0666    7.1983 H         1 <0>         0.1299
     41 H8          3.2564   -4.6700    6.3793 H         1 <0>         0.0983
     42 H9          3.1949   -1.7805    7.3611 H         1 <0>         0.1219
     43 H10         2.0146   -3.0448    7.7812 H         1 <0>         0.0802
     44 H11         3.7227   -2.7950    9.5613 H         1 <0>         0.0782
     45 H12         3.8266   -4.3990    8.7967 H         1 <0>         0.0755
     46 H13         5.5678   -1.9864    8.1155 H         1 <0>         0.0855
     47 H14         6.8096   -3.6116    6.7137 H         1 <0>         0.0770
     48 H15         5.6293   -4.8759    7.1338 H         1 <0>         0.0742
     49 H16         5.1016   -3.8614    4.9336 H         1 <0>         0.0789
     50 H17         4.9976   -2.2573    5.6981 H         1 <0>         0.1111
     51 H18         5.6763   -5.5598    9.2429 H         1 <0>         0.1340
     52 H19         7.1425   -6.3404   11.0568 H         1 <0>         0.1334
     53 H20         8.6268   -2.3458   11.5484 H         1 <0>         0.1339
     54 H21         7.1588   -1.5885    9.7262 H         1 <0>         0.1334
     55 H22         2.7831   -4.9271    3.9384 H         1 <0>         0.1329
     56 H23         1.3300   -2.3883    2.8073 H         1 <0>         0.0991
     57 H24         1.6915   -3.9371    1.8735 H         1 <0>         0.1024
     58 H25         0.3017   -5.2612    3.5316 H         1 <0>         0.0970
     59 H26        -0.0598   -3.7124    4.4654 H         1 <0>         0.1069
     60 H27         7.0404    1.3281    7.2662 H         1 <0>         0.3852
@<TRIPOS>BOND
     1    1    2 1
     2    1   34 1
     3    1   35 1
     4    1   36 1
     5    2    3 1
     6    2   29 1
     7    2   33 1
     8    3    8 ar
     9    3    4 ar
    10    4    5 ar
    11    4   37 1
    12    5    6 ar
    13    5   38 1
    14    6    7 ar
    15    6    9 1
    16    7    8 ar
    17    7   39 1
    18    8   40 1
    19    9   10 2
    20    9   11 am
    21   11   12 1
    22   11   26 1
    23   12   17 1
    24   12   13 1
    25   12   41 1
    26   13   14 1
    27   13   42 1
    28   13   43 1
    29   14   15 1
    30   14   44 1
    31   14   45 1
    32   15   16 1
    33   15   18 1
    34   15   46 1
    35   16   17 1
    36   16   47 1
    37   16   48 1
    38   17   49 1
    39   17   50 1
    40   18   23 ar
    41   18   19 ar
    42   19   20 ar
    43   19   51 1
    44   20   21 ar
    45   20   52 1
    46   21   22 ar
    47   21   24 1
    48   22   23 ar
    49   22   53 1
    50   23   54 1
    51   24   25 3
    52   26   28 1
    53   26   27 1
    54   26   55 1
    55   27   28 1
    56   27   56 1
    57   27   57 1
    58   28   58 1
    59   28   59 1
    60   29   30 1
    61   29   31 1
    62   29   32 1
    63   33   60 1
@<TRIPOS>MOLECULE
CHEMBL494639
   47    51     0     0     0
SMALL
USER_CHARGES

@<TRIPOS>ATOM
      1 C1          0.5319    1.6254    0.3340 C.3       1 <0>         0.0600
      2 N1          0.3851    0.1781    0.1607 N.pl3     1 <0>        -0.4650
      3 C2          0.2900   -0.5067   -1.0211 C.2       1 <0>         0.2097
      4 N2          0.1720   -1.7809   -0.7179 N.2       1 <0>        -0.2689
      5 N3          0.1879   -1.9259    0.5593 N.2       1 <0>        -0.2797
      6 C3          0.3213   -0.7638    1.1408 C.2       1 <0>         0.2061
      7 C4          0.3884   -0.5119    2.6251 C.3       1 <0>         0.0344
      8 C5         -0.1347   -1.6834    3.4729 C.3       1 <0>        -0.1061
      9 C6         -0.7840   -0.6300    4.3859 C.3       1 <0>        -0.1379
     10 C7         -0.7968    0.3055    3.1654 C.3       1 <0>        -0.1323
     11 C8          1.7317    0.0056    3.0706 C.ar      1 <0>        -0.0613
     12 C9          2.8487   -0.8039    2.9803 C.ar      1 <0>        -0.0883
     13 C10         4.0810   -0.3298    3.3889 C.ar      1 <0>        -0.1052
     14 C11         4.1966    0.9552    3.8882 C.ar      1 <0>        -0.0312
     15 C12         3.0784    1.7650    3.9784 C.ar      1 <0>        -0.1067
     16 C13         1.8476    1.2917    3.5643 C.ar      1 <0>        -0.1053
     17 Cl1         5.7440    1.5512    4.4021 Cl        1 <0>        -0.0648
     18 C14         0.3151    0.0754   -2.3794 C.ar      1 <0>         0.0050
     19 C15         0.1258    1.4482   -2.5545 C.ar      1 <0>        -0.1213
     20 C16         0.1487    1.9903   -3.8192 C.ar      1 <0>        -0.0650
     21 C17         0.3619    1.1676   -4.9280 C.ar      1 <0>        -0.0036
     22 C18         0.5517   -0.2054   -4.7528 C.ar      1 <0>        -0.0867
     23 C19         0.5339   -0.7464   -3.4875 C.ar      1 <0>        -0.0723
     24 C20         0.3860    1.7493   -6.2858 C.2       1 <0>         0.1455
     25 N4          0.2347    3.0115   -6.6635 N.2       1 <0>        -0.4956
     26 C21         0.2858    3.3547   -7.9286 C.2       1 <0>         0.0270
     27 C22         0.4975    2.4062   -8.8801 C.2       1 <0>        -0.1966
     28 S1          0.6349    0.9423   -7.8618 S.3       1 <0>         0.0196
     29 H1          1.5246    1.9320    0.0045 H         1 <0>         0.0898
     30 H2         -0.2232    2.1408   -0.2595 H         1 <0>         0.0970
     31 H3          0.4034    1.8802    1.3860 H         1 <0>         0.0970
     32 H4         -0.8555   -2.3127    2.9508 H         1 <0>         0.1000
     33 H5          0.6544   -2.2565    3.9599 H         1 <0>         0.0800
     34 H6         -1.7790   -0.9075    4.7338 H         1 <0>         0.0790
     35 H7         -0.1330   -0.2888    5.1907 H         1 <0>         0.0871
     36 H8         -0.5423    1.3381    3.4041 H         1 <0>         0.0807
     37 H9         -1.6987    0.2200    2.5592 H         1 <0>         0.0906
     38 H10         2.7582   -1.8072    2.5908 H         1 <0>         0.1345
     39 H11         4.9535   -0.9625    3.3186 H         1 <0>         0.1368
     40 H12         3.1680    2.7681    4.3684 H         1 <0>         0.1372
     41 H13         0.9755    1.9253    3.6301 H         1 <0>         0.1372
     42 H14        -0.0390    2.0842   -1.6973 H         1 <0>         0.1391
     43 H15         0.0016    3.0516   -3.9546 H         1 <0>         0.1434
     44 H16         0.7161   -0.8416   -5.6099 H         1 <0>         0.1366
     45 H17         0.6851   -1.8071   -3.3516 H         1 <0>         0.1469
     46 H18         0.1596    4.3885   -8.2142 H         1 <0>         0.1715
     47 H19         0.5675    2.5091   -9.9529 H         1 <0>         0.2018
@<TRIPOS>BOND
     1    1    2 1
     2    1   29 1
     3    1   30 1
     4    1   31 1
     5    2    6 1
     6    2    3 1
     7    3    4 2
     8    3   18 1
     9    4    5 1
    10    5    6 2
    11    6    7 1
    12    7   10 1
    13    7    8 1
    14    7   11 1
    15    8    9 1
    16    8   32 1
    17    8   33 1
    18    9   10 1
    19    9   34 1
    20    9   35 1
    21   10   36 1
    22   10   37 1
    23   11   16 ar
    24   11   12 ar
    25   12   13 ar
    26   12   38 1
    27   13   14 ar
    28   13   39 1
    29   14   15 ar
    30   14   17 1
    31   15   16 ar
    32   15   40 1
    33   16   41 1
    34   18   23 ar
    35   18   19 ar
    36   19   20 ar
    37   19   42 1
    38   20   21 ar
    39   20   43 1
    40   21   22 ar
    41   21   24 1
    42   22   23 ar
    43   22   44 1
    44   23   45 1
    45   24   28 1
    46   24   25 2
    47   25   26 1
    48   26   27 2
    49   26   46 1
    50   27   28 1
    51   27   47 1
@<TRIPOS>MOLECULE
CHEMBL560316
   61    64     0     0     0
SMALL
USER_CHARGES

@<TRIPOS>ATOM
      1 C1         -0.7080    1.2228    0.5514 C.3       1 <0>        -0.2033
      2 C2         -0.2832   -0.2298    0.3271 C.3       1 <0>         0.1421
      3 H1         -1.1037   -0.8962    0.5931 H         1 <0>         0.0872
      4 C3          0.0899   -0.4354   -1.1463 C.3       1 <0>         0.1348
      5 N1          0.7368   -1.7474   -1.2883 N.pl3     1 <0>        -0.6788
      6 C4          1.9118   -2.0511   -0.4596 C.3       1 <0>         0.1227
      7 C5          1.5388   -1.8456    1.0138 C.3       1 <0>         0.1012
      8 N2          0.8894   -0.5348    1.1590 N.pl3     1 <0>        -0.9874
      9 S1          1.4719    0.5803    2.2358 S.o2      1 <0>         2.6944
     10 O1          0.3441    1.2732    2.7529 O.2       1 <0>        -0.9548
     11 O2          2.3938   -0.1055    3.0718 O.2       1 <0>        -0.9485
     12 C6          2.4061    1.7560    1.3141 C.ar      1 <0>        -0.7340
     13 C7          1.9530    3.0572    1.1954 C.ar      1 <0>         0.0380
     14 C8          2.6825    3.9812    0.4738 C.ar      1 <0>        -0.2152
     15 C9          3.8737    3.6032   -0.1334 C.ar      1 <0>         0.2848
     16 C10         4.3271    2.2962   -0.0125 C.ar      1 <0>        -0.2100
     17 C11         3.5946    1.3769    0.7152 C.ar      1 <0>         0.1080
     18 Cl1         4.1632   -0.2557    0.8728 Cl        1 <0>        -0.0408
     19 N3          4.6134    4.5357   -0.8642 N.pl3     1 <0>        -0.6157
     20 C12         5.8028    4.1208   -1.6204 C.3       1 <0>         0.1160
     21 C13         5.6524    4.5883   -3.0715 C.3       1 <0>        -0.1307
     22 C14         5.3881    6.0956   -3.0928 C.3       1 <0>         0.1060
     23 C15         4.0842    6.3971   -2.3506 C.3       1 <0>        -0.1707
     24 C16         4.2133    5.9491   -0.8963 C.3       1 <0>         0.1166
     25 O3          5.2793    6.5407   -4.4464 O.3       1 <0>        -0.5653
     26 C17         0.2433   -2.6895   -2.1960 C.ar      1 <0>         0.2154
     27 C18        -0.7826   -3.5469   -1.8197 C.ar      1 <0>        -0.0970
     28 C19        -1.2688   -4.4764   -2.7179 C.ar      1 <0>        -0.1126
     29 C20        -0.7341   -4.5540   -3.9931 C.ar      1 <0>         0.0967
     30 C21         0.2885   -3.7005   -4.3703 C.ar      1 <0>        -0.1032
     31 C22         0.7743   -2.7656   -3.4767 C.ar      1 <0>        -0.1674
     32 C23         1.8832   -1.8326   -3.8900 C.3       1 <0>         0.5174
     33 F1          2.1732   -2.0242   -5.2451 F         1 <0>        -0.1791
     34 F2          1.4808   -0.5089   -3.6819 F         1 <0>        -0.1702
     35 F3          3.0250   -2.0983   -3.1266 F         1 <0>        -0.1721
     36 F4         -1.2109   -5.4644   -4.8701 F         1 <0>        -0.1299
     37 H2          0.1664    1.8707    0.4902 H         1 <0>         0.0595
     38 H3         -1.4291    1.5126   -0.2130 H         1 <0>         0.0804
     39 H4         -1.1641    1.3199    1.5366 H         1 <0>         0.1105
     40 H5         -0.8106   -0.4032   -1.7596 H         1 <0>         0.0834
     41 H6          0.7787    0.3482   -1.4620 H         1 <0>         0.0648
     42 H7          2.2145   -3.0860   -0.6193 H         1 <0>         0.0836
     43 H8          2.7303   -1.3826   -0.7264 H         1 <0>         0.0690
     44 H9          0.8500   -2.6291    1.3295 H         1 <0>         0.0791
     45 H10         2.4393   -1.8778    1.6271 H         1 <0>         0.1029
     46 H11         1.0271    3.3509    1.6675 H         1 <0>         0.1521
     47 H12         2.3274    4.9969    0.3813 H         1 <0>         0.1388
     48 H13         5.2524    1.9991   -0.4837 H         1 <0>         0.1421
     49 H14         6.6916    4.5737   -1.1809 H         1 <0>         0.0743
     50 H15         5.8923    3.0348   -1.5938 H         1 <0>         0.0935
     51 H16         6.5689    4.3718   -3.6203 H         1 <0>         0.0863
     52 H17         4.8169    4.0658   -3.5372 H         1 <0>         0.0765
     53 H18         6.2124    6.6157   -2.6049 H         1 <0>         0.0579
     54 H19         3.8845    7.4681   -2.3863 H         1 <0>         0.0814
     55 H20         3.2634    5.8576   -2.8232 H         1 <0>         0.0778
     56 H21         3.2544    6.0690   -0.3920 H         1 <0>         0.0924
     57 H22         4.9696    6.5543   -0.3964 H         1 <0>         0.0729
     58 H23         5.1114    7.4887   -4.5364 H         1 <0>         0.3808
     59 H24        -1.1996   -3.4870   -0.8252 H         1 <0>         0.1468
     60 H25        -2.0662   -5.1435   -2.4256 H         1 <0>         0.1473
     61 H26         0.7040   -3.7628   -5.3652 H         1 <0>         0.1511
@<TRIPOS>BOND
     1    1    2 1
     2    1   37 1
     3    1   38 1
     4    1   39 1
     5    2    3 1
     6    2    8 1
     7    2    4 1
     8    4    5 1
     9    4   40 1
    10    4   41 1
    11    5    6 1
    12    5   26 1
    13    6    7 1
    14    6   42 1
    15    6   43 1
    16    7    8 1
    17    7   44 1
    18    7   45 1
    19    8    9 1
    20    9   10 2
    21    9   11 2
    22    9   12 1
    23   12   17 ar
    24   12   13 ar
    25   13   14 ar
    26   13   46 1
    27   14   15 ar
    28   14   47 1
    29   15   16 ar
    30   15   19 1
    31   16   17 ar
    32   16   48 1
    33   17   18 1
    34   19   24 1
    35   19   20 1
    36   20   21 1
    37   20   49 1
    38   20   50 1
    39   21   22 1
    40   21   51 1
    41   21   52 1
    42   22   23 1
    43   22   25 1
    44   22   53 1
    45   23   24 1
    46   23   54 1
    47   23   55 1
    48   24   56 1
    49   24   57 1
    50   25   58 1
    51   26   31 ar
    52   26   27 ar
    53   27   28 ar
    54   27   59 1
    55   28   29 ar
    56   28   60 1
    57   29   30 ar
    58   29   36 1
    59   30   31 ar
    60   30   61 1
    61   31   32 1
    62   32   33 1
    63   32   34 1
    64   32   35 1
@<TRIPOS>MOLECULE
CHEMBL499953
   42    43     0     0     0
SMALL
USER_CHARGES

@<TRIPOS>ATOM
      1 C1         -0.0187    1.5258    0.0104 C.3       1 <0>        -0.1476
      2 C2          0.0021   -0.0041    0.0020 C.3       1 <0>        -0.1363
      3 C3          0.7421   -0.5109    1.2415 C.3       1 <0>        -0.0853
      4 C4          0.7628   -2.0407    1.2331 C.3       1 <0>        -0.0981
      5 C5          1.1383   -2.5855   -0.1405 C.2       1 <0>         0.5486
      6 O1          2.2096   -2.3789   -0.6763 O.2       1 <0>        -0.4601
      7 N1          0.1836   -3.2996   -0.6808 N.2       1 <0>        -0.6902
      8 C6         -0.9836   -3.5315   -0.1091 C.2       1 <0>         0.4818
      9 S1         -0.9345   -2.7372    1.3740 S.3       1 <0>        -0.1009
     10 N2         -2.0167   -4.2635   -0.6162 N.pl3     1 <0>        -0.6126
     11 C7         -1.8916   -4.8925   -1.9334 C.3       1 <0>         0.0853
     12 C8         -3.0881   -4.7905   -2.8815 C.3       1 <0>        -0.1221
     13 C9         -2.7538   -6.1252   -2.2124 C.3       1 <0>        -0.1203
     14 C10        -2.1519   -7.2243   -3.0902 C.3       1 <0>        -0.1158
     15 C11        -3.6807   -6.6067   -1.0944 C.3       1 <0>        -0.1176
     16 C12        -4.3237   -4.0395   -2.3814 C.3       1 <0>        -0.1169
     17 C13        -2.7949   -4.6570   -4.3772 C.3       1 <0>        -0.1153
     18 C14         1.6846   -2.5888    2.3244 C.3       1 <0>        -0.1198
     19 H1          1.0039    1.9031    0.0027 H         1 <0>         0.0572
     20 H2         -0.5459    1.8868   -0.8726 H         1 <0>         0.0569
     21 H3         -0.5289    1.8773    0.9072 H         1 <0>         0.0568
     22 H4         -1.0205   -0.3814    0.0098 H         1 <0>         0.0662
     23 H5          0.5123   -0.3556   -0.8948 H         1 <0>         0.0644
     24 H6          1.7647   -0.1336    1.2338 H         1 <0>         0.0938
     25 H7          0.2319   -0.1594    2.1383 H         1 <0>         0.0837
     26 H8         -2.8343   -4.3677   -0.1047 H         1 <0>         0.4238
     27 H9         -0.8954   -4.8647   -2.3749 H         1 <0>         0.1494
     28 H10        -1.9665   -8.1118   -2.4852 H         1 <0>         0.0640
     29 H11        -2.8476   -7.4703   -3.8925 H         1 <0>         0.0672
     30 H12        -1.2128   -6.8738   -3.5185 H         1 <0>         0.0626
     31 H13        -3.6877   -5.8740   -0.2874 H         1 <0>         0.0484
     32 H14        -4.6910   -6.7257   -1.4860 H         1 <0>         0.0696
     33 H15        -3.3237   -7.5635   -0.7133 H         1 <0>         0.0690
     34 H16        -4.4384   -3.1131   -2.9443 H         1 <0>         0.0669
     35 H17        -5.2080   -4.6613   -2.5209 H         1 <0>         0.0674
     36 H18        -4.2050   -3.8089   -1.3226 H         1 <0>         0.0501
     37 H19        -1.7301   -4.8087   -4.5537 H         1 <0>         0.0623
     38 H20        -3.3647   -5.4059   -4.9273 H         1 <0>         0.0662
     39 H21        -3.0812   -3.6614   -4.7161 H         1 <0>         0.0634
     40 H22         1.3334   -2.2516    3.2997 H         1 <0>         0.0777
     41 H23         1.6777   -3.6783    2.2925 H         1 <0>         0.0684
     42 H24         2.6993   -2.2268    2.1585 H         1 <0>         0.0877
@<TRIPOS>BOND
     1    1    2 1
     2    1   19 1
     3    1   20 1
     4    1   21 1
     5    2    3 1
     6    2   22 1
     7    2   23 1
     8    3    4 1
     9    3   24 1
    10    3   25 1
    11    4    9 1
    12    4    5 1
    13    4   18 1
    14    5    6 2
    15    5    7 1
    16    7    8 2
    17    8    9 1
    18    8   10 1
    19   10   11 1
    20   10   26 1
    21   11   13 1
    22   11   12 1
    23   11   27 1
    24   12   13 1
    25   12   16 1
    26   12   17 1
    27   13   14 1
    28   13   15 1
    29   14   28 1
    30   14   29 1
    31   14   30 1
    32   15   31 1
    33   15   32 1
    34   15   33 1
    35   16   34 1
    36   16   35 1
    37   16   36 1
    38   17   37 1
    39   17   38 1
    40   17   39 1
    41   18   40 1
    42   18   41 1
    43   18   42 1
@<TRIPOS>MOLECULE
CHEMBL499953__1
   42    43     0     0     0
SMALL
USER_CHARGES

@<TRIPOS>ATOM
      1 C1         -0.0187    1.5258    0.0104 C.3       1 <0>        -0.1476
      2 C2          0.0021   -0.0041    0.0020 C.3       1 <0>        -0.1364
      3 C3          0.7421   -0.5109    1.2415 C.3       1 <0>        -0.0853
      4 C4          0.7628   -2.0407    1.2331 C.3       1 <0>        -0.0980
      5 C5         -0.6072   -2.6148    0.8896 C.2       1 <0>         0.5486
      6 O1         -1.5991   -2.4423    1.5708 O.2       1 <0>        -0.4601
      7 N1         -0.6011   -3.3128   -0.2177 N.2       1 <0>        -0.6902
      8 C6          0.4689   -3.5071   -0.9663 C.2       1 <0>         0.4818
      9 S1          1.7235   -2.6926   -0.1946 S.3       1 <0>        -0.1010
     10 N2          0.5426   -4.2212   -2.1260 N.pl3     1 <0>        -0.6126
     11 C7         -0.6550   -4.8722   -2.6627 C.3       1 <0>         0.0854
     12 C8         -0.5063   -6.3009   -3.1896 C.3       1 <0>        -0.1224
     13 C9         -0.6985   -5.1407   -4.1683 C.3       1 <0>        -0.1201
     14 C10        -2.0542   -5.0238   -4.8679 C.3       1 <0>        -0.1158
     15 C11         0.5121   -4.7087   -4.9982 C.3       1 <0>        -0.1175
     16 C12         0.8817   -6.9403   -3.1157 C.3       1 <0>        -0.1169
     17 C13        -1.6845   -7.2554   -2.9854 C.3       1 <0>        -0.1153
     18 C14         1.2863   -2.5955    2.5595 C.3       1 <0>        -0.1197
     19 H1          1.0039    1.9031    0.0027 H         1 <0>         0.0568
     20 H2         -0.5459    1.8868   -0.8726 H         1 <0>         0.0570
     21 H3         -0.5289    1.8773    0.9072 H         1 <0>         0.0572
     22 H4         -1.0205   -0.3814    0.0098 H         1 <0>         0.0644
     23 H5          0.5123   -0.3556   -0.8948 H         1 <0>         0.0662
     24 H6          1.7647   -0.1336    1.2338 H         1 <0>         0.0838
     25 H7          0.2319   -0.1594    2.1383 H         1 <0>         0.0938
     26 H8          1.3880   -4.2979   -2.5954 H         1 <0>         0.4239
     27 H9         -1.5921   -4.6119   -2.1706 H         1 <0>         0.1494
     28 H10        -2.0475   -4.1585   -5.5307 H         1 <0>         0.0639
     29 H11        -2.2416   -5.9260   -5.4501 H         1 <0>         0.0672
     30 H12        -2.8391   -4.9035   -4.1213 H         1 <0>         0.0626
     31 H13         1.3153   -4.3934   -4.3323 H         1 <0>         0.0484
     32 H14         0.8527   -5.5461   -5.6072 H         1 <0>         0.0696
     33 H15         0.2307   -3.8788   -5.6464 H         1 <0>         0.0690
     34 H16         0.8715   -7.7473   -2.3831 H         1 <0>         0.0670
     35 H17         1.1499   -7.3406   -4.0934 H         1 <0>         0.0674
     36 H18         1.6127   -6.1885   -2.8180 H         1 <0>         0.0501
     37 H19        -2.5418   -6.6986   -2.6070 H         1 <0>         0.0623
     38 H20        -1.9444   -7.7205   -3.9363 H         1 <0>         0.0662
     39 H21        -1.4068   -8.0270   -2.2674 H         1 <0>         0.0635
     40 H22         0.6419   -2.2614    3.3726 H         1 <0>         0.0876
     41 H23         1.2889   -3.6848    2.5220 H         1 <0>         0.0684
     42 H24         2.3011   -2.2354    2.7287 H         1 <0>         0.0777
@<TRIPOS>BOND
     1    1    2 1
     2    1   19 1
     3    1   20 1
     4    1   21 1
     5    2    3 1
     6    2   22 1
     7    2   23 1
     8    3    4 1
     9    3   24 1
    10    3   25 1
    11    4    9 1
    12    4    5 1
    13    4   18 1
    14    5    6 2
    15    5    7 1
    16    7    8 2
    17    8    9 1
    18    8   10 1
    19   10   11 1
    20   10   26 1
    21   11   13 1
    22   11   12 1
    23   11   27 1
    24   12   13 1
    25   12   16 1
    26   12   17 1
    27   13   14 1
    28   13   15 1
    29   14   28 1
    30   14   29 1
    31   14   30 1
    32   15   31 1
    33   15   32 1
    34   15   33 1
    35   16   34 1
    36   16   35 1
    37   16   36 1
    38   17   37 1
    39   17   38 1
    40   17   39 1
    41   18   40 1
    42   18   41 1
    43   18   42 1
@<TRIPOS>MOLECULE
CHEMBL473350
   59    61     0     0     0
SMALL
USER_CHARGES

@<TRIPOS>ATOM
      1 C1         -0.4392    1.4380    0.2866 C.3       1 <0>        -0.1876
      2 C2         -0.2028   -0.0679    0.1553 C.3       1 <0>         0.1590
      3 H1         -1.1327   -0.6027    0.3486 H         1 <0>         0.0856
      4 C3          0.2918   -0.3899   -1.2589 C.3       1 <0>         0.0448
      5 N1          0.6636   -1.8092   -1.3328 N.3       1 <0>        -0.5285
      6 C4          1.7816   -2.1148   -0.4302 C.3       1 <0>         0.0410
      7 C5          1.3480   -1.8635    1.0179 C.3       1 <0>         0.1224
      8 N2          0.8217   -0.4932    1.1210 N.pl3     1 <0>        -0.9956
      9 S1          1.3720    0.5442    2.2886 S.o2      1 <0>         2.6881
     10 O1          2.5889   -0.0031    2.7774 O.2       1 <0>        -0.9589
     11 O2          1.2911    1.8526    1.7402 O.2       1 <0>        -0.9513
     12 C6          0.2218    0.4851    3.6221 C.ar      1 <0>        -0.6809
     13 C7         -0.8563    1.3500    3.6439 C.ar      1 <0>        -0.0227
     14 C8         -1.7587    1.3036    4.6900 C.ar      1 <0>        -0.1360
     15 C9         -1.5832    0.3920    5.7143 C.ar      1 <0>        -0.0118
     16 C10        -0.5056   -0.4736    5.6921 C.ar      1 <0>        -0.1415
     17 C11         0.3944   -0.4301    4.6437 C.ar      1 <0>        -0.0164
     18 C12        -2.5664    0.3421    6.8553 C.3       1 <0>        -0.0388
     19 C13        -3.9614    0.0247    6.3130 C.3       1 <0>        -0.1399
     20 C14        -2.1443   -0.7457    7.8450 C.3       1 <0>        -0.1480
     21 C15        -2.5916    1.6966    7.5663 C.3       1 <0>        -0.1411
     22 C16         0.9797   -2.1994   -2.7133 C.3       1 <0>         0.1200
     23 C17        -0.2435   -1.9658   -3.6021 C.3       1 <0>        -0.1434
     24 C18         1.3556   -3.6583   -2.7494 C.ar      1 <0>        -0.0375
     25 C19         0.6676   -4.5876   -1.9843 C.ar      1 <0>        -0.1480
     26 C20         1.0407   -5.9170   -2.0431 C.ar      1 <0>         0.0948
     27 N3          2.0378   -6.3043   -2.8144 N.ar      1 <0>        -0.4859
     28 C21         2.7142   -5.4484   -3.5553 C.ar      1 <0>         0.0994
     29 C22         2.3941   -4.1040   -3.5527 C.ar      1 <0>        -0.1702
     30 H2          0.4567    1.9750   -0.0249 H         1 <0>         0.0962
     31 H3         -1.2769    1.7309   -0.3464 H         1 <0>         0.0731
     32 H4         -0.6660    1.6811    1.3247 H         1 <0>         0.0689
     33 H5         -0.5015   -0.1839   -1.9774 H         1 <0>         0.0954
     34 H6          1.1609    0.2262   -1.4893 H         1 <0>         0.0450
     35 H7          2.0687   -3.1598   -0.5477 H         1 <0>         0.0910
     36 H8          2.6299   -1.4747   -0.6722 H         1 <0>         0.0422
     37 H9          0.5690   -2.5736    1.2954 H         1 <0>         0.0792
     38 H10         2.2049   -1.9778    1.6818 H         1 <0>         0.1002
     39 H11        -0.9934    2.0622    2.8437 H         1 <0>         0.1426
     40 H12        -2.6006    1.9798    4.7074 H         1 <0>         0.1321
     41 H13        -0.3683   -1.1856    6.4925 H         1 <0>         0.1376
     42 H14         1.2343   -1.1088    4.6245 H         1 <0>         0.1381
     43 H15        -3.9434   -0.9403    5.8064 H         1 <0>         0.0582
     44 H16        -4.6725   -0.0114    7.1382 H         1 <0>         0.0638
     45 H17        -4.2621    0.7996    5.6079 H         1 <0>         0.0592
     46 H18        -1.1504   -0.5196    8.2314 H         1 <0>         0.0610
     47 H19        -2.8554   -0.7818    8.6703 H         1 <0>         0.0632
     48 H20        -2.1263   -1.7107    7.3384 H         1 <0>         0.0609
     49 H21        -2.8923    2.4715    6.8613 H         1 <0>         0.0594
     50 H22        -3.3027    1.6605    8.3916 H         1 <0>         0.0641
     51 H23        -1.5978    1.9227    7.9527 H         1 <0>         0.0585
     52 H24         1.8138   -1.6001   -3.0783 H         1 <0>         0.0555
     53 H25        -0.0090   -2.2553   -4.6264 H         1 <0>         0.0640
     54 H26        -1.0776   -2.5650   -3.2371 H         1 <0>         0.0690
     55 H27        -0.5154   -0.9106   -3.5760 H         1 <0>         0.0652
     56 H28        -0.1494   -4.2765   -1.3502 H         1 <0>         0.1426
     57 H29         0.5098   -6.6472   -1.4503 H         1 <0>         0.1551
     58 H30         3.5251   -5.8028   -4.1744 H         1 <0>         0.1552
     59 H31         2.9486   -3.4086   -4.1655 H         1 <0>         0.1323
@<TRIPOS>BOND
     1    1    2 1
     2    1   30 1
     3    1   31 1
     4    1   32 1
     5    2    3 1
     6    2    8 1
     7    2    4 1
     8    4    5 1
     9    4   33 1
    10    4   34 1
    11    5    6 1
    12    5   22 1
    13    6    7 1
    14    6   35 1
    15    6   36 1
    16    7    8 1
    17    7   37 1
    18    7   38 1
    19    8    9 1
    20    9   10 2
    21    9   11 2
    22    9   12 1
    23   12   17 ar
    24   12   13 ar
    25   13   14 ar
    26   13   39 1
    27   14   15 ar
    28   14   40 1
    29   15   16 ar
    30   15   18 1
    31   16   17 ar
    32   16   41 1
    33   17   42 1
    34   18   19 1
    35   18   20 1
    36   18   21 1
    37   19   43 1
    38   19   44 1
    39   19   45 1
    40   20   46 1
    41   20   47 1
    42   20   48 1
    43   21   49 1
    44   21   50 1
    45   21   51 1
    46   22   23 1
    47   22   24 1
    48   22   52 1
    49   23   53 1
    50   23   54 1
    51   23   55 1
    52   24   29 ar
    53   24   25 ar
    54   25   26 ar
    55   25   56 1
    56   26   27 ar
    57   26   57 1
    58   27   28 ar
    59   28   29 ar
    60   28   58 1
    61   29   59 1
@<TRIPOS>MOLECULE
CHEMBL473350__1
   59    61     0     0     0
SMALL
USER_CHARGES

@<TRIPOS>ATOM
      1 C1         -0.2791    1.5687    0.2043 C.3       1 <0>        -0.1854
      2 C2         -0.1122    0.0509    0.1073 C.3       1 <0>         0.1600
      3 H1         -1.0673   -0.4358    0.3047 H         1 <0>         0.0850
      4 C3          0.3767   -0.3246   -1.2956 C.3       1 <0>         0.0474
      5 N1          0.6825   -1.7608   -1.3359 N.3       1 <0>        -0.5282
      6 C4          1.7788   -2.0982   -0.4181 C.3       1 <0>         0.0397
      7 C5          1.3473   -1.7954    1.0208 C.3       1 <0>         0.1214
      8 N2          0.8847   -0.4003    1.0901 N.pl3     1 <0>        -0.9957
      9 S1          1.4745    0.6358    2.2395 S.o2      1 <0>         2.6883
     10 O1          2.6633    0.0453    2.7468 O.2       1 <0>        -0.9589
     11 O2          1.4549    1.9348    1.6637 O.2       1 <0>        -0.9513
     12 C6          0.3159    0.6557    3.5668 C.ar      1 <0>        -0.6811
     13 C7         -0.7227    1.5680    3.5641 C.ar      1 <0>        -0.0226
     14 C8         -1.6316    1.5836    4.6054 C.ar      1 <0>        -0.1358
     15 C9         -1.5023    0.6866    5.6493 C.ar      1 <0>        -0.0117
     16 C10        -0.4642   -0.2262    5.6516 C.ar      1 <0>        -0.1416
     17 C11         0.4423   -0.2447    4.6081 C.ar      1 <0>        -0.0163
     18 C12        -2.4926    0.7043    6.7850 C.3       1 <0>        -0.0388
     19 C13        -3.8976    0.4379    6.2408 C.3       1 <0>        -0.1400
     20 C14        -2.1246   -0.3803    7.7995 C.3       1 <0>        -0.1478
     21 C15        -2.4612    2.0731    7.4678 C.3       1 <0>        -0.1411
     22 C16         0.9897   -2.1954   -2.7051 C.3       1 <0>         0.1198
     23 C17         1.2218   -3.7076   -2.7203 C.3       1 <0>        -0.1443
     24 C18        -0.1655   -1.8553   -3.6112 C.ar      1 <0>        -0.0369
     25 C19         0.0498   -1.2429   -4.8363 C.ar      1 <0>        -0.1702
     26 C20        -1.0342   -0.9460   -5.6406 C.ar      1 <0>         0.0991
     27 N3         -2.2608   -1.2381   -5.2543 N.ar      1 <0>        -0.4855
     28 C21        -2.5029   -1.8203   -4.0961 C.ar      1 <0>         0.0948
     29 C22        -1.4684   -2.1526   -3.2420 C.ar      1 <0>        -0.1460
     30 H2          0.6207    2.0578   -0.1687 H         1 <0>         0.0915
     31 H3         -1.1358    1.8790   -0.3940 H         1 <0>         0.0716
     32 H4         -0.4413    1.8507    1.2446 H         1 <0>         0.0719
     33 H5         -0.4011   -0.0977   -2.0247 H         1 <0>         0.0887
     34 H6          1.2751    0.2454   -1.5323 H         1 <0>         0.0437
     35 H7          2.0178   -3.1576   -0.5108 H         1 <0>         0.0970
     36 H8          2.6577   -1.5035   -0.6671 H         1 <0>         0.0434
     37 H9          0.5342   -2.4623    1.3073 H         1 <0>         0.0797
     38 H10         2.1934   -1.9348    1.6937 H         1 <0>         0.1011
     39 H11        -0.8237    2.2687    2.7485 H         1 <0>         0.1423
     40 H12        -2.4427    2.2968    4.6036 H         1 <0>         0.1322
     41 H13        -0.3630   -0.9268    6.4673 H         1 <0>         0.1376
     42 H14         1.2511   -0.9603    4.6080 H         1 <0>         0.1383
     43 H15        -3.9199   -0.5372    5.7544 H         1 <0>         0.0582
     44 H16        -4.6139    0.4507    7.0623 H         1 <0>         0.0638
     45 H17        -4.1597    1.2106    5.5181 H         1 <0>         0.0592
     46 H18        -1.1237   -0.1905    8.1872 H         1 <0>         0.0610
     47 H19        -2.8409   -0.3675    8.6210 H         1 <0>         0.0632
     48 H20        -2.1470   -1.3554    7.3131 H         1 <0>         0.0608
     49 H21        -2.7234    2.8458    6.7451 H         1 <0>         0.0595
     50 H22        -3.1776    2.0859    8.2893 H         1 <0>         0.0641
     51 H23        -1.4604    2.2629    7.8556 H         1 <0>         0.0585
     52 H24         1.8879   -1.6865   -3.0550 H         1 <0>         0.0549
     53 H25         2.0573   -3.9536   -2.0650 H         1 <0>         0.0655
     54 H26         0.3236   -4.2165   -2.3705 H         1 <0>         0.0693
     55 H27         1.4497   -4.0301   -3.7363 H         1 <0>         0.0639
     56 H28         1.0519   -1.0006   -5.1579 H         1 <0>         0.1320
     57 H29        -0.8750   -0.4690   -6.5963 H         1 <0>         0.1552
     58 H30        -3.5211   -2.0439   -3.8136 H         1 <0>         0.1549
     59 H31        -1.6727   -2.6339   -2.2969 H         1 <0>         0.1409
@<TRIPOS>BOND
     1    1    2 1
     2    1   30 1
     3    1   31 1
     4    1   32 1
     5    2    3 1
     6    2    8 1
     7    2    4 1
     8    4    5 1
     9    4   33 1
    10    4   34 1
    11    5    6 1
    12    5   22 1
    13    6    7 1
    14    6   35 1
    15    6   36 1
    16    7    8 1
    17    7   37 1
    18    7   38 1
    19    8    9 1
    20    9   10 2
    21    9   11 2
    22    9   12 1
    23   12   17 ar
    24   12   13 ar
    25   13   14 ar
    26   13   39 1
    27   14   15 ar
    28   14   40 1
    29   15   16 ar
    30   15   18 1
    31   16   17 ar
    32   16   41 1
    33   17   42 1
    34   18   19 1
    35   18   20 1
    36   18   21 1
    37   19   43 1
    38   19   44 1
    39   19   45 1
    40   20   46 1
    41   20   47 1
    42   20   48 1
    43   21   49 1
    44   21   50 1
    45   21   51 1
    46   22   23 1
    47   22   24 1
    48   22   52 1
    49   23   53 1
    50   23   54 1
    51   23   55 1
    52   24   29 ar
    53   24   25 ar
    54   25   26 ar
    55   25   56 1
    56   26   27 ar
    57   26   57 1
    58   27   28 ar
    59   28   29 ar
    60   28   58 1
    61   29   59 1
@<TRIPOS>MOLECULE
CHEMBL222365
   71    76     0     0     0
SMALL
USER_CHARGES

@<TRIPOS>ATOM
      1 C1          4.0438   -1.5368    2.4477 C.ar      1 <0>         0.0184
      2 C2          4.1237   -0.5299    1.5025 C.ar      1 <0>        -0.2433
      3 C3          4.5902    0.7230    1.8866 C.ar      1 <0>         0.4349
      4 N1          4.9535    0.9518    3.1393 N.ar      1 <0>        -0.5416
      5 C4          4.8879    0.0106    4.0616 C.ar      1 <0>         0.2114
      6 C5          4.4344   -1.2558    3.7500 C.ar      1 <0>        -0.3111
      7 C6          4.3638   -2.3219    4.8127 C.3       1 <0>         0.5217
      8 F1          5.5743   -3.0222    4.8519 F         1 <0>        -0.1792
      9 F2          4.1295   -1.7257    6.0565 F         1 <0>        -0.1789
     10 F3          3.3221   -3.2074    4.5164 F         1 <0>        -0.1793
     11 N2          4.6761    1.7438    0.9470 N.pl3     1 <0>        -0.5959
     12 C7          5.0566    3.1073    1.3464 C.3       1 <0>         0.1257
     13 C8          6.1968    3.5802    0.4384 C.3       1 <0>         0.0352
     14 N3          5.7925    3.4344   -0.9663 N.3       1 <0>        -0.5229
     15 C9          5.5556    2.0258   -1.3092 C.3       1 <0>         0.0309
     16 C10         4.3950    1.4878   -0.4737 C.3       1 <0>         0.1245
     17 C11         6.7869    4.0350   -1.8654 C.3       1 <0>         0.0939
     18 C12         8.1481    3.3294   -1.6947 C.3       1 <0>        -0.1384
     19 C13         9.1871    4.4695   -1.8348 C.3       1 <0>        -0.1189
     20 C14         8.4958    5.6526   -1.1126 C.3       1 <0>        -0.1241
     21 C15         7.0080    5.5121   -1.4953 C.3       1 <0>        -0.1097
     22 C16         6.3229    3.9248   -3.2950 C.2       1 <0>         0.5269
     23 O1          7.1288    3.7349   -4.1812 O.2       1 <0>        -0.5366
     24 N4          5.0123    4.0374   -3.5887 N.am      1 <0>        -0.7085
     25 C17         4.5700    4.0141   -4.9851 C.3       1 <0>         0.1571
     26 C18         4.6731    5.4216   -5.5762 C.3       1 <0>        -0.0901
     27 C19         3.7856    6.3771   -4.7759 C.3       1 <0>        -0.0999
     28 C20         2.3332    5.9009   -4.8430 C.3       1 <0>        -0.0880
     29 C21         2.2301    4.4934   -4.2519 C.3       1 <0>        -0.1031
     30 C22         3.1175    3.5379   -5.0521 C.3       1 <0>        -0.0907
     31 C23         2.6556    3.5137   -6.5105 C.3       1 <0>        -0.0782
     32 C24         2.7586    4.9211   -7.1016 C.3       1 <0>        -0.1205
     33 C25         1.8712    5.8766   -6.3013 C.3       1 <0>        -0.0806
     34 C26         4.2111    5.3973   -7.0346 C.3       1 <0>        -0.0835
     35 C27         2.3036    4.8972   -8.5381 C.2       1 <0>         0.5017
     36 O2          1.7881    5.8862   -9.0308 O.co2     1 <0>        -0.6987
     37 O3          2.4510    3.8890   -9.2075 O.co2     1 <0>        -0.6986
     38 H1          3.6813   -2.5183    2.1796 H         1 <0>         0.1446
     39 H2          3.8284   -0.7141    0.4801 H         1 <0>         0.1447
     40 H3          5.1928    0.2335    5.0734 H         1 <0>         0.1656
     41 H4          4.2007    3.7733    1.2364 H         1 <0>         0.0751
     42 H5          5.3914    3.1050    2.3837 H         1 <0>         0.1023
     43 H6          6.4172    4.6271    0.6467 H         1 <0>         0.0957
     44 H7          7.0850    2.9768    0.6257 H         1 <0>         0.0465
     45 H8          5.3109    1.9454   -2.3683 H         1 <0>         0.0953
     46 H9          6.4527    1.4440   -1.0975 H         1 <0>         0.0457
     47 H10         4.2927    0.4153   -0.6393 H         1 <0>         0.0912
     48 H11         3.4743    1.9951   -0.7620 H         1 <0>         0.0838
     49 H12         8.2179    2.8685   -0.7094 H         1 <0>         0.0707
     50 H13         8.2920    2.5838   -2.4767 H         1 <0>         0.0776
     51 H14        10.1201    4.2051   -1.3370 H         1 <0>         0.0655
     52 H15         9.3616    4.7063   -2.8843 H         1 <0>         0.0767
     53 H16         8.6218    5.5669   -0.0333 H         1 <0>         0.0655
     54 H17         8.8936    6.6025   -1.4699 H         1 <0>         0.0700
     55 H18         6.7805    6.1492   -2.3500 H         1 <0>         0.0744
     56 H19         6.3774    5.7833   -0.6486 H         1 <0>         0.0847
     57 H20         4.3620    4.1337   -2.8755 H         1 <0>         0.4046
     58 H21         5.2022    3.3334   -5.5552 H         1 <0>         0.0854
     59 H22         5.7078    5.7608   -5.5284 H         1 <0>         0.0640
     60 H23         4.1147    6.3943   -3.7369 H         1 <0>         0.0525
     61 H24         3.8590    7.3798   -5.1970 H         1 <0>         0.0587
     62 H25         1.7009    6.5816   -4.2728 H         1 <0>         0.0614
     63 H26         2.5592    4.5107   -3.2129 H         1 <0>         0.0510
     64 H27         1.1954    4.1541   -4.2996 H         1 <0>         0.0623
     65 H28         3.0441    2.5352   -4.6310 H         1 <0>         0.0658
     66 H29         3.2878    2.8330   -7.0806 H         1 <0>         0.0666
     67 H30         1.6208    3.1744   -6.5583 H         1 <0>         0.0572
     68 H31         0.8364    5.5373   -6.3491 H         1 <0>         0.0510
     69 H32         1.9446    6.8793   -6.7224 H         1 <0>         0.0642
     70 H33         4.2845    6.4000   -7.4557 H         1 <0>         0.0598
     71 H34         4.8433    4.7166   -7.6047 H         1 <0>         0.0578
@<TRIPOS>BOND
     1    1    6 ar
     2    1    2 ar
     3    1   38 1
     4    2    3 ar
     5    2   39 1
     6    3    4 ar
     7    3   11 1
     8    4    5 ar
     9    5    6 ar
    10    5   40 1
    11    6    7 1
    12    7    8 1
    13    7    9 1
    14    7   10 1
    15   11   16 1
    16   11   12 1
    17   12   13 1
    18   12   41 1
    19   12   42 1
    20   13   14 1
    21   13   43 1
    22   13   44 1
    23   14   15 1
    24   14   17 1
    25   15   16 1
    26   15   45 1
    27   15   46 1
    28   16   47 1
    29   16   48 1
    30   17   21 1
    31   17   18 1
    32   17   22 1
    33   18   19 1
    34   18   49 1
    35   18   50 1
    36   19   20 1
    37   19   51 1
    38   19   52 1
    39   20   21 1
    40   20   53 1
    41   20   54 1
    42   21   55 1
    43   21   56 1
    44   22   23 2
    45   22   24 am
    46   24   25 1
    47   24   57 1
    48   25   30 1
    49   25   26 1
    50   25   58 1
    51   26   34 1
    52   26   27 1
    53   26   59 1
    54   27   28 1
    55   27   60 1
    56   27   61 1
    57   28   33 1
    58   28   29 1
    59   28   62 1
    60   29   30 1
    61   29   63 1
    62   29   64 1
    63   30   31 1
    64   30   65 1
    65   31   32 1
    66   31   66 1
    67   31   67 1
    68   32   33 1
    69   32   34 1
    70   32   35 1
    71   33   68 1
    72   33   69 1
    73   34   70 1
    74   34   71 1
    75   35   36 2
    76   35   37 1
@<TRIPOS>MOLECULE
CHEMBL1081251
   45    47     0     0     0
SMALL
USER_CHARGES

@<TRIPOS>ATOM
      1 C1         -0.0012    0.0672   -0.1608 C.3       1 <0>        -0.1396
      2 C2         -0.1310   -1.4164   -0.5117 C.3       1 <0>        -0.0388
      3 C3          0.5594   -2.2572    0.5642 C.3       1 <0>        -0.1411
      4 C4         -1.6114   -1.7959   -0.5835 C.3       1 <0>        -0.1477
      5 C5          0.5194   -1.6758   -1.8461 C.ar      1 <0>        -0.0106
      6 C6         -0.2295   -2.1772   -2.8942 C.ar      1 <0>        -0.1419
      7 C7          0.3671   -2.4151   -4.1183 C.ar      1 <0>        -0.0175
      8 C8          1.7126   -2.1512   -4.2944 C.ar      1 <0>        -0.6841
      9 C9          2.4613   -1.6489   -3.2465 C.ar      1 <0>        -0.0165
     10 C10         1.8637   -1.4070   -2.0237 C.ar      1 <0>        -0.1361
     11 S1          2.4733   -2.4555   -5.8543 S.o2      1 <0>         2.7064
     12 O1          3.8593   -2.6400   -5.6011 O.2       1 <0>        -0.9510
     13 O2          1.6809   -3.4375   -6.5078 O.2       1 <0>        -0.9524
     14 N1          2.3358   -1.0665   -6.7454 N.pl3     1 <0>        -1.0145
     15 C11         1.2251   -0.6970   -7.6488 C.3       1 <0>         0.0811
     16 C12         1.6366    0.6794   -8.2575 C.3       1 <0>         0.0533
     17 H1          1.1507    0.9577   -9.1927 H         1 <0>         0.1351
     18 C13         3.1950    0.4888   -8.3062 C.3       1 <0>        -0.1280
     19 C14         3.3050    0.0678   -6.7936 C.3       1 <0>         0.1197
     20 H2          4.3067   -0.1405   -6.4176 H         1 <0>         0.1370
     21 C15         2.5365    1.2537   -6.1325 C.3       1 <0>         0.0229
     22 N2          1.4811    1.6414   -7.1211 N.3       1 <0>        -0.5154
     23 C16         0.1343    1.5571   -6.5405 C.3       1 <0>         0.0100
     24 H3          1.0535    0.3375   -0.1096 H         1 <0>         0.0592
     25 H4         -0.4930    0.6661   -0.9272 H         1 <0>         0.0576
     26 H5         -0.4716    0.2547    0.8044 H         1 <0>         0.0642
     27 H6          0.0889   -2.0696    1.5294 H         1 <0>         0.0644
     28 H7          0.4669   -3.3141    0.3142 H         1 <0>         0.0586
     29 H8          1.6141   -1.9869    0.6154 H         1 <0>         0.0596
     30 H9         -2.1032   -1.1969   -1.3500 H         1 <0>         0.0604
     31 H10        -1.7039   -2.8528   -0.8335 H         1 <0>         0.0610
     32 H11        -2.0819   -1.6083    0.3816 H         1 <0>         0.0636
     33 H12        -1.2807   -2.3834   -2.7567 H         1 <0>         0.1374
     34 H13        -0.2179   -2.8075   -4.9370 H         1 <0>         0.1372
     35 H14         3.5126   -1.4430   -3.3839 H         1 <0>         0.1388
     36 H15         2.4479   -1.0111   -1.2061 H         1 <0>         0.1325
     37 H16         1.1148   -1.4416   -8.4371 H         1 <0>         0.0800
     38 H17         0.2964   -0.5996   -7.0866 H         1 <0>         0.0772
     39 H18         3.4940   -0.3102   -8.9847 H         1 <0>         0.0889
     40 H19         3.7204    1.4206   -8.5156 H         1 <0>         0.0975
     41 H20         2.0742    0.9320   -5.1993 H         1 <0>         0.0629
     42 H21         3.2126    2.0895   -5.9525 H         1 <0>         0.0925
     43 H22         0.0194    0.6029   -6.0264 H         1 <0>         0.0344
     44 H23        -0.0068    2.3718   -5.8302 H         1 <0>         0.0704
     45 H24        -0.6089    1.6342   -7.3340 H         1 <0>         0.0717
@<TRIPOS>BOND
     1    1    2 1
     2    1   24 1
     3    1   25 1
     4    1   26 1
     5    2    3 1
     6    2    4 1
     7    2    5 1
     8    3   27 1
     9    3   28 1
    10    3   29 1
    11    4   30 1
    12    4   31 1
    13    4   32 1
    14    5   10 ar
    15    5    6 ar
    16    6    7 ar
    17    6   33 1
    18    7    8 ar
    19    7   34 1
    20    8    9 ar
    21    8   11 1
    22    9   10 ar
    23    9   35 1
    24   10   36 1
    25   11   12 2
    26   11   13 2
    27   11   14 1
    28   14   19 1
    29   14   15 1
    30   15   16 1
    31   15   37 1
    32   15   38 1
    33   16   17 1
    34   16   22 1
    35   16   18 1
    36   18   19 1
    37   18   39 1
    38   18   40 1
    39   19   20 1
    40   19   21 1
    41   21   22 1
    42   21   41 1
    43   21   42 1
    44   22   23 1
    45   23   43 1
    46   23   44 1
    47   23   45 1
@<TRIPOS>MOLECULE
CHEMBL1081251__1
   46    48     0     0     0
SMALL
USER_CHARGES

@<TRIPOS>ATOM
      1 C1          0.0400   -0.0161   -0.1715 C.3       1 <0>        -0.1394
      2 C2         -0.1060   -1.4935   -0.5418 C.3       1 <0>        -0.0419
      3 C3          0.5853   -2.3552    0.5168 C.3       1 <0>        -0.1442
      4 C4         -1.5903   -1.8587   -0.6070 C.3       1 <0>        -0.1498
      5 C5          0.5315   -1.7400   -1.8849 C.ar      1 <0>         0.0002
      6 C6         -0.2302   -2.2201   -2.9338 C.ar      1 <0>        -0.1396
      7 C7          0.3545   -2.4463   -4.1658 C.ar      1 <0>        -0.0206
      8 C8          1.7008   -2.1920   -4.3490 C.ar      1 <0>        -0.6938
      9 C9          2.4623   -1.7110   -3.3004 C.ar      1 <0>        -0.0204
     10 C10         1.8767   -1.4808   -2.0695 C.ar      1 <0>        -0.1338
     11 S1          2.4463   -2.4814   -5.9190 S.o2      1 <0>         2.7020
     12 O1          3.8326   -2.6817   -5.6796 O.2       1 <0>        -0.9332
     13 O2          1.6400   -3.4471   -6.5797 O.2       1 <0>        -0.9339
     14 N1          2.3143   -1.0790   -6.7898 N.pl3     1 <0>        -1.0238
     15 C11         1.1998   -0.6870   -7.6790 C.3       1 <0>         0.0902
     16 C12         1.6189    0.6939   -8.2719 C.3       1 <0>         0.0201
     17 H1          1.1282    0.9895   -9.1992 H         1 <0>         0.1874
     18 C13         3.1751    0.4902   -8.3358 C.3       1 <0>        -0.1450
     19 C14         3.2933    0.0473   -6.8301 C.3       1 <0>         0.1356
     20 H2          4.2960   -0.1751   -6.4651 H         1 <0>         0.1748
     21 C15         2.5407    1.2306   -6.1465 C.3       1 <0>        -0.0230
     22 N2          1.4811    1.6414   -7.1211 N.4       1 <0>        -0.3987
     23 C16         0.1448    1.5201   -6.5231 C.3       1 <0>        -0.0506
     24 H3          1.0974    0.2441   -0.1250 H         1 <0>         0.0593
     25 H4         -0.4525    0.5978   -0.9256 H         1 <0>         0.0553
     26 H5         -0.4211    0.1622    0.8000 H         1 <0>         0.0684
     27 H6          0.1242   -2.1769    1.4882 H         1 <0>         0.0687
     28 H7          0.4813   -3.4077    0.2530 H         1 <0>         0.0606
     29 H8          1.6427   -2.0950    0.5632 H         1 <0>         0.0604
     30 H9         -2.0827   -1.2447   -1.3611 H         1 <0>         0.0595
     31 H10        -1.6943   -2.9111   -0.8707 H         1 <0>         0.0627
     32 H11        -2.0514   -1.6803    0.3645 H         1 <0>         0.0677
     33 H12        -1.2821   -2.4188   -2.7906 H         1 <0>         0.1418
     34 H13        -0.2405   -2.8221   -4.9850 H         1 <0>         0.1399
     35 H14         3.5143   -1.5126   -3.4434 H         1 <0>         0.1408
     36 H15         2.4708   -1.1015   -1.2513 H         1 <0>         0.1366
     37 H16         1.0766   -1.4196   -8.4766 H         1 <0>         0.1212
     38 H17         0.2765   -0.5892   -7.1080 H         1 <0>         0.0993
     39 H18         3.4615   -0.3020   -9.0276 H         1 <0>         0.1324
     40 H19         3.7071    1.4201   -8.5366 H         1 <0>         0.1177
     41 H20         2.0830    0.9001   -5.2142 H         1 <0>         0.1361
     42 H21         3.2258    2.0578   -5.9604 H         1 <0>         0.1467
     43 H22         0.0625    0.5627   -6.0086 H         1 <0>         0.1221
     44 H23        -0.0092    2.3301   -5.8102 H         1 <0>         0.1260
     45 H24        -0.6105    1.5774   -7.3069 H         1 <0>         0.1282
     46 H25         1.6401    2.5887   -7.4300 H         1 <0>         0.4302
@<TRIPOS>BOND
     1    1    2 1
     2    1   24 1
     3    1   25 1
     4    1   26 1
     5    2    3 1
     6    2    4 1
     7    2    5 1
     8    3   27 1
     9    3   28 1
    10    3   29 1
    11    4   30 1
    12    4   31 1
    13    4   32 1
    14    5   10 ar
    15    5    6 ar
    16    6    7 ar
    17    6   33 1
    18    7    8 ar
    19    7   34 1
    20    8    9 ar
    21    8   11 1
    22    9   10 ar
    23    9   35 1
    24   10   36 1
    25   11   12 2
    26   11   13 2
    27   11   14 1
    28   14   19 1
    29   14   15 1
    30   15   16 1
    31   15   37 1
    32   15   38 1
    33   16   17 1
    34   16   22 1
    35   16   18 1
    36   18   19 1
    37   18   39 1
    38   18   40 1
    39   19   20 1
    40   19   21 1
    41   21   22 1
    42   21   41 1
    43   21   42 1
    44   22   23 1
    45   22   46 1
    46   23   43 1
    47   23   44 1
    48   23   45 1
@<TRIPOS>MOLECULE
CHEMBL491326
   60    63     0     0     0
SMALL
USER_CHARGES

@<TRIPOS>ATOM
      1 C1          6.2243    3.1358    4.8482 C.3       1 <0>        -0.1488
      2 C2          5.9548    2.3313    6.1213 C.3       1 <0>         0.1403
      3 C3          4.9636    1.2360    5.8231 C.ar      1 <0>        -0.1069
      4 C4          4.0156    1.4163    4.8316 C.ar      1 <0>        -0.1015
      5 C5          3.1053    0.4177    4.5536 C.ar      1 <0>        -0.0612
      6 C6          3.1422   -0.7766    5.2750 C.ar      1 <0>        -0.1328
      7 C7          4.1012   -0.9521    6.2738 C.ar      1 <0>        -0.1536
      8 C8          5.0093    0.0523    6.5381 C.ar      1 <0>        -0.1089
      9 C9          2.1695   -1.8510    4.9827 C.2       1 <0>         0.5836
     10 O1          1.0518   -1.5702    4.5960 O.2       1 <0>        -0.4876
     11 N1          2.5220   -3.1417    5.1449 N.am      1 <0>        -0.6197
     12 C10         3.1941   -3.5684    6.3748 C.3       1 <0>         0.1575
     13 C11         2.7736   -2.6559    7.5287 C.3       1 <0>        -0.2094
     14 C12         3.4755   -3.1016    8.8131 C.3       1 <0>        -0.1086
     15 C13         4.9911   -3.0166    8.6219 C.3       1 <0>        -0.1053
     16 C14         5.4115   -3.9290    7.4679 C.3       1 <0>        -0.1132
     17 C15         4.7097   -3.4834    6.1836 C.3       1 <0>        -0.1821
     18 C16         5.6929   -3.4622    9.9063 C.3       1 <0>        -0.0704
     19 C17         7.2023   -3.2596    9.7593 C.3       1 <0>        -0.0534
     20 C18         8.0790   -4.5111    9.6821 C.3       1 <0>        -0.1460
     21 C19         8.0862   -3.6488   10.9459 C.3       1 <0>        -0.1470
     22 C20         7.6114   -2.0924    8.9611 C.1       1 <0>         0.2415
     23 N2          7.9271   -1.1916    8.3451 N.1       1 <0>        -0.4269
     24 C21         2.2331   -4.1179    4.0915 C.3       1 <0>         0.0889
     25 C22         1.2307   -3.7131    3.0088 C.3       1 <0>        -0.1929
     26 C23         2.7220   -3.7970    2.6776 C.3       1 <0>        -0.1985
     27 C24         5.3840    3.2564    7.1980 C.3       1 <0>         0.4252
     28 F1          4.1882    3.8212    6.7415 F         1 <0>        -0.1730
     29 F2          5.1376    2.5207    8.3622 F         1 <0>        -0.1811
     30 F3          6.3041    4.2731    7.4749 F         1 <0>        -0.1709
     31 O2          7.1762    1.7544    6.5877 O.3       1 <0>        -0.5157
     32 H1          5.2926    3.5759    4.4925 H         1 <0>         0.0895
     33 H2          6.9412    3.9280    5.0639 H         1 <0>         0.0848
     34 H3          6.6309    2.4768    4.0811 H         1 <0>         0.0924
     35 H4          3.9878    2.3411    4.2744 H         1 <0>         0.1399
     36 H5          2.3655    0.5598    3.7796 H         1 <0>         0.1390
     37 H6          4.1350   -1.8738    6.8357 H         1 <0>         0.2213
     38 H7          5.7546   -0.0839    7.3077 H         1 <0>         0.1267
     39 H8          2.9139   -4.5965    6.6039 H         1 <0>         0.0963
     40 H9          3.0538   -1.6278    7.2995 H         1 <0>         0.1236
     41 H10         1.6938   -2.7165    7.6649 H         1 <0>         0.0789
     42 H11         3.1759   -2.4515    9.6351 H         1 <0>         0.0755
     43 H12         3.1953   -4.1297    9.0422 H         1 <0>         0.0748
     44 H13         5.2713   -1.9884    8.3927 H         1 <0>         0.0714
     45 H14         6.4913   -3.8685    7.3317 H         1 <0>         0.0711
     46 H15         5.1314   -4.9572    7.6971 H         1 <0>         0.0740
     47 H16         5.0092   -4.1334    5.3615 H         1 <0>         0.0772
     48 H17         4.9899   -2.4552    5.9544 H         1 <0>         0.1002
     49 H18         5.3267   -2.8698   10.7447 H         1 <0>         0.0817
     50 H19         5.4839   -4.5165   10.0875 H         1 <0>         0.0890
     51 H20         7.5804   -5.4789    9.7360 H         1 <0>         0.1155
     52 H21         8.9588   -4.4705    9.0400 H         1 <0>         0.1029
     53 H22         8.9709   -3.0409   11.1353 H         1 <0>         0.1037
     54 H23         7.5924   -4.0493   11.8313 H         1 <0>         0.1156
     55 H24         2.2438   -5.1624    4.4028 H         1 <0>         0.1306
     56 H25         0.5815   -4.4914    2.6077 H         1 <0>         0.1003
     57 H26         0.7861   -2.7204    3.0804 H         1 <0>         0.1219
     58 H27         3.2586   -2.8596    2.5313 H         1 <0>         0.0910
     59 H28         3.0540   -4.6305    2.0586 H         1 <0>         0.1023
     60 H29         7.0804    1.2289    7.3938 H         1 <0>         0.3871
@<TRIPOS>BOND
     1    1    2 1
     2    1   32 1
     3    1   33 1
     4    1   34 1
     5    2    3 1
     6    2   27 1
     7    2   31 1
     8    3    8 ar
     9    3    4 ar
    10    4    5 ar
    11    4   35 1
    12    5    6 ar
    13    5   36 1
    14    6    7 ar
    15    6    9 1
    16    7    8 ar
    17    7   37 1
    18    8   38 1
    19    9   10 2
    20    9   11 am
    21   11   12 1
    22   11   24 1
    23   12   17 1
    24   12   13 1
    25   12   39 1
    26   13   14 1
    27   13   40 1
    28   13   41 1
    29   14   15 1
    30   14   42 1
    31   14   43 1
    32   15   16 1
    33   15   18 1
    34   15   44 1
    35   16   17 1
    36   16   45 1
    37   16   46 1
    38   17   47 1
    39   17   48 1
    40   18   19 1
    41   18   49 1
    42   18   50 1
    43   19   21 1
    44   19   20 1
    45   19   22 1
    46   20   21 1
    47   20   51 1
    48   20   52 1
    49   21   53 1
    50   21   54 1
    51   22   23 3
    52   24   26 1
    53   24   25 1
    54   24   55 1
    55   25   26 1
    56   25   56 1
    57   25   57 1
    58   26   58 1
    59   26   59 1
    60   27   28 1
    61   27   29 1
    62   27   30 1
    63   31   60 1
@<TRIPOS>MOLECULE
CHEMBL599588
   34    36     0     0     0
SMALL
USER_CHARGES

@<TRIPOS>ATOM
      1 C1          1.0331    1.0952   -0.4146 C.3       1 <0>         0.1053
      2 N1          0.3597   -0.1800   -0.1569 N.pl3     1 <0>        -0.8971
      3 C2         -0.2749   -0.8911   -1.1909 C.2       1 <0>        -0.2334
      4 C3         -0.3714   -2.2429   -1.1887 C.2       1 <0>         0.2589
      5 C4          0.1676   -3.1074   -0.1326 C.ar      1 <0>         0.0212
      6 C5          0.3265   -4.4800   -0.3550 C.ar      1 <0>        -0.0993
      7 C6          0.8351   -5.2824    0.6437 C.ar      1 <0>        -0.0829
      8 C7          1.1915   -4.7413    1.8670 C.ar      1 <0>        -0.1454
      9 C8          1.0377   -3.3835    2.0989 C.ar      1 <0>        -0.0304
     10 C9          0.5311   -2.5756    1.1110 C.ar      1 <0>        -0.6531
     11 S1          0.3237   -0.8445    1.3714 S.o2      1 <0>         2.6902
     12 O1         -0.9918   -0.6578    1.8754 O.2       1 <0>        -0.9596
     13 O2          1.4827   -0.3842    2.0526 O.2       1 <0>        -0.9736
     14 O3         -1.0066   -2.8340   -2.2281 O.3       1 <0>        -0.6621
     15 C10        -0.8325   -0.1691   -2.2729 C.2       1 <0>         0.4847
     16 O4         -1.5621    0.7830   -2.0585 O.2       1 <0>        -0.5031
     17 C11        -0.5297   -0.5704   -3.6639 C.ar      1 <0>        -0.1220
     18 C12         0.4021   -1.5790   -3.9155 C.ar      1 <0>        -0.0144
     19 C13         0.6799   -1.9484   -5.2153 C.ar      1 <0>        -0.1524
     20 C14         0.0373   -1.3216   -6.2683 C.ar      1 <0>        -0.1077
     21 C15        -0.8873   -0.3210   -6.0258 C.ar      1 <0>        -0.1514
     22 C16        -1.1786    0.0539   -4.7307 C.ar      1 <0>        -0.0790
     23 H1          2.0483    0.9060   -0.7633 H         1 <0>         0.0521
     24 H2          0.4843    1.6484   -1.1768 H         1 <0>         0.0734
     25 H3          1.0678    1.6801    0.5045 H         1 <0>         0.0634
     26 H4          0.0510   -4.9096   -1.3069 H         1 <0>         0.1403
     27 H5          0.9569   -6.3414    0.4704 H         1 <0>         0.1255
     28 H6          1.5899   -5.3787    2.6425 H         1 <0>         0.1269
     29 H7          1.3159   -2.9622    3.0536 H         1 <0>         0.1301
     30 H8          0.9045   -2.0688   -3.0945 H         1 <0>         0.1303
     31 H9          1.4008   -2.7283   -5.4114 H         1 <0>         0.1148
     32 H10         0.2588   -1.6143   -7.2840 H         1 <0>         0.1125
     33 H11        -1.3853    0.1642   -6.8522 H         1 <0>         0.1149
     34 H12        -1.9040    0.8316   -4.5425 H         1 <0>         0.1223
@<TRIPOS>BOND
     1    1    2 1
     2    1   23 1
     3    1   24 1
     4    1   25 1
     5    2   11 1
     6    2    3 1
     7    3    4 2
     8    3   15 1
     9    4    5 1
    10    4   14 1
    11    5   10 ar
    12    5    6 ar
    13    6    7 ar
    14    6   26 1
    15    7    8 ar
    16    7   27 1
    17    8    9 ar
    18    8   28 1
    19    9   10 ar
    20    9   29 1
    21   10   11 1
    22   11   12 2
    23   11   13 2
    24   15   16 2
    25   15   17 1
    26   17   22 ar
    27   17   18 ar
    28   18   19 ar
    29   18   30 1
    30   19   20 ar
    31   19   31 1
    32   20   21 ar
    33   20   32 1
    34   21   22 ar
    35   21   33 1
    36   22   34 1
@<TRIPOS>MOLECULE
CHEMBL519792
   58    61     0     0     0
SMALL
USER_CHARGES

@<TRIPOS>ATOM
      1 C1         -0.0642    1.2917   -0.8015 C.3       1 <0>        -0.1600
      2 C2         -0.0017   -0.2237   -0.5998 C.3       1 <0>         0.1285
      3 H1          0.4679   -0.6890   -1.4665 H         1 <0>         0.1089
      4 C3         -1.4206   -0.7785   -0.4233 C.3       1 <0>         0.1377
      5 N1         -1.9377   -0.3393    0.8804 N.pl3     1 <0>        -0.6785
      6 C4         -1.1605   -0.6443    2.0898 C.3       1 <0>         0.1338
      7 C5          0.2584   -0.0895    1.9133 C.3       1 <0>         0.1027
      8 N2          0.7791   -0.5288    0.6073 N.pl3     1 <0>        -0.9888
      9 S1          2.2110   -1.3535    0.4989 S.o2      1 <0>         2.6870
     10 O1          2.4236   -1.9662    1.7633 O.2       1 <0>        -0.9537
     11 O2          2.1598   -2.0989   -0.7098 O.2       1 <0>        -0.9509
     12 C6          3.4879   -0.1561    0.2984 C.ar      1 <0>        -0.6244
     13 C7          3.8578    0.2536   -0.9698 C.ar      1 <0>        -0.0791
     14 C8          4.8596    1.1927   -1.1316 C.ar      1 <0>        -0.0868
     15 C9          5.4943    1.7251   -0.0264 C.ar      1 <0>        -0.1459
     16 C10         5.1251    1.3162    1.2486 C.ar      1 <0>         0.2038
     17 C11         4.1144    0.3763    1.4078 C.ar      1 <0>        -0.1015
     18 N3          5.7648    1.8526    2.3684 N.pl3     1 <0>        -0.6326
     19 C12         5.4791    1.3449    3.7197 C.3       1 <0>         0.0824
     20 C13         6.8112    1.0284    4.4090 C.3       1 <0>         0.0451
     21 O3          7.6664    2.1711    4.3278 O.3       1 <0>        -0.3775
     22 C14         8.0153    2.5474    2.9934 C.3       1 <0>         0.0450
     23 C15         6.7490    2.9379    2.2311 C.3       1 <0>         0.0851
     24 C16        -3.1473    0.3565    0.9684 C.ar      1 <0>         0.2165
     25 C17        -3.1507    1.7453    0.9913 C.ar      1 <0>        -0.0990
     26 C18        -4.3466    2.4305    1.0778 C.ar      1 <0>        -0.1133
     27 C19        -5.5418    1.7340    1.1417 C.ar      1 <0>         0.0968
     28 C20        -5.5408    0.3498    1.1191 C.ar      1 <0>        -0.1021
     29 C21        -4.3473   -0.3397    1.0273 C.ar      1 <0>        -0.1664
     30 C22        -4.3472   -1.8464    0.9964 C.3       1 <0>         0.5173
     31 F1         -5.6501   -2.3169    1.1922 F         1 <0>        -0.1787
     32 F2         -3.8736   -2.2873   -0.2440 F         1 <0>        -0.1722
     33 F3         -3.5179   -2.3336    2.0123 F         1 <0>        -0.1693
     34 F4         -6.7105    2.4064    1.2268 F         1 <0>        -0.1299
     35 H2          0.9417    1.6781   -0.9658 H         1 <0>         0.0591
     36 H3         -0.6862    1.5175   -1.6677 H         1 <0>         0.0679
     37 H4         -0.4927    1.7589    0.0852 H         1 <0>         0.0643
     38 H5         -2.0630   -0.3995   -1.2182 H         1 <0>         0.0866
     39 H6         -1.3946   -1.8676   -0.4585 H         1 <0>         0.0673
     40 H7         -1.6311   -0.1767    2.9547 H         1 <0>         0.0857
     41 H8         -1.1160   -1.7238    2.2335 H         1 <0>         0.0688
     42 H9          0.2324    0.9996    1.9485 H         1 <0>         0.0745
     43 H10         0.9009   -0.4684    2.7082 H         1 <0>         0.0995
     44 H11         3.3631   -0.1611   -1.8356 H         1 <0>         0.1362
     45 H12         5.1465    1.5099   -2.1233 H         1 <0>         0.1331
     46 H13         6.2770    2.4583   -0.1535 H         1 <0>         0.1304
     47 H14         3.8221    0.0592    2.3979 H         1 <0>         0.1372
     48 H15         4.9413    2.1022    4.2902 H         1 <0>         0.0751
     49 H16         4.8765    0.4392    3.6517 H         1 <0>         0.0943
     50 H17         6.6303    0.7827    5.4554 H         1 <0>         0.1086
     51 H18         7.2861    0.1823    3.9123 H         1 <0>         0.0575
     52 H19         8.7008    3.3945    3.0215 H         1 <0>         0.1072
     53 H20         8.4946    1.7068    2.4916 H         1 <0>         0.0562
     54 H21         6.9871    3.0865    1.1778 H         1 <0>         0.0925
     55 H22         6.3414    3.8583    2.6492 H         1 <0>         0.0740
     56 H23        -2.2188    2.2889    0.9418 H         1 <0>         0.1456
     57 H24        -4.3496    3.5104    1.0959 H         1 <0>         0.1465
     58 H25        -6.4741   -0.1914    1.1690 H         1 <0>         0.1517
@<TRIPOS>BOND
     1    1    2 1
     2    1   35 1
     3    1   36 1
     4    1   37 1
     5    2    3 1
     6    2    8 1
     7    2    4 1
     8    4    5 1
     9    4   38 1
    10    4   39 1
    11    5    6 1
    12    5   24 1
    13    6    7 1
    14    6   40 1
    15    6   41 1
    16    7    8 1
    17    7   42 1
    18    7   43 1
    19    8    9 1
    20    9   10 2
    21    9   11 2
    22    9   12 1
    23   12   17 ar
    24   12   13 ar
    25   13   14 ar
    26   13   44 1
    27   14   15 ar
    28   14   45 1
    29   15   16 ar
    30   15   46 1
    31   16   17 ar
    32   16   18 1
    33   17   47 1
    34   18   23 1
    35   18   19 1
    36   19   20 1
    37   19   48 1
    38   19   49 1
    39   20   21 1
    40   20   50 1
    41   20   51 1
    42   21   22 1
    43   22   23 1
    44   22   52 1
    45   22   53 1
    46   23   54 1
    47   23   55 1
    48   24   29 ar
    49   24   25 ar
    50   25   26 ar
    51   25   56 1
    52   26   27 ar
    53   26   57 1
    54   27   28 ar
    55   27   34 1
    56   28   29 ar
    57   28   58 1
    58   29   30 1
    59   30   31 1
    60   30   32 1
    61   30   33 1
@<TRIPOS>MOLECULE
CHEMBL246057
   71    76     0     0     0
SMALL
USER_CHARGES

@<TRIPOS>ATOM
      1 C1          0.4531    1.4737    0.0515 C.3       1 <0>        -0.1379
      2 C2          0.2392   -0.0413    0.0486 C.3       1 <0>         0.0971
      3 C3          1.2624   -0.7026    0.9742 C.3       1 <0>        -0.1958
      4 C4         -1.1529   -0.3530    0.5345 C.2       1 <0>         0.4892
      5 O1         -1.9278   -0.9464   -0.1854 O.2       1 <0>        -0.5100
      6 N1         -1.5367    0.0278    1.7691 N.am      1 <0>        -0.7163
      7 C5         -2.8900   -0.2752    2.2414 C.3       1 <0>         0.1560
      8 C6         -3.8523    0.8150    1.7656 C.3       1 <0>        -0.0917
      9 C7         -3.4076    2.1677    2.3254 C.3       1 <0>        -0.1086
     10 C8         -3.4139    2.1137    3.8545 C.3       1 <0>        -0.0839
     11 C9         -2.4517    1.0235    4.3303 C.3       1 <0>        -0.1103
     12 C10        -2.8963   -0.3291    3.7705 C.3       1 <0>        -0.0921
     13 C11        -4.3097   -0.6455    4.2638 C.3       1 <0>        -0.0831
     14 C12        -5.2719    0.4447    3.7879 C.3       1 <0>        -0.0707
     15 C13        -4.8272    1.7973    4.3478 C.3       1 <0>        -0.1013
     16 C14        -5.2656    0.4986    2.2589 C.3       1 <0>        -0.0996
     17 C15        -6.6640    0.1330    4.2738 C.2       1 <0>         0.5216
     18 O2         -6.8665   -0.8630    4.9355 O.2       1 <0>        -0.5420
     19 N2         -7.6839    0.9611    3.9730 N.am      1 <0>        -0.7204
     20 C16        -9.0372    0.6582    4.4453 C.3       1 <0>         0.1680
     21 C17        -9.9850    1.7319    3.9766 C.ar      1 <0>        -0.1361
     22 C18       -10.2034    2.8491    4.7627 C.ar      1 <0>        -0.1002
     23 C19       -11.0697    3.8359    4.3388 C.ar      1 <0>        -0.1074
     24 C20       -11.7257    3.7053    3.1150 C.ar      1 <0>         0.0608
     25 C21       -11.5014    2.5767    2.3269 C.ar      1 <0>        -0.1070
     26 C22       -10.6287    1.5992    2.7593 C.ar      1 <0>        -0.1000
     27 C23       -12.6568    4.7601    2.6546 C.2       1 <0>         0.0702
     28 N3        -12.9632    5.8894    3.2951 N.2       1 <0>        -0.3663
     29 N4        -13.8064    6.5335    2.5629 N.2       1 <0>        -0.1899
     30 N5        -14.0419    5.8585    1.4927 N.2       1 <0>        -0.1898
     31 N6        -13.3498    4.7710    1.5148 N.2       1 <0>        -0.3659
     32 O3          0.4037   -0.5431   -1.2792 O.3       1 <0>        -0.2826
     33 C24         0.2659   -1.8840   -1.4536 C.ar      1 <0>         0.1456
     34 C25        -0.1468   -2.6830   -0.3973 C.ar      1 <0>        -0.1704
     35 C26        -0.2863   -4.0456   -0.5765 C.ar      1 <0>        -0.0759
     36 C27        -0.0141   -4.6137   -1.8084 C.ar      1 <0>        -0.0702
     37 C28         0.3982   -3.8186   -2.8631 C.ar      1 <0>        -0.0749
     38 C29         0.5324   -2.4547   -2.6896 C.ar      1 <0>        -0.1395
     39 Cl1        -0.1895   -6.3265   -2.0310 Cl        1 <0>        -0.0746
     40 H1          1.4853    1.6954   -0.2197 H         1 <0>         0.0821
     41 H2         -0.2197    1.9369   -0.6702 H         1 <0>         0.0767
     42 H3          0.2461    1.8680    1.0463 H         1 <0>         0.0829
     43 H4          1.0094   -0.4829    2.0114 H         1 <0>         0.0785
     44 H5          1.2501   -1.7812    0.8178 H         1 <0>         0.0848
     45 H6          2.2567   -0.3147    0.7528 H         1 <0>         0.0835
     46 H7         -0.9170    0.5024    2.3449 H         1 <0>         0.3989
     47 H8         -3.2068   -1.2388    1.8426 H         1 <0>         0.0912
     48 H9         -3.8477    0.8534    0.6763 H         1 <0>         0.0803
     49 H10        -2.4007    2.3931    1.9740 H         1 <0>         0.0625
     50 H11        -4.0931    2.9443    1.9864 H         1 <0>         0.0683
     51 H12        -3.0971    3.0774    4.2533 H         1 <0>         0.0775
     52 H13        -1.4448    1.2490    3.9789 H         1 <0>         0.0594
     53 H14        -2.4562    0.9851    5.4197 H         1 <0>         0.0711
     54 H15        -2.2108   -1.1058    4.1095 H         1 <0>         0.0807
     55 H16        -4.6265   -1.6092    3.8649 H         1 <0>         0.0734
     56 H17        -4.3142   -0.6839    5.3531 H         1 <0>         0.0772
     57 H18        -4.8318    1.7589    5.4371 H         1 <0>         0.0702
     58 H19        -5.5128    2.5740    4.0088 H         1 <0>         0.0708
     59 H20        -5.9511    1.2753    1.9198 H         1 <0>         0.0741
     60 H21        -5.5824   -0.4651    1.8600 H         1 <0>         0.0715
     61 H22        -7.5219    1.7577    3.4437 H         1 <0>         0.4019
     62 H23        -9.3540   -0.3055    4.0464 H         1 <0>         0.0727
     63 H24        -9.0417    0.6197    5.5346 H         1 <0>         0.0727
     64 H25        -9.6950    2.9489    5.7104 H         1 <0>         0.1189
     65 H26       -11.2396    4.7074    4.9536 H         1 <0>         0.1298
     66 H27       -12.0068    2.4698    1.3785 H         1 <0>         0.1299
     67 H28       -10.4507    0.7269    2.1479 H         1 <0>         0.1192
     68 H29        -0.3587   -2.2400    0.5646 H         1 <0>         0.1348
     69 H30        -0.6076   -4.6679    0.2456 H         1 <0>         0.1326
     70 H31         0.6105   -4.2639   -3.8238 H         1 <0>         0.1389
     71 H32         0.8496   -1.8337   -3.5144 H         1 <0>         0.1391
@<TRIPOS>BOND
     1    1    2 1
     2    1   40 1
     3    1   41 1
     4    1   42 1
     5    2    3 1
     6    2    4 1
     7    2   32 1
     8    3   43 1
     9    3   44 1
    10    3   45 1
    11    4    5 2
    12    4    6 am
    13    6    7 1
    14    6   46 1
    15    7   12 1
    16    7    8 1
    17    7   47 1
    18    8   16 1
    19    8    9 1
    20    8   48 1
    21    9   10 1
    22    9   49 1
    23    9   50 1
    24   10   15 1
    25   10   11 1
    26   10   51 1
    27   11   12 1
    28   11   52 1
    29   11   53 1
    30   12   13 1
    31   12   54 1
    32   13   14 1
    33   13   55 1
    34   13   56 1
    35   14   15 1
    36   14   16 1
    37   14   17 1
    38   15   57 1
    39   15   58 1
    40   16   59 1
    41   16   60 1
    42   17   18 2
    43   17   19 am
    44   19   20 1
    45   19   61 1
    46   20   21 1
    47   20   62 1
    48   20   63 1
    49   21   26 ar
    50   21   22 ar
    51   22   23 ar
    52   22   64 1
    53   23   24 ar
    54   23   65 1
    55   24   25 ar
    56   24   27 1
    57   25   26 ar
    58   25   66 1
    59   26   67 1
    60   27   31 2
    61   27   28 1
    62   28   29 1
    63   29   30 2
    64   30   31 1
    65   32   33 1
    66   33   38 ar
    67   33   34 ar
    68   34   35 ar
    69   34   68 1
    70   35   36 ar
    71   35   69 1
    72   36   37 ar
    73   36   39 1
    74   37   38 ar
    75   37   70 1
    76   38   71 1
@<TRIPOS>MOLECULE
CHEMBL495684
   40    42     0     0     0
SMALL
USER_CHARGES

@<TRIPOS>ATOM
      1 C1         -0.0187    1.5258    0.0104 C.3       1 <0>        -0.1477
      2 C2          0.0021   -0.0041    0.0020 C.3       1 <0>        -0.1357
      3 C3          0.7182   -0.4975   -1.2568 C.3       1 <0>        -0.0851
      4 C4          0.7390   -2.0273   -1.2652 C.3       1 <0>        -0.0987
      5 C5         -0.6243   -2.6052   -0.9017 C.2       1 <0>         0.5479
      6 O1         -1.6288   -2.4261   -1.5624 O.2       1 <0>        -0.4611
      7 N1         -0.5971   -3.3151    0.1977 N.2       1 <0>        -0.6841
      8 C6          0.4870   -3.5172    0.9236 C.2       1 <0>         0.4828
      9 S1          1.7266   -2.6943    0.1368 S.3       1 <0>        -0.1040
     10 N2          0.5826   -4.2431    2.0744 N.pl3     1 <0>        -0.6205
     11 C7         -0.6046   -4.9001    2.6267 C.3       1 <0>         0.1466
     12 C8         -1.7719   -3.9562    3.0486 C.3       1 <0>        -0.1192
     13 C9         -2.6210   -4.7984    4.0280 C.3       1 <0>        -0.1190
     14 C10        -1.8868   -6.1718    4.1057 C.3       1 <0>        -0.0978
     15 C11        -0.3940   -5.7118    3.9535 C.3       1 <0>        -0.1235
     16 C12        -2.1309   -6.8244    2.7107 C.3       1 <0>        -0.1179
     17 C13        -1.2633   -5.9882    1.7247 C.3       1 <0>        -0.1196
     18 C14         1.2370   -2.5677   -2.6072 C.3       1 <0>        -0.1194
     19 H1          1.0039    1.9031    0.0027 H         1 <0>         0.0567
     20 H2         -0.5459    1.8868   -0.8726 H         1 <0>         0.0570
     21 H3         -0.5289    1.8773    0.9072 H         1 <0>         0.0567
     22 H4          0.5293   -0.3651    0.8851 H         1 <0>         0.0661
     23 H5         -1.0205   -0.3814    0.0098 H         1 <0>         0.0643
     24 H6          0.1910   -0.1364   -2.1398 H         1 <0>         0.0931
     25 H7          1.7408   -0.1202   -1.2645 H         1 <0>         0.0832
     26 H8          1.4366   -4.3242    2.5270 H         1 <0>         0.4278
     27 H9         -1.3819   -3.0699    3.5491 H         1 <0>         0.0631
     28 H10        -2.3645   -3.6727    2.1788 H         1 <0>         0.0840
     29 H11        -2.6485   -4.3261    5.0100 H         1 <0>         0.0677
     30 H12        -3.6311   -4.9289    3.6397 H         1 <0>         0.0715
     31 H13        -2.1153   -6.7856    4.9770 H         1 <0>         0.1078
     32 H14         0.2816   -6.5556    3.8135 H         1 <0>         0.0789
     33 H15        -0.0771   -5.0727    4.7777 H         1 <0>         0.0786
     34 H16        -1.7935   -7.8608    2.7118 H         1 <0>         0.0670
     35 H17        -3.1863   -6.7677    2.4442 H         1 <0>         0.0723
     36 H18        -1.9013   -5.5233    0.9731 H         1 <0>         0.0833
     37 H19        -0.4980   -6.6011    1.2484 H         1 <0>         0.0648
     38 H20         2.2484   -2.2057   -2.7918 H         1 <0>         0.0771
     39 H21         1.2401   -3.6574   -2.5814 H         1 <0>         0.0680
     40 H22         0.5772   -2.2250   -3.4043 H         1 <0>         0.0870
@<TRIPOS>BOND
     1    1    2 1
     2    1   19 1
     3    1   20 1
     4    1   21 1
     5    2    3 1
     6    2   22 1
     7    2   23 1
     8    3    4 1
     9    3   24 1
    10    3   25 1
    11    4    9 1
    12    4    5 1
    13    4   18 1
    14    5    6 2
    15    5    7 1
    16    7    8 2
    17    8    9 1
    18    8   10 1
    19   10   11 1
    20   10   26 1
    21   11   15 1
    22   11   17 1
    23   11   12 1
    24   12   13 1
    25   12   27 1
    26   12   28 1
    27   13   14 1
    28   13   29 1
    29   13   30 1
    30   14   15 1
    31   14   16 1
    32   14   31 1
    33   15   32 1
    34   15   33 1
    35   16   17 1
    36   16   34 1
    37   16   35 1
    38   17   36 1
    39   17   37 1
    40   18   38 1
    41   18   39 1
    42   18   40 1
@<TRIPOS>MOLECULE
CHEMBL495684__1
   40    42     0     0     0
SMALL
USER_CHARGES

@<TRIPOS>ATOM
      1 C1         -0.0187    1.5258    0.0104 C.3       1 <0>        -0.1477
      2 C2          0.0021   -0.0041    0.0020 C.3       1 <0>        -0.1357
      3 C3          0.7182   -0.4975   -1.2568 C.3       1 <0>        -0.0851
      4 C4          0.7390   -2.0273   -1.2652 C.3       1 <0>        -0.0986
      5 C5          1.1405   -2.5867    0.0950 C.2       1 <0>         0.5478
      6 O1          2.2217   -2.3852    0.6129 O.2       1 <0>        -0.4612
      7 N1          0.1963   -3.3068    0.6458 N.2       1 <0>        -0.6840
      8 C6         -0.9817   -3.5326    0.0941 C.2       1 <0>         0.4829
      9 S1         -0.9609   -2.7224   -1.3811 S.3       1 <0>        -0.1042
     10 N2         -2.0047   -4.2708    0.6125 N.pl3     1 <0>        -0.6205
     11 C7         -1.8545   -4.9137    1.9203 C.3       1 <0>         0.1466
     12 C8         -0.7243   -5.9824    2.0287 C.3       1 <0>        -0.1195
     13 C9         -1.1062   -6.8313    3.2628 C.3       1 <0>        -0.1190
     14 C10        -2.4312   -6.1957    3.7838 C.3       1 <0>        -0.0978
     15 C11        -3.0862   -5.7413    2.4318 C.3       1 <0>        -0.1235
     16 C12        -1.9984   -4.8179    4.3718 C.3       1 <0>        -0.1179
     17 C13        -1.6293   -3.9551    3.1293 C.3       1 <0>        -0.1193
     18 C14         1.6397   -2.5635   -2.3797 C.3       1 <0>        -0.1194
     19 H1          1.0039    1.9031    0.0027 H         1 <0>         0.0570
     20 H2         -0.5459    1.8868   -0.8726 H         1 <0>         0.0567
     21 H3         -0.5289    1.8773    0.9072 H         1 <0>         0.0567
     22 H4          0.5293   -0.3651    0.8851 H         1 <0>         0.0643
     23 H5         -1.0205   -0.3814    0.0098 H         1 <0>         0.0661
     24 H6          0.1910   -0.1364   -2.1398 H         1 <0>         0.0832
     25 H7          1.7408   -0.1202   -1.2645 H         1 <0>         0.0931
     26 H8         -2.8317   -4.3700    0.1154 H         1 <0>         0.4278
     27 H9         -0.7010   -6.6030    1.1330 H         1 <0>         0.0631
     28 H10         0.2410   -5.5002    2.1832 H         1 <0>         0.0840
     29 H11        -1.2706   -7.8694    2.9738 H         1 <0>         0.0678
     30 H12        -0.3286   -6.7665    4.0240 H         1 <0>         0.0716
     31 H13        -3.0429   -6.8288    4.4265 H         1 <0>         0.1078
     32 H14        -3.9623   -5.1131    2.5928 H         1 <0>         0.0789
     33 H15        -3.3092   -6.5868    1.7811 H         1 <0>         0.0786
     34 H16        -2.8273   -4.3565    4.9086 H         1 <0>         0.0670
     35 H17        -1.1385   -4.9390    5.0305 H         1 <0>         0.0723
     36 H18        -0.5833   -3.6538    3.1856 H         1 <0>         0.0833
     37 H19        -2.2737   -3.0800    3.0456 H         1 <0>         0.0648
     38 H20         2.6574   -2.2033   -2.2294 H         1 <0>         0.0870
     39 H21         1.6333   -3.6533   -2.3594 H         1 <0>         0.0680
     40 H22         1.2700   -2.2159   -3.3444 H         1 <0>         0.0771
@<TRIPOS>BOND
     1    1    2 1
     2    1   19 1
     3    1   20 1
     4    1   21 1
     5    2    3 1
     6    2   22 1
     7    2   23 1
     8    3    4 1
     9    3   24 1
    10    3   25 1
    11    4    9 1
    12    4    5 1
    13    4   18 1
    14    5    6 2
    15    5    7 1
    16    7    8 2
    17    8    9 1
    18    8   10 1
    19   10   11 1
    20   10   26 1
    21   11   15 1
    22   11   17 1
    23   11   12 1
    24   12   13 1
    25   12   27 1
    26   12   28 1
    27   13   14 1
    28   13   29 1
    29   13   30 1
    30   14   15 1
    31   14   16 1
    32   14   31 1
    33   15   32 1
    34   15   33 1
    35   16   17 1
    36   16   34 1
    37   16   35 1
    38   17   36 1
    39   17   37 1
    40   18   38 1
    41   18   39 1
    42   18   40 1
@<TRIPOS>MOLECULE
CHEMBL1085153
   45    47     0     0     0
SMALL
USER_CHARGES

@<TRIPOS>ATOM
      1 C1          0.0549    1.3136    0.0766 C.3       1 <0>         0.0215
      2 O1          0.2743   -0.0964    0.1521 O.3       1 <0>        -0.2981
      3 C2          0.9026   -0.6796   -0.9005 C.ar      1 <0>         0.1421
      4 C3          1.3047    0.0939   -1.9822 C.ar      1 <0>        -0.1873
      5 C4          1.9420   -0.4917   -3.0529 C.ar      1 <0>        -0.0642
      6 C5          2.1865   -1.8703   -3.0528 C.ar      1 <0>        -0.1687
      7 C6          1.7812   -2.6491   -1.9618 C.ar      1 <0>        -0.1101
      8 C7          1.1476   -2.0527   -0.8903 C.ar      1 <0>         0.0906
      9 O2          0.7571   -2.8050    0.1732 O.3       1 <0>        -0.3027
     10 C8          1.0400   -4.2046    0.1167 C.3       1 <0>         0.0223
     11 C9          2.8656   -2.4978   -4.1938 C.2       1 <0>         0.4228
     12 O3          3.0766   -3.6923   -4.1919 O.2       1 <0>        -0.4274
     13 C10         3.3004   -1.6577   -5.3669 C.3       1 <0>        -0.2042
     14 S1          4.1032   -2.7150   -6.6032 S.3       1 <0>         0.0514
     15 C11         4.4774   -1.6141   -7.9271 C.2       1 <0>         0.0129
     16 C12         4.9570   -1.9519   -9.1534 C.2       1 <0>        -0.0409
     17 N1          5.1114   -0.8427   -9.8759 N.2       1 <0>        -0.2290
     18 N2          4.7593    0.1853   -9.1856 N.2       1 <0>        -0.0470
     19 N3          4.3368   -0.2581   -7.9233 N.pl3     1 <0>        -0.3671
     20 C13         3.8456    0.5712   -6.8200 C.3       1 <0>         0.1512
     21 C14         3.8765    2.0212   -7.2291 C.ar      1 <0>        -0.1084
     22 C15         4.9690    2.8061   -6.9109 C.ar      1 <0>        -0.0895
     23 C16         4.9973    4.1362   -7.2862 C.ar      1 <0>        -0.1191
     24 C17         3.9332    4.6814   -7.9801 C.ar      1 <0>        -0.1008
     25 C18         2.8411    3.8963   -8.2991 C.ar      1 <0>        -0.1186
     26 C19         2.8147    2.5651   -7.9276 C.ar      1 <0>        -0.0857
     27 H1          1.0128    1.8261   -0.0133 H         1 <0>         0.0599
     28 H2         -0.5610    1.5395   -0.7939 H         1 <0>         0.0599
     29 H3         -0.4543    1.6510    0.9794 H         1 <0>         0.1063
     30 H4          1.1166    1.1574   -1.9833 H         1 <0>         0.1460
     31 H5          2.2528    0.1120   -3.8927 H         1 <0>         0.1340
     32 H6          1.9672   -3.7130   -1.9571 H         1 <0>         0.1505
     33 H7          2.1163   -4.3545    0.0313 H         1 <0>         0.0583
     34 H8          0.6771   -4.6856    1.0250 H         1 <0>         0.1059
     35 H9          0.5425   -4.6411   -0.7493 H         1 <0>         0.0583
     36 H10         2.4295   -1.1759   -5.8113 H         1 <0>         0.1283
     37 H11         4.0034   -0.8967   -5.0281 H         1 <0>         0.1290
     38 H12         5.1772   -2.9550   -9.4874 H         1 <0>         0.1912
     39 H13         2.8226    0.2839   -6.5770 H         1 <0>         0.1019
     40 H14         4.4809    0.4266   -5.9461 H         1 <0>         0.1021
     41 H15         5.8003    2.3802   -6.3688 H         1 <0>         0.1216
     42 H16         5.8505    4.7496   -7.0369 H         1 <0>         0.1271
     43 H17         3.9550    5.7208   -8.2727 H         1 <0>         0.1266
     44 H18         2.0096    4.3223   -8.8409 H         1 <0>         0.1269
     45 H19         1.9631    1.9507   -8.1800 H         1 <0>         0.1204
@<TRIPOS>BOND
     1    1    2 1
     2    1   27 1
     3    1   28 1
     4    1   29 1
     5    2    3 1
     6    3    8 ar
     7    3    4 ar
     8    4    5 ar
     9    4   30 1
    10    5    6 ar
    11    5   31 1
    12    6    7 ar
    13    6   11 1
    14    7    8 ar
    15    7   32 1
    16    8    9 1
    17    9   10 1
    18   10   33 1
    19   10   34 1
    20   10   35 1
    21   11   12 2
    22   11   13 1
    23   13   14 1
    24   13   36 1
    25   13   37 1
    26   14   15 1
    27   15   19 1
    28   15   16 2
    29   16   17 1
    30   16   38 1
    31   17   18 2
    32   18   19 1
    33   19   20 1
    34   20   21 1
    35   20   39 1
    36   20   40 1
    37   21   26 ar
    38   21   22 ar
    39   22   23 ar
    40   22   41 1
    41   23   24 ar
    42   23   42 1
    43   24   25 ar
    44   24   43 1
    45   25   26 ar
    46   25   44 1
    47   26   45 1
@<TRIPOS>MOLECULE
CHEMBL222668
   37    38     0     0     0
SMALL
USER_CHARGES

@<TRIPOS>ATOM
      1 C1         -0.9218    1.8606    0.2204 C.3       1 <0>        -0.1410
      2 C2         -1.3559    0.8451    1.2794 C.3       1 <0>         0.1433
      3 H1         -1.5705   -0.1111    0.8023 H         1 <0>         0.0742
      4 C3         -2.6104    1.3547    1.9957 C.3       1 <0>        -0.1326
      5 C4         -2.9584    0.4050    3.1443 C.3       1 <0>        -0.1222
      6 C5         -1.8059    0.3753    4.1508 C.3       1 <0>        -0.1301
      7 C6         -0.5422   -0.1454    3.4588 C.3       1 <0>         0.1415
      8 H2         -0.6898   -1.1837    3.1617 H         1 <0>         0.0781
      9 N1         -0.2813    0.6730    2.2664 N.am      1 <0>        -0.6011
     10 C7          0.9193    1.2574    2.0834 C.2       1 <0>         0.5698
     11 O1          1.0597    2.1002    1.2182 O.2       1 <0>        -0.5154
     12 C8          2.0632    0.8745    2.9327 C.ar      1 <0>        -0.1424
     13 C9          2.6084   -0.4091    2.8361 C.ar      1 <0>        -0.0217
     14 C10         3.6763   -0.7638    3.6302 C.ar      1 <0>        -0.1207
     15 C11         4.2129    0.1549    4.5289 C.ar      1 <0>         0.2592
     16 C12         3.6715    1.4342    4.6276 C.ar      1 <0>        -0.1129
     17 C13         2.6076    1.7964    3.8314 C.ar      1 <0>        -0.0245
     18 Cl1         4.3429    2.5758    5.7499 Cl        1 <0>        -0.0517
     19 N2          5.2921   -0.2063    5.3301 N.pl3     1 <0>        -0.8536
     20 Cl2         4.3536   -2.3578    3.5114 Cl        1 <0>        -0.0523
     21 C14         0.6447   -0.0507    4.4197 C.3       1 <0>        -0.2065
     22 H3         -0.0306    1.4951   -0.2897 H         1 <0>         0.0703
     23 H4         -1.7251    1.9962   -0.5037 H         1 <0>         0.0472
     24 H5         -0.7005    2.8139    0.7003 H         1 <0>         0.0738
     25 H6         -2.4228    2.3523    2.3927 H         1 <0>         0.0686
     26 H7         -3.4413    1.3933    1.2912 H         1 <0>         0.0766
     27 H8         -3.8649    0.7518    3.6403 H         1 <0>         0.0682
     28 H9         -3.1217   -0.5978    2.7495 H         1 <0>         0.0651
     29 H10        -1.6258    1.3821    4.5275 H         1 <0>         0.0688
     30 H11        -2.0641   -0.2832    4.9802 H         1 <0>         0.0773
     31 H12         2.1924   -1.1220    2.1396 H         1 <0>         0.1440
     32 H13         2.1912    2.7902    3.9050 H         1 <0>         0.1453
     33 H14         5.6697   -1.0973    5.2624 H         1 <0>         0.4077
     34 H15         5.6666    0.4328    5.9564 H         1 <0>         0.4078
     35 H16         0.3226   -0.3278    5.4234 H         1 <0>         0.0662
     36 H17         1.4330   -0.7279    4.0911 H         1 <0>         0.0854
     37 H18         1.0240    0.9712    4.4289 H         1 <0>         0.0903
@<TRIPOS>BOND
     1    1    2 1
     2    1   22 1
     3    1   23 1
     4    1   24 1
     5    2    3 1
     6    2    9 1
     7    2    4 1
     8    4    5 1
     9    4   25 1
    10    4   26 1
    11    5    6 1
    12    5   27 1
    13    5   28 1
    14    6    7 1
    15    6   29 1
    16    6   30 1
    17    7    8 1
    18    7    9 1
    19    7   21 1
    20    9   10 am
    21   10   11 2
    22   10   12 1
    23   12   17 ar
    24   12   13 ar
    25   13   14 ar
    26   13   31 1
    27   14   15 ar
    28   14   20 1
    29   15   16 ar
    30   15   19 1
    31   16   17 ar
    32   16   18 1
    33   17   32 1
    34   19   33 1
    35   19   34 1
    36   21   35 1
    37   21   36 1
    38   21   37 1
@<TRIPOS>MOLECULE
CHEMBL218120
   68    73     0     0     0
SMALL
USER_CHARGES

@<TRIPOS>ATOM
      1 C1         -0.7070    1.1317    0.3700 C.3       1 <0>        -0.1405
      2 C2         -0.2113   -0.2680    0.0012 C.3       1 <0>        -0.0865
      3 C3          0.9183   -0.1822   -1.0513 C.3       1 <0>        -0.0931
      4 C4          1.8481   -1.3341   -0.6099 C.3       1 <0>         0.1032
      5 N1          1.5956   -1.5135    0.8246 N.am      1 <0>        -0.6099
      6 C5          0.4426   -0.9295    1.1942 C.2       1 <0>         0.5260
      7 O1         -0.0076   -0.9322    2.3204 O.2       1 <0>        -0.5144
      8 C6          2.4857   -2.2361    1.7367 C.3       1 <0>         0.1703
      9 C7          3.2824   -3.2798    0.9514 C.3       1 <0>        -0.0909
     10 C8          2.3178   -4.2671    0.2913 C.3       1 <0>        -0.1119
     11 C9          1.4861   -4.9653    1.3690 C.3       1 <0>        -0.0846
     12 C10         0.6893   -3.9216    2.1543 C.3       1 <0>        -0.1005
     13 C11         1.6539   -2.9343    2.8144 C.3       1 <0>        -0.1037
     14 C12         2.5835   -3.6890    3.7669 C.3       1 <0>        -0.0857
     15 C13         3.3802   -4.7327    2.9816 C.3       1 <0>        -0.0739
     16 C14         2.4156   -5.7200    2.3215 C.3       1 <0>        -0.0993
     17 C15         4.2120   -4.0345    1.9038 C.3       1 <0>        -0.0968
     18 C16         4.2958   -5.4760    3.9198 C.2       1 <0>         0.5261
     19 O2          4.3097   -5.1984    5.1003 O.2       1 <0>        -0.5379
     20 N2          5.0992   -6.4494    3.4469 N.am      1 <0>        -0.8553
     21 C17         1.6395    1.1648   -0.9718 C.3       1 <0>         0.0629
     22 O3          2.5959    1.2562   -2.0296 O.3       1 <0>        -0.3085
     23 C18         3.3280    2.3994   -2.1027 C.ar      1 <0>         0.1293
     24 C19         3.1327    3.4087   -1.1712 C.ar      1 <0>        -0.1807
     25 C20         3.8761    4.5700   -1.2451 C.ar      1 <0>        -0.0898
     26 C21         4.8192    4.7272   -2.2513 C.ar      1 <0>         0.0953
     27 C22         5.0147    3.7169   -3.1829 C.ar      1 <0>        -0.0902
     28 C23         4.2743    2.5539   -3.1054 C.ar      1 <0>        -0.1231
     29 N3          5.5748    5.9077   -2.3270 N.pl3     1 <0>        -0.4076
     30 C24         6.5317    6.2039   -3.2626 C.2       1 <0>        -0.0559
     31 C25         7.0018    7.4304   -2.9651 C.2       1 <0>        -0.0210
     32 N4          6.3531    7.8751   -1.8788 N.2       1 <0>        -0.4844
     33 C26         5.4916    6.9743   -1.4907 C.2       1 <0>         0.1856
     34 C27        -1.3677   -1.1244   -0.5188 C.3       1 <0>        -0.1313
     35 H1          0.1316    1.7337    0.7198 H         1 <0>         0.0591
     36 H2         -1.1515    1.6025   -0.5069 H         1 <0>         0.0704
     37 H3         -1.4544    1.0561    1.1598 H         1 <0>         0.0735
     38 H4          0.5304   -0.3566   -2.0549 H         1 <0>         0.1129
     39 H5          1.6023   -2.2465   -1.1532 H         1 <0>         0.0817
     40 H6          2.8904   -1.0632   -0.7784 H         1 <0>         0.0854
     41 H7          3.1729   -1.5327    2.2069 H         1 <0>         0.0715
     42 H8          3.8750   -2.7823    0.1836 H         1 <0>         0.0808
     43 H9          1.6556   -3.7294   -0.3873 H         1 <0>         0.0705
     44 H10         2.8854   -5.0106   -0.2682 H         1 <0>         0.0667
     45 H11         0.7989   -5.6687    0.8988 H         1 <0>         0.0752
     46 H12         0.0271   -3.3840    1.4758 H         1 <0>         0.0612
     47 H13         0.0967   -4.4191    2.9221 H         1 <0>         0.0639
     48 H14         1.0863   -2.1908    3.3739 H         1 <0>         0.1098
     49 H15         3.2707   -2.9856    4.2372 H         1 <0>         0.0709
     50 H16         1.9909   -4.1864    4.5347 H         1 <0>         0.0759
     51 H17         1.8231   -6.2175    3.0893 H         1 <0>         0.0698
     52 H18         2.9833   -6.4636    1.7620 H         1 <0>         0.0669
     53 H19         4.7796   -4.7780    1.3444 H         1 <0>         0.0736
     54 H20         4.8992   -3.3311    2.3741 H         1 <0>         0.0717
     55 H21         5.0881   -6.6715    2.5028 H         1 <0>         0.4002
     56 H22         5.6886   -6.9279    4.0508 H         1 <0>         0.4018
     57 H23         0.9134    1.9720   -1.0677 H         1 <0>         0.0778
     58 H24         2.1501    1.2475   -0.0123 H         1 <0>         0.0667
     59 H25         2.3988    3.2863   -0.3883 H         1 <0>         0.1379
     60 H26         3.7234    5.3560   -0.5203 H         1 <0>         0.1358
     61 H27         5.7482    3.8389   -3.9661 H         1 <0>         0.1390
     62 H28         4.4292    1.7661   -3.8277 H         1 <0>         0.1431
     63 H29         6.8485    5.5743   -4.0810 H         1 <0>         0.1781
     64 H30         7.7689    7.9634   -3.5072 H         1 <0>         0.1755
     65 H31         4.8260    7.0617   -0.6447 H         1 <0>         0.2076
     66 H32        -1.7894   -0.6621   -1.4113 H         1 <0>         0.0722
     67 H33        -1.0000   -2.1206   -0.7648 H         1 <0>         0.0612
     68 H34        -2.1374   -1.2006    0.2492 H         1 <0>         0.0701
@<TRIPOS>BOND
     1    1    2 1
     2    1   35 1
     3    1   36 1
     4    1   37 1
     5    2    6 1
     6    2    3 1
     7    2   34 1
     8    3    4 1
     9    3   21 1
    10    3   38 1
    11    4    5 1
    12    4   39 1
    13    4   40 1
    14    5    6 am
    15    5    8 1
    16    6    7 2
    17    8   13 1
    18    8    9 1
    19    8   41 1
    20    9   17 1
    21    9   10 1
    22    9   42 1
    23   10   11 1
    24   10   43 1
    25   10   44 1
    26   11   16 1
    27   11   12 1
    28   11   45 1
    29   12   13 1
    30   12   46 1
    31   12   47 1
    32   13   14 1
    33   13   48 1
    34   14   15 1
    35   14   49 1
    36   14   50 1
    37   15   16 1
    38   15   17 1
    39   15   18 1
    40   16   51 1
    41   16   52 1
    42   17   53 1
    43   17   54 1
    44   18   19 2
    45   18   20 am
    46   20   55 1
    47   20   56 1
    48   21   22 1
    49   21   57 1
    50   21   58 1
    51   22   23 1
    52   23   28 ar
    53   23   24 ar
    54   24   25 ar
    55   24   59 1
    56   25   26 ar
    57   25   60 1
    58   26   27 ar
    59   26   29 1
    60   27   28 ar
    61   27   61 1
    62   28   62 1
    63   29   33 1
    64   29   30 1
    65   30   31 2
    66   30   63 1
    67   31   32 1
    68   31   64 1
    69   32   33 2
    70   33   65 1
    71   34   66 1
    72   34   67 1
    73   34   68 1
@<TRIPOS>MOLECULE
CHEMBL218120__1
   68    73     0     0     0
SMALL
USER_CHARGES

@<TRIPOS>ATOM
      1 C1         -0.7070    1.1317    0.3700 C.3       1 <0>        -0.1334
      2 C2         -0.2113   -0.2680    0.0012 C.3       1 <0>        -0.0868
      3 C3          0.9183   -0.1822   -1.0513 C.3       1 <0>        -0.0934
      4 C4          1.8481   -1.3341   -0.6099 C.3       1 <0>         0.1058
      5 N1          1.5956   -1.5135    0.8246 N.am      1 <0>        -0.6099
      6 C5          0.4426   -0.9295    1.1942 C.2       1 <0>         0.5296
      7 O1         -0.0076   -0.9322    2.3204 O.2       1 <0>        -0.5138
      8 C6          2.4857   -2.2361    1.7367 C.3       1 <0>         0.1698
      9 C7          3.2824   -3.2798    0.9514 C.3       1 <0>        -0.0910
     10 C8          2.3178   -4.2671    0.2913 C.3       1 <0>        -0.1118
     11 C9          1.4861   -4.9653    1.3690 C.3       1 <0>        -0.0847
     12 C10         0.6893   -3.9216    2.1543 C.3       1 <0>        -0.1004
     13 C11         1.6539   -2.9343    2.8144 C.3       1 <0>        -0.1038
     14 C12         2.5835   -3.6890    3.7669 C.3       1 <0>        -0.0857
     15 C13         3.3802   -4.7327    2.9816 C.3       1 <0>        -0.0740
     16 C14         2.4156   -5.7200    2.3215 C.3       1 <0>        -0.0992
     17 C15         4.2120   -4.0345    1.9038 C.3       1 <0>        -0.0967
     18 C16         4.2958   -5.4760    3.9198 C.2       1 <0>         0.5262
     19 O2          4.3097   -5.1984    5.1003 O.2       1 <0>        -0.5377
     20 N2          5.0992   -6.4494    3.4469 N.am      1 <0>        -0.8553
     21 C17         0.3739   -0.4271   -2.4600 C.3       1 <0>         0.0686
     22 O3          1.4173   -0.2262   -3.4155 O.3       1 <0>        -0.3087
     23 C18         1.0981   -0.4053   -4.7248 C.ar      1 <0>         0.1291
     24 C19        -0.1946   -0.7613   -5.0810 C.ar      1 <0>        -0.1813
     25 C20        -0.5193   -0.9432   -6.4107 C.ar      1 <0>        -0.0901
     26 C21         0.4479   -0.7695   -7.3911 C.ar      1 <0>         0.0953
     27 C22         1.7411   -0.4129   -7.0343 C.ar      1 <0>        -0.0900
     28 C23         2.0637   -0.2264   -5.7047 C.ar      1 <0>        -0.1229
     29 N3          0.1185   -0.9549   -8.7428 N.pl3     1 <0>        -0.4078
     30 C24         0.9649   -0.8244   -9.8130 C.2       1 <0>        -0.0557
     31 C25         0.2412   -1.0896  -10.9174 C.2       1 <0>        -0.0210
     32 N4         -1.0130   -1.3747  -10.5375 N.2       1 <0>        -0.4844
     33 C26        -1.0976   -1.3030   -9.2368 C.2       1 <0>         0.1855
     34 C27        -1.3677   -1.1244   -0.5188 C.3       1 <0>        -0.1398
     35 H1          0.1316    1.7337    0.7198 H         1 <0>         0.0612
     36 H2         -1.1515    1.6025   -0.5069 H         1 <0>         0.0670
     37 H3         -1.4544    1.0561    1.1598 H         1 <0>         0.0718
     38 H4          1.4321    0.7774   -0.9946 H         1 <0>         0.1066
     39 H5          1.6023   -2.2465   -1.1532 H         1 <0>         0.0776
     40 H6          2.8904   -1.0632   -0.7784 H         1 <0>         0.0846
     41 H7          3.1729   -1.5327    2.2069 H         1 <0>         0.0730
     42 H8          3.8750   -2.7823    0.1836 H         1 <0>         0.0811
     43 H9          1.6556   -3.7294   -0.3873 H         1 <0>         0.0692
     44 H10         2.8854   -5.0106   -0.2682 H         1 <0>         0.0665
     45 H11         0.7989   -5.6687    0.8988 H         1 <0>         0.0748
     46 H12         0.0271   -3.3840    1.4758 H         1 <0>         0.0605
     47 H13         0.0967   -4.4191    2.9221 H         1 <0>         0.0641
     48 H14         1.0863   -2.1908    3.3739 H         1 <0>         0.1102
     49 H15         3.2707   -2.9856    4.2372 H         1 <0>         0.0714
     50 H16         1.9909   -4.1864    4.5347 H         1 <0>         0.0760
     51 H17         1.8231   -6.2175    3.0893 H         1 <0>         0.0699
     52 H18         2.9833   -6.4636    1.7620 H         1 <0>         0.0668
     53 H19         4.7796   -4.7780    1.3444 H         1 <0>         0.0736
     54 H20         4.8992   -3.3311    2.3741 H         1 <0>         0.0723
     55 H21         5.0881   -6.6715    2.5028 H         1 <0>         0.4001
     56 H22         5.6886   -6.9279    4.0508 H         1 <0>         0.4018
     57 H23         0.0052   -1.4501   -2.5343 H         1 <0>         0.0729
     58 H24        -0.4412    0.2683   -2.6605 H         1 <0>         0.0747
     59 H25        -0.9471   -0.8964   -4.3181 H         1 <0>         0.1389
     60 H26        -1.5254   -1.2211   -6.6878 H         1 <0>         0.1358
     61 H27         2.4940   -0.2779   -7.7968 H         1 <0>         0.1388
     62 H28         3.0688    0.0551   -5.4273 H         1 <0>         0.1430
     63 H29         2.0113   -0.5592   -9.7775 H         1 <0>         0.1782
     64 H30         0.6074   -1.0747  -11.9333 H         1 <0>         0.1754
     65 H31        -1.9866   -1.4872   -8.6518 H         1 <0>         0.2076
     66 H32        -1.7894   -0.6621   -1.4113 H         1 <0>         0.0708
     67 H33        -1.0000   -2.1206   -0.7648 H         1 <0>         0.0614
     68 H34        -2.1374   -1.2006    0.2492 H         1 <0>         0.0720
@<TRIPOS>BOND
     1    1    2 1
     2    1   35 1
     3    1   36 1
     4    1   37 1
     5    2    6 1
     6    2    3 1
     7    2   34 1
     8    3    4 1
     9    3   21 1
    10    3   38 1
    11    4    5 1
    12    4   39 1
    13    4   40 1
    14    5    6 am
    15    5    8 1
    16    6    7 2
    17    8   13 1
    18    8    9 1
    19    8   41 1
    20    9   17 1
    21    9   10 1
    22    9   42 1
    23   10   11 1
    24   10   43 1
    25   10   44 1
    26   11   16 1
    27   11   12 1
    28   11   45 1
    29   12   13 1
    30   12   46 1
    31   12   47 1
    32   13   14 1
    33   13   48 1
    34   14   15 1
    35   14   49 1
    36   14   50 1
    37   15   16 1
    38   15   17 1
    39   15   18 1
    40   16   51 1
    41   16   52 1
    42   17   53 1
    43   17   54 1
    44   18   19 2
    45   18   20 am
    46   20   55 1
    47   20   56 1
    48   21   22 1
    49   21   57 1
    50   21   58 1
    51   22   23 1
    52   23   28 ar
    53   23   24 ar
    54   24   25 ar
    55   24   59 1
    56   25   26 ar
    57   25   60 1
    58   26   27 ar
    59   26   29 1
    60   27   28 ar
    61   27   61 1
    62   28   62 1
    63   29   33 1
    64   29   30 1
    65   30   31 2
    66   30   63 1
    67   31   32 1
    68   31   64 1
    69   32   33 2
    70   33   65 1
    71   34   66 1
    72   34   67 1
    73   34   68 1
@<TRIPOS>MOLECULE
CHEMBL385777
   67    72     0     0     0
SMALL
USER_CHARGES

@<TRIPOS>ATOM
      1 C1         -0.7070    1.1317    0.3700 C.3       1 <0>        -0.1407
      2 C2         -0.2113   -0.2680    0.0012 C.3       1 <0>        -0.0866
      3 C3          0.9183   -0.1822   -1.0513 C.3       1 <0>        -0.0930
      4 C4          1.8481   -1.3341   -0.6099 C.3       1 <0>         0.1032
      5 N1          1.5956   -1.5135    0.8246 N.am      1 <0>        -0.6099
      6 C5          0.4426   -0.9295    1.1942 C.2       1 <0>         0.5260
      7 O1         -0.0076   -0.9322    2.3204 O.2       1 <0>        -0.5145
      8 C6          2.4857   -2.2361    1.7367 C.3       1 <0>         0.1703
      9 C7          3.2824   -3.2798    0.9514 C.3       1 <0>        -0.0908
     10 C8          2.3178   -4.2671    0.2913 C.3       1 <0>        -0.1119
     11 C9          1.4861   -4.9653    1.3690 C.3       1 <0>        -0.0846
     12 C10         0.6893   -3.9216    2.1543 C.3       1 <0>        -0.1005
     13 C11         1.6539   -2.9343    2.8144 C.3       1 <0>        -0.1037
     14 C12         2.5835   -3.6890    3.7669 C.3       1 <0>        -0.0858
     15 C13         3.3802   -4.7327    2.9816 C.3       1 <0>        -0.0739
     16 C14         2.4156   -5.7200    2.3215 C.3       1 <0>        -0.0992
     17 C15         4.2120   -4.0345    1.9038 C.3       1 <0>        -0.0968
     18 C16         4.2958   -5.4760    3.9198 C.2       1 <0>         0.5261
     19 O2          4.3097   -5.1984    5.1003 O.2       1 <0>        -0.5379
     20 N2          5.0992   -6.4494    3.4469 N.am      1 <0>        -0.8553
     21 C17         1.6395    1.1648   -0.9718 C.3       1 <0>         0.0625
     22 O3          2.5959    1.2562   -2.0296 O.3       1 <0>        -0.3079
     23 C18         3.3279    2.3993   -2.1027 C.ar      1 <0>         0.1336
     24 C19         3.1326    3.4087   -1.1711 C.ar      1 <0>        -0.1861
     25 C20         3.8762    4.5696   -1.2446 C.ar      1 <0>        -0.0669
     26 C21         4.8195    4.7269   -2.2510 C.ar      1 <0>         0.1085
     27 C22         5.0146    3.7166   -3.1830 C.ar      1 <0>        -0.0908
     28 C23         4.2743    2.5538   -3.1055 C.ar      1 <0>        -0.1243
     29 N3          5.5751    5.9067   -2.3265 N.pl3     1 <0>        -0.3258
     30 C24         6.5167    6.2055   -3.2420 C.2       1 <0>         0.2581
     31 N4          6.9850    7.3964   -2.9678 N.2       1 <0>        -0.5364
     32 C25         6.3714    7.8869   -1.8916 C.2       1 <0>         0.2077
     33 N5          5.4958    7.0139   -1.4660 N.2       1 <0>        -0.3164
     34 C26        -1.3677   -1.1244   -0.5188 C.3       1 <0>        -0.1312
     35 H1          0.1316    1.7337    0.7198 H         1 <0>         0.0593
     36 H2         -1.1515    1.6025   -0.5069 H         1 <0>         0.0705
     37 H3         -1.4544    1.0561    1.1598 H         1 <0>         0.0734
     38 H4          0.5304   -0.3566   -2.0549 H         1 <0>         0.1130
     39 H5          1.6023   -2.2465   -1.1532 H         1 <0>         0.0817
     40 H6          2.8904   -1.0632   -0.7784 H         1 <0>         0.0856
     41 H7          3.1729   -1.5327    2.2069 H         1 <0>         0.0715
     42 H8          3.8750   -2.7823    0.1836 H         1 <0>         0.0810
     43 H9          1.6556   -3.7294   -0.3873 H         1 <0>         0.0705
     44 H10         2.8854   -5.0106   -0.2682 H         1 <0>         0.0667
     45 H11         0.7989   -5.6687    0.8988 H         1 <0>         0.0752
     46 H12         0.0271   -3.3840    1.4758 H         1 <0>         0.0612
     47 H13         0.0967   -4.4191    2.9221 H         1 <0>         0.0638
     48 H14         1.0863   -2.1908    3.3739 H         1 <0>         0.1098
     49 H15         3.2707   -2.9856    4.2372 H         1 <0>         0.0709
     50 H16         1.9909   -4.1864    4.5347 H         1 <0>         0.0758
     51 H17         1.8231   -6.2175    3.0893 H         1 <0>         0.0697
     52 H18         2.9833   -6.4636    1.7620 H         1 <0>         0.0669
     53 H19         4.7796   -4.7780    1.3444 H         1 <0>         0.0737
     54 H20         4.8992   -3.3311    2.3741 H         1 <0>         0.0717
     55 H21         5.0881   -6.6715    2.5028 H         1 <0>         0.4002
     56 H22         5.6886   -6.9279    4.0508 H         1 <0>         0.4017
     57 H23         0.9134    1.9720   -1.0677 H         1 <0>         0.0782
     58 H24         2.1501    1.2475   -0.0123 H         1 <0>         0.0670
     59 H25         2.3985    3.2864   -0.3884 H         1 <0>         0.1377
     60 H26         3.7238    5.3555   -0.5196 H         1 <0>         0.1419
     61 H27         5.7484    3.8385   -3.9661 H         1 <0>         0.1406
     62 H28         4.4289    1.7661   -3.8280 H         1 <0>         0.1457
     63 H29         6.8304    5.5730   -4.0593 H         1 <0>         0.2227
     64 H30         6.5636    8.8513   -1.4451 H         1 <0>         0.2238
     65 H31        -1.7894   -0.6621   -1.4113 H         1 <0>         0.0722
     66 H32        -1.0000   -2.1206   -0.7648 H         1 <0>         0.0612
     67 H33        -2.1374   -1.2006    0.2492 H         1 <0>         0.0700
@<TRIPOS>BOND
     1    1    2 1
     2    1   35 1
     3    1   36 1
     4    1   37 1
     5    2    6 1
     6    2    3 1
     7    2   34 1
     8    3    4 1
     9    3   21 1
    10    3   38 1
    11    4    5 1
    12    4   39 1
    13    4   40 1
    14    5    6 am
    15    5    8 1
    16    6    7 2
    17    8   13 1
    18    8    9 1
    19    8   41 1
    20    9   17 1
    21    9   10 1
    22    9   42 1
    23   10   11 1
    24   10   43 1
    25   10   44 1
    26   11   16 1
    27   11   12 1
    28   11   45 1
    29   12   13 1
    30   12   46 1
    31   12   47 1
    32   13   14 1
    33   13   48 1
    34   14   15 1
    35   14   49 1
    36   14   50 1
    37   15   16 1
    38   15   17 1
    39   15   18 1
    40   16   51 1
    41   16   52 1
    42   17   53 1
    43   17   54 1
    44   18   19 2
    45   18   20 am
    46   20   55 1
    47   20   56 1
    48   21   22 1
    49   21   57 1
    50   21   58 1
    51   22   23 1
    52   23   28 ar
    53   23   24 ar
    54   24   25 ar
    55   24   59 1
    56   25   26 ar
    57   25   60 1
    58   26   27 ar
    59   26   29 1
    60   27   28 ar
    61   27   61 1
    62   28   62 1
    63   29   33 1
    64   29   30 1
    65   30   31 2
    66   30   63 1
    67   31   32 1
    68   32   33 2
    69   32   64 1
    70   34   65 1
    71   34   66 1
    72   34   67 1
@<TRIPOS>MOLECULE
CHEMBL385777__1
   67    72     0     0     0
SMALL
USER_CHARGES

@<TRIPOS>ATOM
      1 C1         -0.7070    1.1317    0.3700 C.3       1 <0>        -0.1333
      2 C2         -0.2113   -0.2680    0.0012 C.3       1 <0>        -0.0868
      3 C3          0.9183   -0.1822   -1.0513 C.3       1 <0>        -0.0933
      4 C4          1.8481   -1.3341   -0.6099 C.3       1 <0>         0.1057
      5 N1          1.5956   -1.5135    0.8246 N.am      1 <0>        -0.6099
      6 C5          0.4426   -0.9295    1.1942 C.2       1 <0>         0.5296
      7 O1         -0.0076   -0.9322    2.3204 O.2       1 <0>        -0.5139
      8 C6          2.4857   -2.2361    1.7367 C.3       1 <0>         0.1698
      9 C7          3.2824   -3.2798    0.9514 C.3       1 <0>        -0.0909
     10 C8          2.3178   -4.2671    0.2913 C.3       1 <0>        -0.1118
     11 C9          1.4861   -4.9653    1.3690 C.3       1 <0>        -0.0848
     12 C10         0.6893   -3.9216    2.1543 C.3       1 <0>        -0.1005
     13 C11         1.6539   -2.9343    2.8144 C.3       1 <0>        -0.1038
     14 C12         2.5835   -3.6890    3.7669 C.3       1 <0>        -0.0857
     15 C13         3.3802   -4.7327    2.9816 C.3       1 <0>        -0.0740
     16 C14         2.4156   -5.7200    2.3215 C.3       1 <0>        -0.0992
     17 C15         4.2120   -4.0345    1.9038 C.3       1 <0>        -0.0967
     18 C16         4.2958   -5.4760    3.9198 C.2       1 <0>         0.5262
     19 O2          4.3097   -5.1984    5.1003 O.2       1 <0>        -0.5378
     20 N2          5.0992   -6.4494    3.4469 N.am      1 <0>        -0.8553
     21 C17         0.3739   -0.4271   -2.4600 C.3       1 <0>         0.0682
     22 O3          1.4173   -0.2262   -3.4155 O.3       1 <0>        -0.3081
     23 C18         1.0981   -0.4052   -4.7247 C.ar      1 <0>         0.1335
     24 C19        -0.1947   -0.7613   -5.0809 C.ar      1 <0>        -0.1867
     25 C20        -0.5195   -0.9428   -6.4104 C.ar      1 <0>        -0.0673
     26 C21         0.4478   -0.7691   -7.3910 C.ar      1 <0>         0.1084
     27 C22         1.7413   -0.4128   -7.0341 C.ar      1 <0>        -0.0907
     28 C23         2.0638   -0.2263   -5.7047 C.ar      1 <0>        -0.1242
     29 N3          0.1184   -0.9539   -8.7422 N.pl3     1 <0>        -0.3259
     30 C24         0.9437   -0.8277   -9.7992 C.2       1 <0>         0.2583
     31 N4          0.2559   -1.0827  -10.8830 N.2       1 <0>        -0.5364
     32 C25        -1.0039   -1.3737  -10.5612 C.2       1 <0>         0.2078
     33 N5         -1.1360   -1.3133   -9.2616 N.2       1 <0>        -0.3166
     34 C26        -1.3677   -1.1244   -0.5188 C.3       1 <0>        -0.1401
     35 H1          0.1316    1.7337    0.7198 H         1 <0>         0.0612
     36 H2         -1.1515    1.6025   -0.5069 H         1 <0>         0.0670
     37 H3         -1.4544    1.0561    1.1598 H         1 <0>         0.0717
     38 H4          1.4321    0.7774   -0.9946 H         1 <0>         0.1067
     39 H5          1.6023   -2.2465   -1.1532 H         1 <0>         0.0777
     40 H6          2.8904   -1.0632   -0.7784 H         1 <0>         0.0848
     41 H7          3.1729   -1.5327    2.2069 H         1 <0>         0.0730
     42 H8          3.8750   -2.7823    0.1836 H         1 <0>         0.0813
     43 H9          1.6556   -3.7294   -0.3873 H         1 <0>         0.0693
     44 H10         2.8854   -5.0106   -0.2682 H         1 <0>         0.0665
     45 H11         0.7989   -5.6687    0.8988 H         1 <0>         0.0748
     46 H12         0.0271   -3.3840    1.4758 H         1 <0>         0.0606
     47 H13         0.0967   -4.4191    2.9221 H         1 <0>         0.0640
     48 H14         1.0863   -2.1908    3.3739 H         1 <0>         0.1102
     49 H15         3.2707   -2.9856    4.2372 H         1 <0>         0.0714
     50 H16         1.9909   -4.1864    4.5347 H         1 <0>         0.0759
     51 H17         1.8231   -6.2175    3.0893 H         1 <0>         0.0698
     52 H18         2.9833   -6.4636    1.7620 H         1 <0>         0.0668
     53 H19         4.7796   -4.7780    1.3444 H         1 <0>         0.0735
     54 H20         4.8992   -3.3311    2.3741 H         1 <0>         0.0723
     55 H21         5.0881   -6.6715    2.5028 H         1 <0>         0.4001
     56 H22         5.6886   -6.9279    4.0508 H         1 <0>         0.4018
     57 H23         0.0052   -1.4501   -2.5343 H         1 <0>         0.0732
     58 H24        -0.4412    0.2683   -2.6605 H         1 <0>         0.0751
     59 H25        -0.9471   -0.8968   -4.3179 H         1 <0>         0.1387
     60 H26        -1.5258   -1.2203   -6.6876 H         1 <0>         0.1419
     61 H27         2.4941   -0.2775   -7.7966 H         1 <0>         0.1404
     62 H28         3.0690    0.0548   -5.4272 H         1 <0>         0.1456
     63 H29         1.9899   -0.5626   -9.7593 H         1 <0>         0.2226
     64 H30        -1.7883   -1.6230  -11.2605 H         1 <0>         0.2238
     65 H31        -1.7894   -0.6621   -1.4113 H         1 <0>         0.0710
     66 H32        -1.0000   -2.1206   -0.7648 H         1 <0>         0.0614
     67 H33        -2.1374   -1.2006    0.2492 H         1 <0>         0.0720
@<TRIPOS>BOND
     1    1    2 1
     2    1   35 1
     3    1   36 1
     4    1   37 1
     5    2    6 1
     6    2    3 1
     7    2   34 1
     8    3    4 1
     9    3   21 1
    10    3   38 1
    11    4    5 1
    12    4   39 1
    13    4   40 1
    14    5    6 am
    15    5    8 1
    16    6    7 2
    17    8   13 1
    18    8    9 1
    19    8   41 1
    20    9   17 1
    21    9   10 1
    22    9   42 1
    23   10   11 1
    24   10   43 1
    25   10   44 1
    26   11   16 1
    27   11   12 1
    28   11   45 1
    29   12   13 1
    30   12   46 1
    31   12   47 1
    32   13   14 1
    33   13   48 1
    34   14   15 1
    35   14   49 1
    36   14   50 1
    37   15   16 1
    38   15   17 1
    39   15   18 1
    40   16   51 1
    41   16   52 1
    42   17   53 1
    43   17   54 1
    44   18   19 2
    45   18   20 am
    46   20   55 1
    47   20   56 1
    48   21   22 1
    49   21   57 1
    50   21   58 1
    51   22   23 1
    52   23   28 ar
    53   23   24 ar
    54   24   25 ar
    55   24   59 1
    56   25   26 ar
    57   25   60 1
    58   26   27 ar
    59   26   29 1
    60   27   28 ar
    61   27   61 1
    62   28   62 1
    63   29   33 1
    64   29   30 1
    65   30   31 2
    66   30   63 1
    67   31   32 1
    68   32   33 2
    69   32   64 1
    70   34   65 1
    71   34   66 1
    72   34   67 1
@<TRIPOS>MOLECULE
CHEMBL372179
   66    71     0     0     0
SMALL
USER_CHARGES

@<TRIPOS>ATOM
      1 C1         -1.6490    0.8550   -0.1445 C.3       1 <0>         0.0610
      2 N1         -0.7141   -0.2702   -0.0659 N.pl3     1 <0>        -0.4626
      3 C2         -0.0558   -0.8707   -1.1047 C.2       1 <0>         0.1886
      4 N2          0.6780   -1.8320   -0.5898 N.2       1 <0>        -0.2499
      5 N3          0.5178   -1.8643    0.6852 N.2       1 <0>        -0.2779
      6 C3         -0.3164   -0.9302    1.0557 C.2       1 <0>         0.2002
      7 C4         -0.7597   -0.6387    2.4663 C.3       1 <0>         0.0305
      8 C5         -0.5519    0.8465    2.7695 C.3       1 <0>        -0.1117
      9 C6         -1.0019    1.1424    4.2016 C.3       1 <0>        -0.1115
     10 C7         -1.5097   -0.1455    4.8531 C.3       1 <0>         0.0299
     11 C8         -0.3854   -1.1830    4.8759 C.3       1 <0>        -0.1041
     12 C9          0.0646   -1.4789    3.4438 C.3       1 <0>        -0.0928
     13 C10        -2.6916   -0.6918    4.0497 C.3       1 <0>        -0.1008
     14 C11        -2.2416   -0.9877    2.6176 C.3       1 <0>        -0.1069
     15 C12        -1.9529    0.1460    6.2636 C.2       1 <0>         0.3080
     16 N4         -2.4340   -0.7238    7.1053 N.2       1 <0>        -0.5300
     17 C13        -2.7256   -0.1225    8.2727 C.2       1 <0>         0.2945
     18 N5         -2.4263    1.1492    8.1748 N.2       1 <0>        -0.3320
     19 O1         -1.9131    1.3419    6.8651 O.3       1 <0>        -0.0960
     20 C14        -3.2927   -0.7886    9.4717 C.ar      1 <0>        -0.0218
     21 C15        -3.5635   -2.1551    9.4498 C.ar      1 <0>        -0.0617
     22 C16        -4.0909   -2.7695   10.5676 C.ar      1 <0>        -0.0937
     23 C17        -4.3510   -2.0310   11.7079 C.ar      1 <0>        -0.1178
     24 C18        -4.0840   -0.6741   11.7350 C.ar      1 <0>        -0.0980
     25 C19        -3.5508   -0.0508   10.6250 C.ar      1 <0>        -0.0727
     26 C20        -4.9277   -2.7072   12.9249 C.3       1 <0>         0.1178
     27 C21        -6.4501   -2.5549   12.9196 C.3       1 <0>         0.4225
     28 F1         -6.9739   -3.1466   11.7651 F         1 <0>        -0.1741
     29 F2         -6.9856   -3.1826   14.0494 F         1 <0>        -0.1719
     30 F3         -6.7829   -1.1962   12.9392 F         1 <0>        -0.1801
     31 O2         -4.3927   -2.1027   14.1041 O.3       1 <0>        -0.5200
     32 C22        -0.1518   -0.5069   -2.5355 C.ar      1 <0>         0.0330
     33 C23        -0.0249    0.8257   -2.9296 C.ar      1 <0>        -0.1018
     34 C24        -0.1155    1.1584   -4.2653 C.ar      1 <0>        -0.0845
     35 C25        -0.3317    0.1741   -5.2134 C.ar      1 <0>        -0.1042
     36 C26        -0.4583   -1.1487   -4.8292 C.ar      1 <0>        -0.0703
     37 C27        -0.3639   -1.4952   -3.4968 C.ar      1 <0>        -0.1465
     38 C28        -0.4958   -2.9376   -3.0805 C.3       1 <0>         0.5043
     39 F4         -0.7015   -3.7329   -4.2129 F         1 <0>        -0.1792
     40 F5          0.6747   -3.3445   -2.4312 F         1 <0>        -0.1483
     41 F6         -1.5832   -3.0744   -2.2109 F         1 <0>        -0.1789
     42 H1         -1.1096    1.7878    0.0200 H         1 <0>         0.0886
     43 H2         -2.1138    0.8730   -1.1303 H         1 <0>         0.0945
     44 H3         -2.4193    0.7413    0.6183 H         1 <0>         0.0983
     45 H4          0.5038    1.0952    2.6617 H         1 <0>         0.0788
     46 H5         -1.1391    1.4451    2.0731 H         1 <0>         0.0727
     47 H6         -0.1599    1.5316    4.7739 H         1 <0>         0.0821
     48 H7         -1.8029    1.8816    4.1853 H         1 <0>         0.0803
     49 H8          0.4566   -0.7938    5.4482 H         1 <0>         0.0750
     50 H9         -0.7471   -2.1005    5.3400 H         1 <0>         0.0872
     51 H10        -0.0834   -2.5370    3.2278 H         1 <0>         0.0862
     52 H11         1.1203   -1.2303    3.3360 H         1 <0>         0.0808
     53 H12        -3.0533   -1.6093    4.5138 H         1 <0>         0.0886
     54 H13        -3.4925    0.0474    4.0334 H         1 <0>         0.0746
     55 H14        -2.8288   -0.3891    1.9212 H         1 <0>         0.0701
     56 H15        -2.3896   -2.0458    2.4016 H         1 <0>         0.0819
     57 H16        -3.3615   -2.7325    8.5598 H         1 <0>         0.1471
     58 H17        -4.3013   -3.8287   10.5517 H         1 <0>         0.1414
     59 H18        -4.2892   -0.1021   12.6278 H         1 <0>         0.1350
     60 H19        -3.3382    1.0078   10.6488 H         1 <0>         0.1392
     61 H20        -4.6684   -3.7658   12.9096 H         1 <0>         0.1552
     62 H21        -4.5853   -1.1585   14.1841 H         1 <0>         0.3875
     63 H22         0.1435    1.5949   -2.1905 H         1 <0>         0.1351
     64 H23        -0.0178    2.1895   -4.5716 H         1 <0>         0.1413
     65 H24        -0.4022    0.4397   -6.2579 H         1 <0>         0.1424
     66 H25        -0.6269   -1.9124   -5.5740 H         1 <0>         0.1474
@<TRIPOS>BOND
     1    1    2 1
     2    1   42 1
     3    1   43 1
     4    1   44 1
     5    2    6 1
     6    2    3 1
     7    3    4 2
     8    3   32 1
     9    4    5 1
    10    5    6 2
    11    6    7 1
    12    7   12 1
    13    7   14 1
    14    7    8 1
    15    8    9 1
    16    8   45 1
    17    8   46 1
    18    9   10 1
    19    9   47 1
    20    9   48 1
    21   10   11 1
    22   10   13 1
    23   10   15 1
    24   11   12 1
    25   11   49 1
    26   11   50 1
    27   12   51 1
    28   12   52 1
    29   13   14 1
    30   13   53 1
    31   13   54 1
    32   14   55 1
    33   14   56 1
    34   15   19 1
    35   15   16 2
    36   16   17 1
    37   17   18 2
    38   17   20 1
    39   18   19 1
    40   20   25 ar
    41   20   21 ar
    42   21   22 ar
    43   21   57 1
    44   22   23 ar
    45   22   58 1
    46   23   24 ar
    47   23   26 1
    48   24   25 ar
    49   24   59 1
    50   25   60 1
    51   26   27 1
    52   26   31 1
    53   26   61 1
    54   27   28 1
    55   27   29 1
    56   27   30 1
    57   31   62 1
    58   32   37 ar
    59   32   33 ar
    60   33   34 ar
    61   33   63 1
    62   34   35 ar
    63   34   64 1
    64   35   36 ar
    65   35   65 1
    66   36   37 ar
    67   36   66 1
    68   37   38 1
    69   38   39 1
    70   38   40 1
    71   38   41 1
@<TRIPOS>MOLECULE
CHEMBL372179__1
   66    71     0     0     0
SMALL
USER_CHARGES

@<TRIPOS>ATOM
      1 C1         -1.6490    0.8550   -0.1445 C.3       1 <0>         0.0610
      2 N1         -0.7141   -0.2702   -0.0659 N.pl3     1 <0>        -0.4626
      3 C2         -0.0558   -0.8707   -1.1047 C.2       1 <0>         0.1886
      4 N2          0.6780   -1.8320   -0.5898 N.2       1 <0>        -0.2499
      5 N3          0.5178   -1.8643    0.6852 N.2       1 <0>        -0.2779
      6 C3         -0.3164   -0.9302    1.0557 C.2       1 <0>         0.2002
      7 C4         -0.7597   -0.6387    2.4663 C.3       1 <0>         0.0306
      8 C5         -0.5519    0.8465    2.7695 C.3       1 <0>        -0.1117
      9 C6         -1.0019    1.1424    4.2016 C.3       1 <0>        -0.1115
     10 C7         -1.5097   -0.1455    4.8531 C.3       1 <0>         0.0299
     11 C8         -0.3854   -1.1830    4.8759 C.3       1 <0>        -0.1043
     12 C9          0.0646   -1.4789    3.4438 C.3       1 <0>        -0.0928
     13 C10        -2.6916   -0.6918    4.0497 C.3       1 <0>        -0.1006
     14 C11        -2.2416   -0.9877    2.6176 C.3       1 <0>        -0.1069
     15 C12        -1.9529    0.1460    6.2636 C.2       1 <0>         0.3080
     16 N4         -2.4340   -0.7238    7.1053 N.2       1 <0>        -0.5300
     17 C13        -2.7256   -0.1225    8.2727 C.2       1 <0>         0.2944
     18 N5         -2.4263    1.1492    8.1748 N.2       1 <0>        -0.3320
     19 O1         -1.9131    1.3419    6.8651 O.3       1 <0>        -0.0960
     20 C14        -3.2927   -0.7886    9.4717 C.ar      1 <0>        -0.0215
     21 C15        -3.5635   -2.1551    9.4498 C.ar      1 <0>        -0.0619
     22 C16        -4.0909   -2.7695   10.5676 C.ar      1 <0>        -0.0928
     23 C17        -4.3510   -2.0310   11.7079 C.ar      1 <0>        -0.1178
     24 C18        -4.0840   -0.6741   11.7350 C.ar      1 <0>        -0.0989
     25 C19        -3.5508   -0.0508   10.6250 C.ar      1 <0>        -0.0727
     26 C20        -4.9277   -2.7072   12.9249 C.3       1 <0>         0.1178
     27 C21        -3.8097   -2.9854   13.9317 C.3       1 <0>         0.4224
     28 F1         -3.2107   -1.7786   14.3086 F         1 <0>        -0.1803
     29 F2         -4.3452   -3.6131   15.0615 F         1 <0>        -0.1720
     30 F3         -2.8511   -3.8188   13.3455 F         1 <0>        -0.1738
     31 O2         -5.9069   -1.8559   13.5237 O.3       1 <0>        -0.5200
     32 C22        -0.1518   -0.5069   -2.5355 C.ar      1 <0>         0.0330
     33 C23        -0.0249    0.8257   -2.9296 C.ar      1 <0>        -0.1018
     34 C24        -0.1155    1.1584   -4.2653 C.ar      1 <0>        -0.0845
     35 C25        -0.3317    0.1741   -5.2134 C.ar      1 <0>        -0.1042
     36 C26        -0.4583   -1.1487   -4.8292 C.ar      1 <0>        -0.0703
     37 C27        -0.3639   -1.4952   -3.4968 C.ar      1 <0>        -0.1465
     38 C28        -0.4958   -2.9376   -3.0805 C.3       1 <0>         0.5043
     39 F4         -0.7015   -3.7329   -4.2129 F         1 <0>        -0.1792
     40 F5          0.6747   -3.3445   -2.4312 F         1 <0>        -0.1482
     41 F6         -1.5832   -3.0744   -2.2109 F         1 <0>        -0.1790
     42 H1         -1.1096    1.7878    0.0200 H         1 <0>         0.0886
     43 H2         -2.1138    0.8730   -1.1303 H         1 <0>         0.0945
     44 H3         -2.4193    0.7413    0.6183 H         1 <0>         0.0983
     45 H4          0.5038    1.0952    2.6617 H         1 <0>         0.0788
     46 H5         -1.1391    1.4451    2.0731 H         1 <0>         0.0727
     47 H6         -0.1599    1.5316    4.7739 H         1 <0>         0.0821
     48 H7         -1.8029    1.8816    4.1853 H         1 <0>         0.0804
     49 H8          0.4566   -0.7938    5.4482 H         1 <0>         0.0750
     50 H9         -0.7471   -2.1005    5.3400 H         1 <0>         0.0872
     51 H10        -0.0834   -2.5370    3.2278 H         1 <0>         0.0862
     52 H11         1.1203   -1.2303    3.3360 H         1 <0>         0.0808
     53 H12        -3.0533   -1.6093    4.5138 H         1 <0>         0.0886
     54 H13        -3.4925    0.0474    4.0334 H         1 <0>         0.0746
     55 H14        -2.8288   -0.3891    1.9212 H         1 <0>         0.0701
     56 H15        -2.3896   -2.0458    2.4016 H         1 <0>         0.0819
     57 H16        -3.3615   -2.7325    8.5598 H         1 <0>         0.1472
     58 H17        -4.3013   -3.8287   10.5517 H         1 <0>         0.1414
     59 H18        -4.2892   -0.1021   12.6278 H         1 <0>         0.1352
     60 H19        -3.3382    1.0078   10.6488 H         1 <0>         0.1392
     61 H20        -5.3945   -3.6474   12.6313 H         1 <0>         0.1547
     62 H21        -5.5612   -0.9994   13.8100 H         1 <0>         0.3875
     63 H22         0.1435    1.5949   -2.1905 H         1 <0>         0.1351
     64 H23        -0.0178    2.1895   -4.5716 H         1 <0>         0.1413
     65 H24        -0.4022    0.4397   -6.2579 H         1 <0>         0.1424
     66 H25        -0.6269   -1.9124   -5.5740 H         1 <0>         0.1474
@<TRIPOS>BOND
     1    1    2 1
     2    1   42 1
     3    1   43 1
     4    1   44 1
     5    2    6 1
     6    2    3 1
     7    3    4 2
     8    3   32 1
     9    4    5 1
    10    5    6 2
    11    6    7 1
    12    7   12 1
    13    7   14 1
    14    7    8 1
    15    8    9 1
    16    8   45 1
    17    8   46 1
    18    9   10 1
    19    9   47 1
    20    9   48 1
    21   10   11 1
    22   10   13 1
    23   10   15 1
    24   11   12 1
    25   11   49 1
    26   11   50 1
    27   12   51 1
    28   12   52 1
    29   13   14 1
    30   13   53 1
    31   13   54 1
    32   14   55 1
    33   14   56 1
    34   15   19 1
    35   15   16 2
    36   16   17 1
    37   17   18 2
    38   17   20 1
    39   18   19 1
    40   20   25 ar
    41   20   21 ar
    42   21   22 ar
    43   21   57 1
    44   22   23 ar
    45   22   58 1
    46   23   24 ar
    47   23   26 1
    48   24   25 ar
    49   24   59 1
    50   25   60 1
    51   26   27 1
    52   26   31 1
    53   26   61 1
    54   27   28 1
    55   27   29 1
    56   27   30 1
    57   31   62 1
    58   32   37 ar
    59   32   33 ar
    60   33   34 ar
    61   33   63 1
    62   34   35 ar
    63   34   64 1
    64   35   36 ar
    65   35   65 1
    66   36   37 ar
    67   36   66 1
    68   37   38 1
    69   38   39 1
    70   38   40 1
    71   38   41 1
@<TRIPOS>MOLECULE
CHEMBL375341
   50    53     0     0     0
SMALL
USER_CHARGES

@<TRIPOS>ATOM
      1 C1         -0.0189    1.5417    0.0105 C.3       1 <0>        -0.1397
      2 C2          1.4619    1.9641   -0.0014 C.3       1 <0>        -0.0031
      3 N1          2.2665    0.7239   -0.0459 N.4       1 <0>        -0.3777
      4 C3          1.4126   -0.3345    0.5515 C.3       1 <0>         0.0004
      5 C4          0.0021   -0.0041    0.0020 C.3       1 <0>        -0.1652
      6 H1         -0.1160   -0.3858   -1.0121 H         1 <0>         0.1543
      7 C5         -1.0830   -0.5653    0.9232 C.3       1 <0>         0.4704
      8 F1         -2.3402   -0.1553    0.4667 F         1 <0>        -0.1629
      9 F2         -1.0192   -1.9629    0.9214 F         1 <0>        -0.1693
     10 F3         -0.8817   -0.0910    2.2238 F         1 <0>        -0.1743
     11 C6          3.4951    0.8885    0.7424 C.3       1 <0>        -0.0299
     12 C7          4.3800    1.9159    0.0848 C.2       1 <0>         0.5002
     13 O1          4.0225    2.4576   -0.9396 O.2       1 <0>        -0.5252
     14 N2          5.5688    2.2327    0.6352 N.am      1 <0>        -0.6952
     15 C8          6.4291    3.2315   -0.0040 C.3       1 <0>         0.1534
     16 C9          7.2753    2.5580   -1.0862 C.3       1 <0>        -0.0903
     17 C10         8.1426    1.4691   -0.4514 C.3       1 <0>        -0.1103
     18 C11         9.0622    2.0968    0.5980 C.3       1 <0>        -0.0863
     19 C12         8.2160    2.7703    1.6802 C.3       1 <0>        -0.1141
     20 C13         7.3486    3.8591    1.0454 C.3       1 <0>        -0.0899
     21 C14         8.2471    4.9022    0.3778 C.3       1 <0>        -0.0985
     22 C15         9.0933    4.2287   -0.7044 C.3       1 <0>         0.1347
     23 C16         9.9606    3.1399   -0.0696 C.3       1 <0>        -0.1416
     24 C17         8.1737    3.6011   -1.7538 C.3       1 <0>        -0.1383
     25 O2          9.9324    5.2030   -1.3280 O.3       1 <0>        -0.5569
     26 H2         -0.5097    1.9085    0.9120 H         1 <0>         0.1170
     27 H3         -0.5268    1.9181   -0.8775 H         1 <0>         0.1254
     28 H4          1.6676    2.5720   -0.8824 H         1 <0>         0.1518
     29 H5          1.6951    2.5257    0.9033 H         1 <0>         0.1342
     30 H6          1.7337   -1.3214    0.2185 H         1 <0>         0.1565
     31 H7          1.4261   -0.2711    1.6395 H         1 <0>         0.1494
     32 H8          3.2393    1.2200    1.7488 H         1 <0>         0.1617
     33 H9          4.0224   -0.0639    0.7966 H         1 <0>         0.1626
     34 H10         5.8548    1.7994    1.4546 H         1 <0>         0.4094
     35 H11         5.8111    4.0072   -0.4562 H         1 <0>         0.0997
     36 H12         6.6202    2.1108   -1.8339 H         1 <0>         0.0780
     37 H13         7.5026    0.7260    0.0242 H         1 <0>         0.0598
     38 H14         8.7455    0.9893   -1.2225 H         1 <0>         0.0705
     39 H15         9.6801    1.3211    1.0502 H         1 <0>         0.0803
     40 H16         7.5759    2.0272    2.1558 H         1 <0>         0.0603
     41 H17         8.8711    3.2174    2.4279 H         1 <0>         0.0782
     42 H18         6.7458    4.3389    1.8164 H         1 <0>         0.0874
     43 H19         7.6291    5.6779   -0.0744 H         1 <0>         0.0758
     44 H20         8.9022    5.3494    1.1255 H         1 <0>         0.0827
     45 H21        10.6158    3.5871    0.6780 H         1 <0>         0.0762
     46 H22        10.5635    2.6601   -0.8406 H         1 <0>         0.0693
     47 H23         8.7766    3.1213   -2.5249 H         1 <0>         0.0740
     48 H24         7.5558    4.3768   -2.2061 H         1 <0>         0.0756
     49 H25        10.4982    4.8457   -2.0261 H         1 <0>         0.3809
     50 H26         2.4931    0.4903   -1.0010 H         1 <0>         0.4385
@<TRIPOS>BOND
     1    1    5 1
     2    1    2 1
     3    1   26 1
     4    1   27 1
     5    2    3 1
     6    2   28 1
     7    2   29 1
     8    3    4 1
     9    3   11 1
    10    3   50 1
    11    4    5 1
    12    4   30 1
    13    4   31 1
    14    5    6 1
    15    5    7 1
    16    7    8 1
    17    7    9 1
    18    7   10 1
    19   11   12 1
    20   11   32 1
    21   11   33 1
    22   12   13 2
    23   12   14 am
    24   14   15 1
    25   14   34 1
    26   15   20 1
    27   15   16 1
    28   15   35 1
    29   16   24 1
    30   16   17 1
    31   16   36 1
    32   17   18 1
    33   17   37 1
    34   17   38 1
    35   18   23 1
    36   18   19 1
    37   18   39 1
    38   19   20 1
    39   19   40 1
    40   19   41 1
    41   20   21 1
    42   20   42 1
    43   21   22 1
    44   21   43 1
    45   21   44 1
    46   22   23 1
    47   22   24 1
    48   22   25 1
    49   23   45 1
    50   23   46 1
    51   24   47 1
    52   24   48 1
    53   25   49 1
@<TRIPOS>MOLECULE
CHEMBL375341__1
   49    52     0     0     0
SMALL
USER_CHARGES

@<TRIPOS>ATOM
      1 C1         -0.0189    1.5417    0.0105 C.3       1 <0>        -0.1259
      2 C2          1.4619    1.9641   -0.0014 C.3       1 <0>         0.0411
      3 N1          2.2665    0.7239   -0.0459 N.3       1 <0>        -0.4929
      4 C3          1.4126   -0.3345    0.5515 C.3       1 <0>         0.0409
      5 C4          0.0021   -0.0041    0.0020 C.3       1 <0>        -0.1412
      6 H1         -0.1160   -0.3858   -1.0121 H         1 <0>         0.1316
      7 C5         -1.0830   -0.5653    0.9232 C.3       1 <0>         0.4595
      8 F1         -2.3402   -0.1553    0.4667 F         1 <0>        -0.1795
      9 F2         -1.0192   -1.9629    0.9214 F         1 <0>        -0.1807
     10 F3         -0.8817   -0.0910    2.2238 F         1 <0>        -0.1825
     11 C6          3.5169    0.8801    0.7092 C.3       1 <0>         0.0249
     12 C7          4.4306    1.8288   -0.0229 C.2       1 <0>         0.5152
     13 O1          4.0753    2.3259   -1.0706 O.2       1 <0>        -0.5164
     14 N2          5.6428    2.1249    0.4866 N.am      1 <0>        -0.7270
     15 C8          6.5311    3.0472   -0.2251 C.3       1 <0>         0.1585
     16 C9          7.3258    2.2767   -1.2815 C.3       1 <0>        -0.0924
     17 C10         8.1593    1.1895   -0.6002 C.3       1 <0>        -0.1088
     18 C11         9.1258    1.8360    0.3942 C.3       1 <0>        -0.0846
     19 C12         8.3312    2.6064    1.4505 C.3       1 <0>        -0.1123
     20 C13         7.4977    3.6936    0.7692 C.3       1 <0>        -0.0902
     21 C14         8.4254    4.6568    0.0260 C.3       1 <0>        -0.0957
     22 C15         9.2201    3.8864   -1.0304 C.3       1 <0>         0.1346
     23 C16        10.0536    2.7992   -0.3491 C.3       1 <0>        -0.1375
     24 C17         8.2535    3.2399   -2.0247 C.3       1 <0>        -0.1359
     25 O2         10.0866    4.7860   -1.7246 O.3       1 <0>        -0.5601
     26 H2         -0.5097    1.9085    0.9120 H         1 <0>         0.0801
     27 H3         -0.5268    1.9181   -0.8775 H         1 <0>         0.0917
     28 H4          1.6676    2.5720   -0.8824 H         1 <0>         0.1000
     29 H5          1.6951    2.5257    0.9033 H         1 <0>         0.0487
     30 H6          1.7337   -1.3214    0.2185 H         1 <0>         0.1009
     31 H7          1.4261   -0.2711    1.6395 H         1 <0>         0.0616
     32 H8          3.2960    1.2795    1.6990 H         1 <0>         0.0695
     33 H9          4.0045   -0.0896    0.8091 H         1 <0>         0.1078
     34 H10         5.9270    1.7273    1.3245 H         1 <0>         0.3984
     35 H11         5.9373    3.8217   -0.7105 H         1 <0>         0.0901
     36 H12         6.6371    1.8162   -1.9899 H         1 <0>         0.0800
     37 H13         7.4983    0.5033   -0.0707 H         1 <0>         0.0646
     38 H14         8.7254    0.6407   -1.3527 H         1 <0>         0.0645
     39 H15         9.7197    1.0614    0.8795 H         1 <0>         0.0756
     40 H16         7.6702    1.9202    1.9800 H         1 <0>         0.0634
     41 H17         9.0198    3.0669    2.1589 H         1 <0>         0.0710
     42 H18         6.9315    4.2425    1.5218 H         1 <0>         0.0839
     43 H19         7.8316    5.4313   -0.4594 H         1 <0>         0.0733
     44 H20         9.1140    5.1173    0.7343 H         1 <0>         0.0762
     45 H21        10.7422    3.2597    0.3593 H         1 <0>         0.0714
     46 H22        10.6197    2.2503   -1.1017 H         1 <0>         0.0657
     47 H23         8.8196    2.6911   -2.7773 H         1 <0>         0.0686
     48 H24         7.6597    4.0145   -2.5101 H         1 <0>         0.0733
     49 H25        10.6223    4.3651   -2.4108 H         1 <0>         0.3771
@<TRIPOS>BOND
     1    1    5 1
     2    1    2 1
     3    1   26 1
     4    1   27 1
     5    2    3 1
     6    2   28 1
     7    2   29 1
     8    3    4 1
     9    3   11 1
    10    4    5 1
    11    4   30 1
    12    4   31 1
    13    5    6 1
    14    5    7 1
    15    7    8 1
    16    7    9 1
    17    7   10 1
    18   11   12 1
    19   11   32 1
    20   11   33 1
    21   12   13 2
    22   12   14 am
    23   14   15 1
    24   14   34 1
    25   15   20 1
    26   15   16 1
    27   15   35 1
    28   16   24 1
    29   16   17 1
    30   16   36 1
    31   17   18 1
    32   17   37 1
    33   17   38 1
    34   18   23 1
    35   18   19 1
    36   18   39 1
    37   19   20 1
    38   19   40 1
    39   19   41 1
    40   20   21 1
    41   20   42 1
    42   21   22 1
    43   21   43 1
    44   21   44 1
    45   22   23 1
    46   22   24 1
    47   22   25 1
    48   23   45 1
    49   23   46 1
    50   24   47 1
    51   24   48 1
    52   25   49 1
@<TRIPOS>MOLECULE
CHEMBL1085146
   45    47     0     0     0
SMALL
USER_CHARGES

@<TRIPOS>ATOM
      1 C1          1.4868   -8.0620    6.7132 C.3       1 <0>        -0.1175
      2 C2          0.4108   -7.4291    5.8690 C.ar      1 <0>        -0.0677
      3 C3         -0.8003   -8.0741    5.6960 C.ar      1 <0>        -0.1065
      4 C4         -1.7900   -7.4964    4.9225 C.ar      1 <0>        -0.0927
      5 C5         -1.5715   -6.2728    4.3197 C.ar      1 <0>        -0.1158
      6 C6         -0.3570   -5.6230    4.4915 C.ar      1 <0>         0.1284
      7 C7          0.6330   -6.2030    5.2735 C.ar      1 <0>        -0.0966
      8 N1         -0.1320   -4.3812    3.8804 N.pl3     1 <0>        -0.2974
      9 C8         -0.4838   -4.0163    2.6118 C.2       1 <0>         0.0227
     10 C9         -0.0711   -2.7311    2.4496 C.2       1 <0>        -0.0728
     11 N2          0.5124   -2.3205    3.5752 N.2       1 <0>        -0.2194
     12 N3          0.4939   -3.2631    4.4517 N.2       1 <0>        -0.0534
     13 S1         -1.3101   -5.0158    1.4191 S.3       1 <0>         0.0401
     14 C10        -1.0655   -4.1272   -0.1433 C.3       1 <0>        -0.1840
     15 C11        -1.8302   -4.8211   -1.2409 C.2       1 <0>         0.4244
     16 O1         -2.3999   -5.8678   -1.0149 O.2       1 <0>        -0.4321
     17 C12        -1.8857   -4.2300   -2.5842 C.ar      1 <0>        -0.1685
     18 C13        -1.1345   -3.0860   -2.8794 C.ar      1 <0>        -0.0621
     19 C14        -1.1880   -2.5341   -4.1396 C.ar      1 <0>        -0.1882
     20 C15        -1.9863   -3.1092   -5.1204 C.ar      1 <0>         0.1414
     21 C16        -2.7376   -4.2490   -4.8343 C.ar      1 <0>         0.0889
     22 C17        -2.6856   -4.8123   -3.5752 C.ar      1 <0>        -0.1107
     23 O2         -3.5181   -4.8082   -5.7975 O.3       1 <0>        -0.3032
     24 C18        -4.2606   -5.9741   -5.4350 C.3       1 <0>         0.0226
     25 O3         -2.0355   -2.5600   -6.3608 O.3       1 <0>        -0.2988
     26 C19        -1.2417   -1.3932   -6.5857 C.3       1 <0>         0.0217
     27 H1          1.3710   -7.7424    7.7489 H         1 <0>         0.0774
     28 H2          1.4021   -9.1472    6.6562 H         1 <0>         0.0734
     29 H3          2.4655   -7.7540    6.3452 H         1 <0>         0.0704
     30 H4         -0.9732   -9.0311    6.1657 H         1 <0>         0.1346
     31 H5         -2.7348   -8.0024    4.7892 H         1 <0>         0.1391
     32 H6         -2.3447   -5.8223    3.7150 H         1 <0>         0.1339
     33 H7          1.5775   -5.6979    5.4123 H         1 <0>         0.1354
     34 H8         -0.1955   -2.1396    1.5546 H         1 <0>         0.1887
     35 H9         -1.4265   -3.1040   -0.0398 H         1 <0>         0.1308
     36 H10        -0.0043   -4.1147   -0.3918 H         1 <0>         0.1328
     37 H11        -0.5136   -2.6363   -2.1187 H         1 <0>         0.1385
     38 H12        -0.6081   -1.6517   -4.3662 H         1 <0>         0.1459
     39 H13        -3.2638   -5.6972   -3.3536 H         1 <0>         0.1496
     40 H14        -4.8392   -6.3176   -6.2925 H         1 <0>         0.1053
     41 H15        -3.5731   -6.7600   -5.1221 H         1 <0>         0.0580
     42 H16        -4.9359   -5.7340   -4.6137 H         1 <0>         0.0578
     43 H17        -1.5550   -0.6034   -5.9031 H         1 <0>         0.0600
     44 H18        -0.1918   -1.6289   -6.4113 H         1 <0>         0.0598
     45 H19        -1.3726   -1.0575   -7.6144 H         1 <0>         0.1058
@<TRIPOS>BOND
     1    1    2 1
     2    1   27 1
     3    1   28 1
     4    1   29 1
     5    2    7 ar
     6    2    3 ar
     7    3    4 ar
     8    3   30 1
     9    4    5 ar
    10    4   31 1
    11    5    6 ar
    12    5   32 1
    13    6    7 ar
    14    6    8 1
    15    7   33 1
    16    8   12 1
    17    8    9 1
    18    9   10 2
    19    9   13 1
    20   10   11 1
    21   10   34 1
    22   11   12 2
    23   13   14 1
    24   14   15 1
    25   14   35 1
    26   14   36 1
    27   15   16 2
    28   15   17 1
    29   17   22 ar
    30   17   18 ar
    31   18   19 ar
    32   18   37 1
    33   19   20 ar
    34   19   38 1
    35   20   21 ar
    36   20   25 1
    37   21   22 ar
    38   21   23 1
    39   22   39 1
    40   23   24 1
    41   24   40 1
    42   24   41 1
    43   24   42 1
    44   25   26 1
    45   26   43 1
    46   26   44 1
    47   26   45 1
@<TRIPOS>MOLECULE
CHEMBL1081297
   55    58     0     0     0
SMALL
USER_CHARGES

@<TRIPOS>ATOM
      1 C1         -0.0102   -0.1305   -0.2104 C.3       1 <0>        -0.1394
      2 C2         -0.1607   -1.6004   -0.6073 C.3       1 <0>        -0.0385
      3 C3          0.5200   -2.4838    0.4401 C.3       1 <0>        -0.1411
      4 C4         -1.6463   -1.9574   -0.6879 C.3       1 <0>        -0.1476
      5 C5          0.4838   -1.8265   -1.9507 C.ar      1 <0>        -0.0104
      6 C6         -0.2737   -2.2846   -3.0124 C.ar      1 <0>        -0.1415
      7 C7          0.3175   -2.4920   -4.2446 C.ar      1 <0>        -0.0172
      8 C8          1.6661   -2.2408   -4.4152 C.ar      1 <0>        -0.6836
      9 C9          2.4234   -1.7819   -3.3538 C.ar      1 <0>        -0.0162
     10 C10         1.8313   -1.5704   -2.1227 C.ar      1 <0>        -0.1359
     11 S1          2.4199   -2.5063   -5.9856 S.o2      1 <0>         2.7056
     12 O1          3.8037   -2.7174   -5.7413 O.2       1 <0>        -0.9513
     13 O2          1.6131   -3.4565   -6.6679 O.2       1 <0>        -0.9527
     14 N1          2.2996   -1.0883   -6.8324 N.pl3     1 <0>        -1.0138
     15 C11         1.1925   -0.6756   -7.7214 C.3       1 <0>         0.0820
     16 C12         1.6215    0.7135   -8.2875 C.3       1 <0>         0.0561
     17 H1          1.1379    1.0276   -9.2124 H         1 <0>         0.1340
     18 C13         3.1772    0.5035   -8.3456 C.3       1 <0>        -0.1276
     19 C14         3.2840    0.0338   -6.8471 C.3       1 <0>         0.1199
     20 H2          4.2835   -0.1996   -6.4800 H         1 <0>         0.1360
     21 C15         2.5328    1.2087   -6.1475 C.3       1 <0>         0.0239
     22 N2          1.4811    1.6414   -7.1211 N.3       1 <0>        -0.5034
     23 C16         0.1343    1.5571   -6.5405 C.3       1 <0>         0.0679
     24 C17        -0.9289    1.7359   -7.6438 C.3       1 <0>        -0.1215
     25 C18        -2.0538    2.5511   -6.9588 C.3       1 <0>        -0.1243
     26 C19        -1.2641    3.5369   -6.0623 C.3       1 <0>        -0.1205
     27 C20        -0.0788    2.7022   -5.5349 C.3       1 <0>        -0.1144
     28 H3          1.0482    0.1239   -0.1530 H         1 <0>         0.0591
     29 H4         -0.4952    0.4989   -0.9566 H         1 <0>         0.0575
     30 H5         -0.4764    0.0331    0.7612 H         1 <0>         0.0640
     31 H6          0.0539   -2.3203    1.4117 H         1 <0>         0.0643
     32 H7          0.4128   -3.5310    0.1573 H         1 <0>         0.0585
     33 H8          1.5784   -2.2295    0.4975 H         1 <0>         0.0595
     34 H9         -2.1313   -1.3280   -1.4341 H         1 <0>         0.0603
     35 H10        -1.7535   -3.0046   -0.9707 H         1 <0>         0.0609
     36 H11        -2.1125   -1.7938    0.2837 H         1 <0>         0.0634
     37 H12        -1.3273   -2.4808   -2.8791 H         1 <0>         0.1370
     38 H13        -0.2742   -2.8505   -5.0739 H         1 <0>         0.1366
     39 H14         3.4771   -1.5860   -3.4870 H         1 <0>         0.1385
     40 H15         2.4222   -1.2083   -1.2943 H         1 <0>         0.1322
     41 H16         1.0707   -1.3935   -8.5324 H         1 <0>         0.0787
     42 H17         0.2661   -0.5834   -7.1543 H         1 <0>         0.0765
     43 H18         3.4641   -0.2778   -9.0493 H         1 <0>         0.0880
     44 H19         3.7147    1.4343   -8.5267 H         1 <0>         0.0971
     45 H20         2.0679    0.8640   -5.2238 H         1 <0>         0.0626
     46 H21         3.2205    2.0292   -5.9428 H         1 <0>         0.0916
     47 H22         0.0012    0.5955   -6.0449 H         1 <0>         0.0497
     48 H23        -0.5151    2.2901   -8.4862 H         1 <0>         0.0794
     49 H24        -1.3054    0.7669   -7.9714 H         1 <0>         0.0639
     50 H25        -2.6452    3.0906   -7.6985 H         1 <0>         0.0683
     51 H26        -2.6878    1.9023   -6.3543 H         1 <0>         0.0646
     52 H27        -0.9044    4.3819   -6.6493 H         1 <0>         0.0680
     53 H28        -1.8852    3.8822   -5.2358 H         1 <0>         0.0627
     54 H29        -0.3162    2.2963   -4.5516 H         1 <0>         0.0582
     55 H30         0.8171    3.3205   -5.4778 H         1 <0>         0.0743
@<TRIPOS>BOND
     1    1    2 1
     2    1   28 1
     3    1   29 1
     4    1   30 1
     5    2    3 1
     6    2    4 1
     7    2    5 1
     8    3   31 1
     9    3   32 1
    10    3   33 1
    11    4   34 1
    12    4   35 1
    13    4   36 1
    14    5   10 ar
    15    5    6 ar
    16    6    7 ar
    17    6   37 1
    18    7    8 ar
    19    7   38 1
    20    8    9 ar
    21    8   11 1
    22    9   10 ar
    23    9   39 1
    24   10   40 1
    25   11   12 2
    26   11   13 2
    27   11   14 1
    28   14   19 1
    29   14   15 1
    30   15   16 1
    31   15   41 1
    32   15   42 1
    33   16   17 1
    34   16   22 1
    35   16   18 1
    36   18   19 1
    37   18   43 1
    38   18   44 1
    39   19   20 1
    40   19   21 1
    41   21   22 1
    42   21   45 1
    43   21   46 1
    44   22   23 1
    45   23   27 1
    46   23   24 1
    47   23   47 1
    48   24   25 1
    49   24   48 1
    50   24   49 1
    51   25   26 1
    52   25   50 1
    53   25   51 1
    54   26   27 1
    55   26   52 1
    56   26   53 1
    57   27   54 1
    58   27   55 1
@<TRIPOS>MOLECULE
CHEMBL1081297__1
   56    59     0     0     0
SMALL
USER_CHARGES

@<TRIPOS>ATOM
      1 C1          0.0413    0.3591   -0.0923 C.3       1 <0>        -0.1392
      2 C2         -0.0635   -1.1408   -0.3752 C.3       1 <0>        -0.0415
      3 C3          0.6437   -1.9200    0.7356 C.3       1 <0>        -0.1442
      4 C4         -1.5373   -1.5486   -0.4255 C.3       1 <0>        -0.1497
      5 C5          0.5885   -1.4492   -1.6984 C.ar      1 <0>         0.0002
      6 C6         -0.1539   -2.0105   -2.7206 C.ar      1 <0>        -0.1394
      7 C7          0.4441   -2.2933   -3.9343 C.ar      1 <0>        -0.0203
      8 C8          1.7844   -2.0145   -4.1261 C.ar      1 <0>        -0.6933
      9 C9          2.5266   -1.4524   -3.1043 C.ar      1 <0>        -0.0199
     10 C10         1.9275   -1.1656   -1.8919 C.ar      1 <0>        -0.1337
     11 S1          2.5469   -2.3761   -5.6729 S.o2      1 <0>         2.7015
     12 O1          3.9365   -2.5251   -5.4156 O.2       1 <0>        -0.9332
     13 O2          1.7703   -3.4002   -6.2789 O.2       1 <0>        -0.9341
     14 N1          2.3834   -1.0316   -6.6256 N.pl3     1 <0>        -1.0228
     15 C11         1.2645   -0.7226   -7.5416 C.3       1 <0>         0.0916
     16 C12         1.6508    0.6317   -8.2132 C.3       1 <0>         0.0207
     17 H1          1.1582    0.8589   -9.1586 H         1 <0>         0.1853
     18 C13         3.2122    0.4659   -8.2578 C.3       1 <0>        -0.1438
     19 C14         3.3327    0.1160   -6.7280 C.3       1 <0>         0.1370
     20 H2          4.3387   -0.0578   -6.3459 H         1 <0>         0.1751
     21 C15         2.5452    1.3172   -6.1191 C.3       1 <0>        -0.0233
     22 N2          1.4811    1.6414   -7.1211 N.4       1 <0>        -0.3944
     23 C16         0.1448    1.5201   -6.5231 C.3       1 <0>         0.0141
     24 C17        -0.9372    1.6706   -7.6124 C.3       1 <0>        -0.1410
     25 C18        -2.0749    2.4543   -6.9120 C.3       1 <0>        -0.1242
     26 C19        -1.3007    3.4606   -6.0248 C.3       1 <0>        -0.1291
     27 C20        -0.0864    2.6582   -5.5137 C.3       1 <0>        -0.1393
     28 H3          1.0913    0.6496   -0.0565 H         1 <0>         0.0593
     29 H4         -0.4624    0.9142   -0.8836 H         1 <0>         0.0551
     30 H5         -0.4302    0.5822    0.8648 H         1 <0>         0.0682
     31 H6          0.1721   -1.6969    1.6927 H         1 <0>         0.0686
     32 H7          0.5690   -2.9886    0.5341 H         1 <0>         0.0606
     33 H8          1.6936   -1.6294    0.7714 H         1 <0>         0.0604
     34 H9         -2.0410   -0.9936   -1.2168 H         1 <0>         0.0593
     35 H10        -1.6119   -2.6172   -0.6270 H         1 <0>         0.0626
     36 H11        -2.0088   -1.3256    0.5316 H         1 <0>         0.0675
     37 H12        -1.2010   -2.2283   -2.5707 H         1 <0>         0.1414
     38 H13        -0.1357   -2.7325   -4.7327 H         1 <0>         0.1393
     39 H14         3.5738   -1.2349   -3.2540 H         1 <0>         0.1407
     40 H15         2.5065   -0.7230   -1.0948 H         1 <0>         0.1363
     41 H16         1.1655   -1.5040   -8.2950 H         1 <0>         0.1213
     42 H17         0.3355   -0.6158   -6.9816 H         1 <0>         0.0976
     43 H18         3.5236   -0.3578   -8.9002 H         1 <0>         0.1327
     44 H19         3.7208    1.3962   -8.5108 H         1 <0>         0.1173
     45 H20         2.0905    1.0302   -5.1709 H         1 <0>         0.1353
     46 H21         3.2070    2.1718   -5.9791 H         1 <0>         0.1459
     47 H22         0.0443    0.5548   -6.0269 H         1 <0>         0.1406
     48 H23        -0.5495    2.2364   -8.4595 H         1 <0>         0.0888
     49 H24        -1.2913    0.6919   -7.9361 H         1 <0>         0.0980
     50 H25        -2.6903    2.9781   -7.6435 H         1 <0>         0.0892
     51 H26        -2.6830    1.7881   -6.3001 H         1 <0>         0.0825
     52 H27        -0.9718    4.3156   -6.6155 H         1 <0>         0.0780
     53 H28        -1.9202    3.7883   -5.1899 H         1 <0>         0.0865
     54 H29        -0.2998    2.2453   -4.5278 H         1 <0>         0.0988
     55 H30         0.7930    3.3006   -5.4675 H         1 <0>         0.0837
     56 H31         1.6171    2.5727   -7.4848 H         1 <0>         0.4254
@<TRIPOS>BOND
     1    1    2 1
     2    1   28 1
     3    1   29 1
     4    1   30 1
     5    2    3 1
     6    2    4 1
     7    2    5 1
     8    3   31 1
     9    3   32 1
    10    3   33 1
    11    4   34 1
    12    4   35 1
    13    4   36 1
    14    5   10 ar
    15    5    6 ar
    16    6    7 ar
    17    6   37 1
    18    7    8 ar
    19    7   38 1
    20    8    9 ar
    21    8   11 1
    22    9   10 ar
    23    9   39 1
    24   10   40 1
    25   11   12 2
    26   11   13 2
    27   11   14 1
    28   14   19 1
    29   14   15 1
    30   15   16 1
    31   15   41 1
    32   15   42 1
    33   16   17 1
    34   16   22 1
    35   16   18 1
    36   18   19 1
    37   18   43 1
    38   18   44 1
    39   19   20 1
    40   19   21 1
    41   21   22 1
    42   21   45 1
    43   21   46 1
    44   22   23 1
    45   22   56 1
    46   23   27 1
    47   23   24 1
    48   23   47 1
    49   24   25 1
    50   24   48 1
    51   24   49 1
    52   25   26 1
    53   25   50 1
    54   25   51 1
    55   26   27 1
    56   26   52 1
    57   26   53 1
    58   27   54 1
    59   27   55 1
@<TRIPOS>MOLECULE
CHEMBL401901
   58    61     0     0     0
SMALL
USER_CHARGES

@<TRIPOS>ATOM
      1 C1         -3.3151    1.2995   -0.2485 C.3       1 <0>        -0.0918
      2 C2         -2.3632    0.1318   -0.2845 C.ar      1 <0>         0.1668
      3 C3         -2.1833   -0.5876   -1.4497 C.ar      1 <0>        -0.2718
      4 C4         -1.2905   -1.6610   -1.4345 C.ar      1 <0>         0.4707
      5 N1         -0.6501   -1.9495   -0.3052 N.ar      1 <0>        -0.6269
      6 C5         -0.8524   -1.2358    0.7836 C.ar      1 <0>         0.3469
      7 N2         -1.6845   -0.2139    0.8003 N.ar      1 <0>        -0.5950
      8 C6         -0.1074   -1.5945    2.0435 C.3       1 <0>        -0.0783
      9 N3         -1.0756   -2.4139   -2.5775 N.2       1 <0>        -1.0639
     10 S1         -0.0137   -3.6842   -2.5448 S.o2      1 <0>         2.6294
     11 O1          1.2775   -3.1289   -2.3357 O.2       1 <0>        -1.0158
     12 O2         -0.5736   -4.6592   -1.6758 O.2       1 <0>        -1.0167
     13 C7         -0.0013   -4.3945   -4.1572 C.ar      1 <0>        -0.6341
     14 C8         -0.8910   -5.4051   -4.4728 C.ar      1 <0>        -0.0036
     15 C9         -0.8836   -5.9643   -5.7355 C.ar      1 <0>        -0.1671
     16 C10         0.0185   -5.5103   -6.6892 C.ar      1 <0>         0.1744
     17 C11         0.9104   -4.4947   -6.3691 C.ar      1 <0>        -0.1434
     18 C12         0.8942   -3.9363   -5.1061 C.ar      1 <0>        -0.0033
     19 N4          0.0289   -6.0746   -7.9684 N.am      1 <0>        -0.6653
     20 C13         1.1883   -6.1849   -8.6468 C.2       1 <0>         0.5527
     21 O3          2.2365   -5.8806   -8.1123 O.2       1 <0>        -0.5006
     22 C14         1.1849   -6.6768  -10.0429 C.ar      1 <0>        -0.0916
     23 C15        -0.0202   -7.0208  -10.6584 C.ar      1 <0>        -0.0972
     24 C16        -0.0246   -7.4786  -11.9574 C.ar      1 <0>        -0.0579
     25 C17         1.1785   -7.5983  -12.6600 C.ar      1 <0>        -0.1473
     26 C18         2.3849   -7.2530  -12.0427 C.ar      1 <0>        -0.0709
     27 C19         2.3863   -6.7909  -10.7452 C.ar      1 <0>        -0.0662
     28 C20         1.1752   -8.0894  -14.0524 C.2       1 <0>         0.3764
     29 O4          0.1230   -8.2971  -14.6200 O.2       1 <0>        -0.4069
     30 C21         2.4651   -8.3301  -14.7613 C.2       1 <0>         0.3767
     31 O5          3.1358   -9.3039  -14.4871 O.2       1 <0>        -0.4102
     32 C22         2.9256   -7.3852  -15.7952 C.ar      1 <0>        -0.1722
     33 C23         2.2173   -6.2024  -16.0324 C.ar      1 <0>        -0.0649
     34 C24         2.6545   -5.3238  -17.0005 C.ar      1 <0>        -0.1290
     35 C25         3.7911   -5.6097  -17.7375 C.ar      1 <0>        -0.0783
     36 C26         4.4975   -6.7782  -17.5088 C.ar      1 <0>        -0.1317
     37 C27         4.0764   -7.6642  -16.5402 C.ar      1 <0>        -0.0523
     38 H1         -2.7816    2.2115   -0.5163 H         1 <0>         0.0703
     39 H2         -4.1247    1.1303   -0.9585 H         1 <0>         0.0685
     40 H3         -3.7275    1.4013    0.7553 H         1 <0>         0.0692
     41 H4         -2.7199   -0.3266   -2.3498 H         1 <0>         0.1266
     42 H5          0.8360   -1.0496    2.0754 H         1 <0>         0.0739
     43 H6         -0.7109   -1.3273    2.9110 H         1 <0>         0.0739
     44 H7          0.0914   -2.6662    2.0554 H         1 <0>         0.0758
     45 H8         -1.5921   -5.7577   -3.7308 H         1 <0>         0.1420
     46 H9         -1.5782   -6.7540   -5.9811 H         1 <0>         0.1305
     47 H10         1.6130   -4.1395   -7.1083 H         1 <0>         0.1381
     48 H11         1.5845   -3.1436   -4.8579 H         1 <0>         0.1412
     49 H12        -0.7982   -6.3867   -8.3676 H         1 <0>         0.4111
     50 H13        -0.9493   -6.9282  -10.1155 H         1 <0>         0.1389
     51 H14        -0.9569   -7.7453  -12.4330 H         1 <0>         0.1464
     52 H15         3.3147   -7.3454  -12.5842 H         1 <0>         0.1373
     53 H16         3.3173   -6.5202  -10.2696 H         1 <0>         0.1502
     54 H17         1.3300   -5.9784  -15.4587 H         1 <0>         0.1288
     55 H18         2.1087   -4.4102  -17.1847 H         1 <0>         0.1340
     56 H19         4.1282   -4.9177  -18.4951 H         1 <0>         0.1317
     57 H20         5.3830   -6.9944  -18.0880 H         1 <0>         0.1339
     58 H21         4.6308   -8.5733  -16.3601 H         1 <0>         0.1377
@<TRIPOS>BOND
     1    1    2 1
     2    1   38 1
     3    1   39 1
     4    1   40 1
     5    2    7 ar
     6    2    3 ar
     7    3    4 ar
     8    3   41 1
     9    4    5 ar
    10    4    9 1
    11    5    6 ar
    12    6    7 ar
    13    6    8 1
    14    8   42 1
    15    8   43 1
    16    8   44 1
    17    9   10 1
    18   10   11 2
    19   10   12 2
    20   10   13 1
    21   13   18 ar
    22   13   14 ar
    23   14   15 ar
    24   14   45 1
    25   15   16 ar
    26   15   46 1
    27   16   17 ar
    28   16   19 1
    29   17   18 ar
    30   17   47 1
    31   18   48 1
    32   19   20 am
    33   19   49 1
    34   20   21 2
    35   20   22 1
    36   22   27 ar
    37   22   23 ar
    38   23   24 ar
    39   23   50 1
    40   24   25 ar
    41   24   51 1
    42   25   26 ar
    43   25   28 1
    44   26   27 ar
    45   26   52 1
    46   27   53 1
    47   28   29 2
    48   28   30 1
    49   30   31 2
    50   30   32 1
    51   32   37 ar
    52   32   33 ar
    53   33   34 ar
    54   33   54 1
    55   34   35 ar
    56   34   55 1
    57   35   36 ar
    58   35   56 1
    59   36   37 ar
    60   36   57 1
    61   37   58 1
@<TRIPOS>MOLECULE
CHEMBL230006
   79    83     0     0     0
SMALL
USER_CHARGES

@<TRIPOS>ATOM
      1 C1          0.6456    1.7280   -2.5152 C.3       1 <0>        -0.1468
      2 C2          0.6518    0.1970   -2.6000 C.3       1 <0>        -0.0447
      3 C3         -0.6848   -0.2429   -3.1979 C.3       1 <0>        -0.1006
      4 C4         -0.7983   -1.7627   -3.2148 C.3       1 <0>        -0.0867
      5 C5         -0.6469   -2.3346   -1.8057 C.3       1 <0>        -0.1308
      6 C6          0.6905   -1.8984   -1.2096 C.3       1 <0>        -0.0666
      7 C7          0.8269   -0.3802   -1.1995 C.3       1 <0>        -0.0489
      8 H1          0.0653    0.0529   -0.5359 H         1 <0>         0.1118
      9 C8          2.1956   -0.0004   -0.6658 C.2       1 <0>         0.0093
     10 C9          2.2431    0.3732    0.6187 C.2       1 <0>        -0.2654
     11 C10         3.5050    0.7729    1.2574 C.2       1 <0>         0.4015
     12 O1          3.4908    1.2728    2.3648 O.2       1 <0>        -0.4605
     13 C11         4.7755    0.5041    0.4842 C.3       1 <0>        -0.1130
     14 H2          4.9710   -0.5882    0.5585 H         1 <0>         0.0967
     15 C12         5.9968    1.1756    1.1081 C.3       1 <0>        -0.0223
     16 C13         6.2668    0.5019    2.4653 C.3       1 <0>        -0.1186
     17 C14         7.5457    1.0708    3.0731 C.3       1 <0>        -0.1465
     18 C15         8.7380    0.7505    2.1811 C.3       1 <0>         0.1179
     19 H3          8.8771   -0.3354    2.1410 H         1 <0>         0.0474
     20 C16         8.5467    1.2746    0.7575 C.3       1 <0>        -0.0367
     21 C17         7.1909    0.9192    0.1935 C.3       1 <0>        -0.0601
     22 H4          7.2045   -0.1851    0.0186 H         1 <0>         0.0594
     23 C18         6.9293    1.5468   -1.1745 C.3       1 <0>        -0.1134
     24 C19         5.7696    0.7824   -1.8319 C.3       1 <0>        -0.1067
     25 C20         4.5187    0.8570   -0.9725 C.3       1 <0>        -0.0239
     26 C21         3.4148   -0.0527   -1.5342 C.3       1 <0>        -0.0148
     27 C22         3.1328    0.2991   -2.9871 C.3       1 <0>        -0.1033
     28 C23         1.8055   -0.2685   -3.4816 C.3       1 <0>        -0.1081
     29 C24         3.9437   -1.4937   -1.5089 C.3       1 <0>        -0.1536
     30 C25         3.9623    2.2877   -1.0594 C.3       1 <0>        -0.1702
     31 C26         9.6271    0.5811   -0.1099 C.3       1 <0>        -0.1461
     32 C27         8.8355    2.7751    0.7129 C.3       1 <0>        -0.1331
     33 O2          9.9195    1.3359    2.7401 O.3       1 <0>        -0.5661
     34 C28         5.7635    2.6614    1.3574 C.3       1 <0>        -0.1571
     35 C29        -0.6693   -3.8687   -1.8928 C.3       1 <0>        -0.1216
     36 C30        -1.7831   -1.8866   -0.9274 C.2       1 <0>         0.5075
     37 O3         -2.9311   -2.1716   -1.2230 O.co2     1 <0>        -0.7014
     38 O4         -1.5560   -1.2384    0.0799 O.co2     1 <0>        -0.6930
     39 H5          1.5894    2.0723   -2.0923 H         1 <0>         0.0573
     40 H6          0.5207    2.1467   -3.5138 H         1 <0>         0.0482
     41 H7         -0.1776    2.0534   -1.8792 H         1 <0>         0.0546
     42 H8         -1.5018    0.1991   -2.6316 H         1 <0>         0.0653
     43 H9         -0.7422    0.1284   -4.2285 H         1 <0>         0.0478
     44 H10        -1.7739   -2.0497   -3.6162 H         1 <0>         0.0592
     45 H11        -0.0202   -2.1807   -3.8586 H         1 <0>         0.0444
     46 H12         0.7656   -2.2770   -0.1853 H         1 <0>         0.0555
     47 H13         1.4905   -2.3449   -1.8038 H         1 <0>         0.0434
     48 H14         1.3291    0.3819    1.1968 H         1 <0>         0.1347
     49 H15         5.4279    0.6968    3.1338 H         1 <0>         0.0852
     50 H16         6.3728   -0.5717    2.3148 H         1 <0>         0.0565
     51 H17         7.4651    2.1408    3.2332 H         1 <0>         0.0764
     52 H18         7.7039    0.5997    4.0543 H         1 <0>         0.0559
     53 H19         6.6826    2.5986   -1.0936 H         1 <0>         0.0701
     54 H20         7.8089    1.4405   -1.8139 H         1 <0>         0.0628
     55 H21         5.5698    1.2324   -2.8096 H         1 <0>         0.0677
     56 H22         6.0904   -0.2480   -1.9838 H         1 <0>         0.0670
     57 H23         3.1728    1.3627   -3.1865 H         1 <0>         0.0715
     58 H24         3.9326   -0.1572   -3.6049 H         1 <0>         0.0561
     59 H25         1.8481   -1.3584   -3.4851 H         1 <0>         0.0668
     60 H26         1.6326    0.0715   -4.5080 H         1 <0>         0.0575
     61 H27         3.1774   -2.1687   -1.8900 H         1 <0>         0.0693
     62 H28         4.8340   -1.5650   -2.1336 H         1 <0>         0.0628
     63 H29         4.1952   -1.7705   -0.4850 H         1 <0>         0.0558
     64 H30         4.7333    2.9963   -0.7568 H         1 <0>         0.0655
     65 H31         3.6583    2.4976   -2.0849 H         1 <0>         0.0648
     66 H32         3.1011    2.3834   -0.3983 H         1 <0>         0.0605
     67 H33         9.4879   -0.4992   -0.0686 H         1 <0>         0.0487
     68 H34         9.5371    0.9199   -1.1420 H         1 <0>         0.0555
     69 H35        10.6165    0.8347    0.2707 H         1 <0>         0.0594
     70 H36         9.8913    2.9483    0.9212 H         1 <0>         0.0585
     71 H37         8.5919    3.1627   -0.2763 H         1 <0>         0.0516
     72 H38         8.2291    3.2842    1.4620 H         1 <0>         0.0568
     73 H39        10.1330    1.0190    3.6284 H         1 <0>         0.3731
     74 H40         4.7879    2.8030    1.8225 H         1 <0>         0.0701
     75 H41         6.5404    3.0452    2.0186 H         1 <0>         0.0597
     76 H42         5.7954    3.1983    0.4094 H         1 <0>         0.0596
     77 H43         0.1537   -4.2090   -2.5213 H         1 <0>         0.0357
     78 H44        -0.5621   -4.2909   -0.8937 H         1 <0>         0.0427
     79 H45        -1.6154   -4.1942   -2.3252 H         1 <0>         0.0551
@<TRIPOS>BOND
     1    1    2 1
     2    1   39 1
     3    1   40 1
     4    1   41 1
     5    2    7 1
     6    2   28 1
     7    2    3 1
     8    3    4 1
     9    3   42 1
    10    3   43 1
    11    4    5 1
    12    4   44 1
    13    4   45 1
    14    5    6 1
    15    5   35 1
    16    5   36 1
    17    6    7 1
    18    6   46 1
    19    6   47 1
    20    7    8 1
    21    7    9 1
    22    9   26 1
    23    9   10 2
    24   10   11 1
    25   10   48 1
    26   11   12 2
    27   11   13 1
    28   13   14 1
    29   13   25 1
    30   13   15 1
    31   15   21 1
    32   15   16 1
    33   15   34 1
    34   16   17 1
    35   16   49 1
    36   16   50 1
    37   17   18 1
    38   17   51 1
    39   17   52 1
    40   18   19 1
    41   18   20 1
    42   18   33 1
    43   20   21 1
    44   20   31 1
    45   20   32 1
    46   21   22 1
    47   21   23 1
    48   23   24 1
    49   23   53 1
    50   23   54 1
    51   24   25 1
    52   24   55 1
    53   24   56 1
    54   25   26 1
    55   25   30 1
    56   26   27 1
    57   26   29 1
    58   27   28 1
    59   27   57 1
    60   27   58 1
    61   28   59 1
    62   28   60 1
    63   29   61 1
    64   29   62 1
    65   29   63 1
    66   30   64 1
    67   30   65 1
    68   30   66 1
    69   31   67 1
    70   31   68 1
    71   31   69 1
    72   32   70 1
    73   32   71 1
    74   32   72 1
    75   33   73 1
    76   34   74 1
    77   34   75 1
    78   34   76 1
    79   35   77 1
    80   35   78 1
    81   35   79 1
    82   36   37 2
    83   36   38 1
@<TRIPOS>MOLECULE
CHEMBL1081803
   58    61     0     0     0
SMALL
USER_CHARGES

@<TRIPOS>ATOM
      1 C1         -0.0047   -0.0174   -0.1812 C.3       1 <0>        -0.1393
      2 C2         -0.1433   -1.4954   -0.5518 C.3       1 <0>        -0.0384
      3 C3          0.5430   -2.3545    0.5121 C.3       1 <0>        -0.1411
      4 C4         -1.6260   -1.8653   -0.6275 C.3       1 <0>        -0.1475
      5 C5          0.5045   -1.7406   -1.8902 C.ar      1 <0>        -0.0100
      6 C6         -0.2482   -2.2236   -2.9443 C.ar      1 <0>        -0.1413
      7 C7          0.3461   -2.4485   -4.1719 C.ar      1 <0>        -0.0169
      8 C8          1.6929   -2.1900   -4.3456 C.ar      1 <0>        -0.6834
      9 C9          2.4454   -1.7062   -3.2918 C.ar      1 <0>        -0.0162
     10 C10         1.8502   -1.4772   -2.0653 C.ar      1 <0>        -0.1358
     11 S1          2.4506   -2.4778   -5.9102 S.o2      1 <0>         2.7054
     12 O1          3.8357   -2.6737   -5.6607 O.2       1 <0>        -0.9514
     13 O2          1.6520   -3.4463   -6.5761 O.2       1 <0>        -0.9527
     14 N1          2.3204   -1.0762   -6.7825 N.pl3     1 <0>        -1.0135
     15 C11         1.2111   -0.6882   -7.6799 C.3       1 <0>         0.0810
     16 C12         1.6301    0.6938   -8.2704 C.3       1 <0>         0.0565
     17 H1          1.1451    0.9874   -9.2014 H         1 <0>         0.1341
     18 C13         3.1874    0.4949   -8.3231 C.3       1 <0>        -0.1277
     19 C14         3.2961    0.0531   -6.8163 C.3       1 <0>         0.1198
     20 H2          4.2969   -0.1660   -6.4440 H         1 <0>         0.1359
     21 C15         2.5350    1.2344   -6.1387 C.3       1 <0>         0.0247
     22 N2          1.4811    1.6414   -7.1211 N.3       1 <0>        -0.5066
     23 C16         0.1343    1.5571   -6.5405 C.3       1 <0>         0.0742
     24 C17        -0.9090    1.6653   -7.6543 C.3       1 <0>        -0.1179
     25 C18        -2.3116    1.5775   -7.0496 C.3       1 <0>        -0.1188
     26 C19        -2.5097    2.7210   -6.0526 C.3       1 <0>        -0.1203
     27 C20        -1.4664    2.6129   -4.9387 C.3       1 <0>        -0.1183
     28 C21        -0.0637    2.7006   -5.5434 C.3       1 <0>        -0.1059
     29 H3          1.0516    0.2461   -0.1273 H         1 <0>         0.0590
     30 H4         -0.4936    0.5946   -0.9391 H         1 <0>         0.0577
     31 H5         -0.4733    0.1599    0.7868 H         1 <0>         0.0638
     32 H6          0.0744   -2.1771    1.4801 H         1 <0>         0.0642
     33 H7          0.4442   -3.4074    0.2480 H         1 <0>         0.0585
     34 H8          1.5993   -2.0910    0.5660 H         1 <0>         0.0595
     35 H9         -2.1150   -1.2532   -1.3854 H         1 <0>         0.0603
     36 H10        -1.7248   -2.9182   -0.8915 H         1 <0>         0.0608
     37 H11        -2.0946   -1.6879    0.3406 H         1 <0>         0.0633
     38 H12        -1.3004   -2.4255   -2.8086 H         1 <0>         0.1368
     39 H13        -0.2418   -2.8265   -4.9953 H         1 <0>         0.1364
     40 H14         3.4977   -1.5045   -3.4274 H         1 <0>         0.1383
     41 H15         2.4372   -1.0957   -1.2430 H         1 <0>         0.1320
     42 H16         1.0959   -1.4215   -8.4780 H         1 <0>         0.0785
     43 H17         0.2834   -0.5930   -7.1155 H         1 <0>         0.0775
     44 H18         3.4812   -0.2967   -9.0124 H         1 <0>         0.0879
     45 H19         3.7179    1.4264   -8.5204 H         1 <0>         0.0972
     46 H20         2.0716    0.9028   -5.2095 H         1 <0>         0.0627
     47 H21         3.2161    2.0638   -5.9481 H         1 <0>         0.0916
     48 H22         0.0194    0.6029   -6.0264 H         1 <0>         0.0478
     49 H23        -0.7940    2.6195   -8.1684 H         1 <0>         0.0737
     50 H24        -0.7679    0.8506   -8.3646 H         1 <0>         0.0640
     51 H25        -3.0549    1.6545   -7.8432 H         1 <0>         0.0655
     52 H26        -2.4266    0.6232   -6.5355 H         1 <0>         0.0590
     53 H27        -2.3947    3.6753   -6.5667 H         1 <0>         0.0638
     54 H28        -3.5090    2.6584   -5.6218 H         1 <0>         0.0610
     55 H29        -1.6075    3.4275   -4.2284 H         1 <0>         0.0635
     56 H30        -1.5813    1.6586   -4.4246 H         1 <0>         0.0577
     57 H31         0.6796    2.6236   -4.7499 H         1 <0>         0.0580
     58 H32         0.0513    3.6549   -6.0575 H         1 <0>         0.0712
@<TRIPOS>BOND
     1    1    2 1
     2    1   29 1
     3    1   30 1
     4    1   31 1
     5    2    3 1
     6    2    4 1
     7    2    5 1
     8    3   32 1
     9    3   33 1
    10    3   34 1
    11    4   35 1
    12    4   36 1
    13    4   37 1
    14    5   10 ar
    15    5    6 ar
    16    6    7 ar
    17    6   38 1
    18    7    8 ar
    19    7   39 1
    20    8    9 ar
    21    8   11 1
    22    9   10 ar
    23    9   40 1
    24   10   41 1
    25   11   12 2
    26   11   13 2
    27   11   14 1
    28   14   19 1
    29   14   15 1
    30   15   16 1
    31   15   42 1
    32   15   43 1
    33   16   17 1
    34   16   22 1
    35   16   18 1
    36   18   19 1
    37   18   44 1
    38   18   45 1
    39   19   20 1
    40   19   21 1
    41   21   22 1
    42   21   46 1
    43   21   47 1
    44   22   23 1
    45   23   28 1
    46   23   24 1
    47   23   48 1
    48   24   25 1
    49   24   49 1
    50   24   50 1
    51   25   26 1
    52   25   51 1
    53   25   52 1
    54   26   27 1
    55   26   53 1
    56   26   54 1
    57   27   28 1
    58   27   55 1
    59   27   56 1
    60   28   57 1
    61   28   58 1
@<TRIPOS>MOLECULE
CHEMBL1081803__1
   59    62     0     0     0
SMALL
USER_CHARGES

@<TRIPOS>ATOM
      1 C1          0.0411    0.3775   -0.0890 C.3       1 <0>        -0.1391
      2 C2         -0.0617   -1.1234   -0.3676 C.3       1 <0>        -0.0413
      3 C3          0.6462   -1.8984    0.7456 C.3       1 <0>        -0.1442
      4 C4         -1.5349   -1.5332   -0.4171 C.3       1 <0>        -0.1496
      5 C5          0.5910   -1.4348   -1.6898 C.ar      1 <0>         0.0006
      6 C6         -0.1504   -1.9999   -2.7105 C.ar      1 <0>        -0.1392
      7 C7          0.4483   -2.2855   -3.9233 C.ar      1 <0>        -0.0200
      8 C8          1.7883   -2.0055   -4.1155 C.ar      1 <0>        -0.6933
      9 C9          2.5295   -1.4395   -3.0951 C.ar      1 <0>        -0.0199
     10 C10         1.9298   -1.1500   -1.8838 C.ar      1 <0>        -0.1336
     11 S1          2.5517   -2.3706   -5.6610 S.o2      1 <0>         2.7013
     12 O1          3.9414   -2.5170   -5.4030 O.2       1 <0>        -0.9332
     13 O2          1.7766   -3.3974   -6.2644 O.2       1 <0>        -0.9341
     14 N1          2.3867   -1.0290   -6.6177 N.pl3     1 <0>        -1.0225
     15 C11         1.2677   -0.7240   -7.5348 C.3       1 <0>         0.0905
     16 C12         1.6524    0.6287   -8.2103 C.3       1 <0>         0.0203
     17 H1          1.1597    0.8526   -9.1565 H         1 <0>         0.1857
     18 C13         3.2140    0.4649   -8.2540 C.3       1 <0>        -0.1435
     19 C14         3.3346    0.1195   -6.7231 C.3       1 <0>         0.1369
     20 H2          4.3406   -0.0519   -6.3403 H         1 <0>         0.1751
     21 C15         2.5453    1.3214   -6.1179 C.3       1 <0>        -0.0233
     22 N2          1.4811    1.6414   -7.1211 N.4       1 <0>        -0.3959
     23 C16         0.1448    1.5201   -6.5231 C.3       1 <0>         0.0192
     24 C17        -0.9154    1.6005   -7.6233 C.3       1 <0>        -0.1404
     25 C18        -2.3072    1.4741   -7.0005 C.3       1 <0>        -0.1179
     26 C19        -2.5234    2.6111   -5.9998 C.3       1 <0>        -0.1305
     27 C20        -1.4632    2.5306   -4.8997 C.3       1 <0>        -0.1167
     28 C21        -0.0714    2.6570   -5.5224 C.3       1 <0>        -0.1356
     29 H3          1.0907    0.6694   -0.0538 H         1 <0>         0.0591
     30 H4         -0.4631    0.9296   -0.8821 H         1 <0>         0.0553
     31 H5         -0.4310    0.6027    0.8673 H         1 <0>         0.0681
     32 H6          0.1741   -1.6733    1.7019 H         1 <0>         0.0685
     33 H7          0.5730   -2.9677    0.5471 H         1 <0>         0.0605
     34 H8          1.6958   -1.6065    0.7808 H         1 <0>         0.0604
     35 H9         -2.0392   -0.9811   -1.2102 H         1 <0>         0.0593
     36 H10        -1.6081   -2.6025   -0.6156 H         1 <0>         0.0625
     37 H11        -2.0070   -1.3081    0.5392 H         1 <0>         0.0674
     38 H12        -1.1973   -2.2186   -2.5603 H         1 <0>         0.1412
     39 H13        -0.1307   -2.7277   -4.7205 H         1 <0>         0.1391
     40 H14         3.5765   -1.2211   -3.2452 H         1 <0>         0.1406
     41 H15         2.5079   -0.7044   -1.0878 H         1 <0>         0.1362
     42 H16         1.1698   -1.5077   -8.2861 H         1 <0>         0.1213
     43 H17         0.3384   -0.6169   -6.9754 H         1 <0>         0.0980
     44 H18         3.5266   -0.3603   -8.8939 H         1 <0>         0.1326
     45 H19         3.7215    1.3951   -8.5095 H         1 <0>         0.1175
     46 H20         2.0908    1.0366   -5.1690 H         1 <0>         0.1351
     47 H21         3.2061    2.1773   -5.9802 H         1 <0>         0.1464
     48 H22         0.0625    0.5627   -6.0086 H         1 <0>         0.1376
     49 H23        -0.8332    2.5579   -8.1378 H         1 <0>         0.0887
     50 H24        -0.7615    0.7905   -8.3362 H         1 <0>         0.0878
     51 H25        -3.0626    1.5315   -7.7843 H         1 <0>         0.0862
     52 H26        -2.3895    0.5167   -6.4860 H         1 <0>         0.0730
     53 H27        -2.4411    3.5685   -6.5143 H         1 <0>         0.0708
     54 H28        -3.5149    2.5211   -5.5562 H         1 <0>         0.0791
     55 H29        -1.6171    3.3406   -4.1867 H         1 <0>         0.0841
     56 H30        -1.5454    1.5732   -4.3852 H         1 <0>         0.0722
     57 H31         0.6840    2.5997   -4.7386 H         1 <0>         0.0836
     58 H32         0.0109    3.6144   -6.0369 H         1 <0>         0.0868
     59 H33         1.6160    2.5719   -7.4874 H         1 <0>         0.4253
@<TRIPOS>BOND
     1    1    2 1
     2    1   29 1
     3    1   30 1
     4    1   31 1
     5    2    3 1
     6    2    4 1
     7    2    5 1
     8    3   32 1
     9    3   33 1
    10    3   34 1
    11    4   35 1
    12    4   36 1
    13    4   37 1
    14    5   10 ar
    15    5    6 ar
    16    6    7 ar
    17    6   38 1
    18    7    8 ar
    19    7   39 1
    20    8    9 ar
    21    8   11 1
    22    9   10 ar
    23    9   40 1
    24   10   41 1
    25   11   12 2
    26   11   13 2
    27   11   14 1
    28   14   19 1
    29   14   15 1
    30   15   16 1
    31   15   42 1
    32   15   43 1
    33   16   17 1
    34   16   22 1
    35   16   18 1
    36   18   19 1
    37   18   44 1
    38   18   45 1
    39   19   20 1
    40   19   21 1
    41   21   22 1
    42   21   46 1
    43   21   47 1
    44   22   23 1
    45   22   59 1
    46   23   28 1
    47   23   24 1
    48   23   48 1
    49   24   25 1
    50   24   49 1
    51   24   50 1
    52   25   26 1
    53   25   51 1
    54   25   52 1
    55   26   27 1
    56   26   53 1
    57   26   54 1
    58   27   28 1
    59   27   55 1
    60   27   56 1
    61   28   57 1
    62   28   58 1
@<TRIPOS>MOLECULE
CHEMBL489707
   70    74     0     0     0
SMALL
USER_CHARGES

@<TRIPOS>ATOM
      1 C1         -0.2903    2.8166    0.4102 C.3       1 <0>        -0.1856
      2 C2          0.0139    1.3694    0.0177 C.3       1 <0>         0.1585
      3 H1         -0.8975    0.7745    0.0776 H         1 <0>         0.0854
      4 C3          0.5624    1.3283   -1.4126 C.3       1 <0>         0.0488
      5 N1          0.9964   -0.0392   -1.7281 N.3       1 <0>        -0.5363
      6 C4          2.0999   -0.4626   -0.8558 C.3       1 <0>         0.0389
      7 C5          1.6145   -0.4949    0.5973 C.3       1 <0>         0.1208
      8 N2          1.0274    0.8134    0.9271 N.pl3     1 <0>        -0.9963
      9 S1          1.4990    1.6407    2.2819 S.o2      1 <0>         2.6882
     10 O1          2.7264    1.0624    2.7041 O.2       1 <0>        -0.9599
     11 O2          1.3728    3.0231    1.9782 O.2       1 <0>        -0.9517
     12 C6          0.3182    1.2922    3.5425 C.ar      1 <0>        -0.6803
     13 C7         -0.7985    2.0946    3.6844 C.ar      1 <0>        -0.0231
     14 C8         -1.7248    1.8213    4.6733 C.ar      1 <0>        -0.1142
     15 C9         -1.5347    0.7453    5.5201 C.ar      1 <0>         0.0347
     16 C10        -0.4185   -0.0577    5.3776 C.ar      1 <0>        -0.1442
     17 C11         0.5056    0.2132    4.3859 C.ar      1 <0>        -0.0161
     18 C12        -2.5441    0.4478    6.5988 C.3       1 <0>        -0.0967
     19 C13        -3.3460   -0.8496    6.4778 C.3       1 <0>        -0.1536
     20 C14        -2.2500   -0.7237    7.5379 C.3       1 <0>        -0.1707
     21 C15        -3.2559    1.6661    7.1906 C.3       1 <0>         0.0936
     22 N3         -2.2577    2.6293    7.6742 N.3       1 <0>        -0.5304
     23 C16        -1.6078    2.1436    8.9002 C.3       1 <0>         0.0178
     24 C17        -0.5362    3.1469    9.3351 C.3       1 <0>         0.0625
     25 O3         -1.1380    4.4319    9.5139 O.3       1 <0>        -0.3847
     26 C18        -1.7797    4.9356    8.3392 C.3       1 <0>         0.0631
     27 C19        -2.8639    3.9505    7.8943 C.3       1 <0>         0.0176
     28 C20         1.3686   -0.1599   -3.1440 C.3       1 <0>         0.0624
     29 C21         1.5732   -1.6353   -3.4936 C.3       1 <0>        -0.0804
     30 C22         1.9550   -1.7591   -4.9462 C.ar      1 <0>        -0.0383
     31 C23         0.9839   -1.9015   -5.9256 C.ar      1 <0>        -0.1693
     32 C24         1.3718   -2.0122   -7.2474 C.ar      1 <0>         0.1005
     33 N4          2.6474   -1.9842   -7.5807 N.ar      1 <0>        -0.4888
     34 C25         3.5977   -1.8502   -6.6762 C.ar      1 <0>         0.1008
     35 C26         3.2853   -1.7277   -5.3355 C.ar      1 <0>        -0.1715
     36 H2          0.5720    3.4435    0.1832 H         1 <0>         0.0918
     37 H3         -1.1550    3.1711   -0.1508 H         1 <0>         0.0721
     38 H4         -0.5046    2.8661    1.4777 H         1 <0>         0.0718
     39 H5         -0.2180    1.6323   -2.1103 H         1 <0>         0.0895
     40 H6          1.4107    2.0076   -1.4965 H         1 <0>         0.0440
     41 H7          2.4347   -1.4574   -1.1497 H         1 <0>         0.0926
     42 H8          2.9268    0.2417   -0.9474 H         1 <0>         0.0426
     43 H9          0.8588   -1.2718    0.7137 H         1 <0>         0.0790
     44 H10         2.4560   -0.6965    1.2601 H         1 <0>         0.1001
     45 H11        -0.9470    2.9353    3.0228 H         1 <0>         0.1407
     46 H12        -2.5969    2.4486    4.7846 H         1 <0>         0.1289
     47 H13        -0.2699   -0.8981    6.0394 H         1 <0>         0.1306
     48 H14         1.3758   -0.4163    4.2722 H         1 <0>         0.1365
     49 H15        -4.3809   -0.8354    6.8196 H         1 <0>         0.1019
     50 H16        -3.1434   -1.4880    5.6178 H         1 <0>         0.1013
     51 H17        -1.3264   -1.2793    7.3755 H         1 <0>         0.1026
     52 H18        -2.5639   -0.6267    8.5772 H         1 <0>         0.0998
     53 H19        -3.8716    2.1354    6.4233 H         1 <0>         0.0830
     54 H20        -3.8878    1.3501    8.0206 H         1 <0>         0.0457
     55 H21        -2.3517    2.0404    9.6902 H         1 <0>         0.0420
     56 H22        -1.1439    1.1763    8.7075 H         1 <0>         0.0897
     57 H23        -0.0910    2.8196   10.2746 H         1 <0>         0.0978
     58 H24         0.2358    3.2101    8.5683 H         1 <0>         0.0597
     59 H25        -2.2339    5.9019    8.5585 H         1 <0>         0.0988
     60 H26        -1.0438    5.0508    7.5434 H         1 <0>         0.0607
     61 H27        -3.3169    4.3020    6.9673 H         1 <0>         0.0865
     62 H28        -3.6279    3.8761    8.6681 H         1 <0>         0.0436
     63 H29         0.5740    0.2538   -3.7651 H         1 <0>         0.0798
     64 H30         2.2934    0.3880   -3.3246 H         1 <0>         0.0386
     65 H31         2.3677   -2.0490   -2.8726 H         1 <0>         0.0786
     66 H32         0.6483   -2.1831   -3.3130 H         1 <0>         0.0880
     67 H33        -0.0623   -1.9258   -5.6588 H         1 <0>         0.1355
     68 H34         0.6216   -2.1234   -8.0163 H         1 <0>         0.1559
     69 H35         4.6318   -1.8319   -6.9872 H         1 <0>         0.1556
     70 H36         4.0678   -1.6132   -4.6000 H         1 <0>         0.1332
@<TRIPOS>BOND
     1    1    2 1
     2    1   36 1
     3    1   37 1
     4    1   38 1
     5    2    3 1
     6    2    8 1
     7    2    4 1
     8    4    5 1
     9    4   39 1
    10    4   40 1
    11    5    6 1
    12    5   28 1
    13    6    7 1
    14    6   41 1
    15    6   42 1
    16    7    8 1
    17    7   43 1
    18    7   44 1
    19    8    9 1
    20    9   10 2
    21    9   11 2
    22    9   12 1
    23   12   17 ar
    24   12   13 ar
    25   13   14 ar
    26   13   45 1
    27   14   15 ar
    28   14   46 1
    29   15   16 ar
    30   15   18 1
    31   16   17 ar
    32   16   47 1
    33   17   48 1
    34   18   20 1
    35   18   19 1
    36   18   21 1
    37   19   20 1
    38   19   49 1
    39   19   50 1
    40   20   51 1
    41   20   52 1
    42   21   22 1
    43   21   53 1
    44   21   54 1
    45   22   27 1
    46   22   23 1
    47   23   24 1
    48   23   55 1
    49   23   56 1
    50   24   25 1
    51   24   57 1
    52   24   58 1
    53   25   26 1
    54   26   27 1
    55   26   59 1
    56   26   60 1
    57   27   61 1
    58   27   62 1
    59   28   29 1
    60   28   63 1
    61   28   64 1
    62   29   30 1
    63   29   65 1
    64   29   66 1
    65   30   35 ar
    66   30   31 ar
    67   31   32 ar
    68   31   67 1
    69   32   33 ar
    70   32   68 1
    71   33   34 ar
    72   34   35 ar
    73   34   69 1
    74   35   70 1
@<TRIPOS>MOLECULE
CHEMBL489707__1
   71    75     0     0     0
SMALL
USER_CHARGES

@<TRIPOS>ATOM
      1 C1          0.1267   -1.2351    0.4339 C.3       1 <0>        -0.1885
      2 C2          0.9263   -2.3630    1.0892 C.3       1 <0>         0.1592
      3 H1          0.2460   -3.0476    1.5958 H         1 <0>         0.0840
      4 C3          1.7177   -3.1221    0.0188 C.3       1 <0>         0.0458
      5 N1          2.5998   -4.1007    0.6685 N.3       1 <0>        -0.5363
      6 C4          3.5969   -3.4372    1.5190 C.3       1 <0>         0.0360
      7 C5          2.8825   -2.6910    2.6509 C.3       1 <0>         0.1216
      8 N2          1.8729   -1.7970    2.0621 N.pl3     1 <0>        -0.9939
      9 S1          1.8077   -0.1956    2.4787 S.o2      1 <0>         2.6806
     10 O1          3.0591    0.1207    3.0732 O.2       1 <0>        -0.9491
     11 O2          1.3056    0.4988    1.3452 O.2       1 <0>        -0.9400
     12 C6          0.5936   -0.0358    3.7456 C.ar      1 <0>        -0.6654
     13 C7         -0.7264    0.2030    3.4118 C.ar      1 <0>        -0.0100
     14 C8         -1.6789    0.3283    4.4058 C.ar      1 <0>        -0.1318
     15 C9         -1.3114    0.2144    5.7335 C.ar      1 <0>        -0.0288
     16 C10         0.0084   -0.0253    6.0673 C.ar      1 <0>        -0.1501
     17 C11         0.9602   -0.1549    5.0732 C.ar      1 <0>        -0.0076
     18 C12        -2.3497    0.3520    6.8171 C.3       1 <0>        -0.1513
     19 C13        -2.8728    1.7576    7.1199 C.3       1 <0>        -0.1206
     20 C14        -3.7650    0.7493    6.3931 C.3       1 <0>        -0.1674
     21 C15        -2.2103   -0.6186    7.9916 C.3       1 <0>         0.0350
     22 N3         -2.2352   -1.9995    7.4912 N.4       1 <0>        -0.3853
     23 C16        -3.5794   -2.3142    6.9882 C.3       1 <0>        -0.0483
     24 C17        -3.6027   -3.7534    6.4673 C.3       1 <0>         0.0366
     25 O3         -3.2139   -4.6418    7.5187 O.3       1 <0>        -0.3545
     26 C18        -1.9197   -4.3603    8.0585 C.3       1 <0>         0.0361
     27 C19        -1.8933   -2.9223    8.5824 C.3       1 <0>        -0.0461
     28 C20         3.2482   -4.9664   -0.3255 C.3       1 <0>         0.0608
     29 C21         3.9554   -6.1207    0.3874 C.3       1 <0>        -0.0776
     30 C22         4.6206   -7.0088   -0.6323 C.ar      1 <0>        -0.0423
     31 C23         3.9401   -8.0787   -1.1933 C.ar      1 <0>        -0.1700
     32 C24         4.5826   -8.8714   -2.1254 C.ar      1 <0>         0.1023
     33 N4          5.8272   -8.6199   -2.4814 N.ar      1 <0>        -0.4862
     34 C25         6.5049   -7.6115   -1.9689 C.ar      1 <0>         0.1031
     35 C26         5.9257   -6.7721   -1.0360 C.ar      1 <0>        -0.1718
     36 H2          0.8000   -0.5984   -0.1401 H         1 <0>         0.1015
     37 H3         -0.6251   -1.6611   -0.2305 H         1 <0>         0.0766
     38 H4         -0.3644   -0.6421    1.2055 H         1 <0>         0.0624
     39 H5          1.0262   -3.6404   -0.6456 H         1 <0>         0.0922
     40 H6          2.3177   -2.4180   -0.5577 H         1 <0>         0.0466
     41 H7          4.2683   -4.1840    1.9427 H         1 <0>         0.0953
     42 H8          4.1707   -2.7287    0.9217 H         1 <0>         0.0454
     43 H9          2.3927   -3.4078    3.3100 H         1 <0>         0.0775
     44 H10         3.6063   -2.1043    3.2166 H         1 <0>         0.1005
     45 H11        -1.0134    0.2920    2.3745 H         1 <0>         0.1526
     46 H12        -2.7100    0.5156    4.1450 H         1 <0>         0.1410
     47 H13         0.2956   -0.1140    7.1046 H         1 <0>         0.1336
     48 H14         1.9907   -0.3459    5.3338 H         1 <0>         0.1481
     49 H15        -3.1177    1.9911    8.1560 H         1 <0>         0.1166
     50 H16        -2.4661    2.5827    6.5353 H         1 <0>         0.1170
     51 H17        -3.9452    0.9111    5.3303 H         1 <0>         0.1182
     52 H18        -4.5969    0.3195    6.9511 H         1 <0>         0.1139
     53 H19        -1.2663   -0.4350    8.5046 H         1 <0>         0.1385
     54 H20        -3.0366   -0.4690    8.6866 H         1 <0>         0.1395
     55 H21        -4.3039   -2.2081    7.7956 H         1 <0>         0.1403
     56 H22        -3.8340   -1.6303    6.1786 H         1 <0>         0.1430
     57 H23        -4.6097   -4.0034    6.1332 H         1 <0>         0.1430
     58 H24        -2.9074   -3.8500    5.6334 H         1 <0>         0.0798
     59 H25        -1.7086   -5.0495    8.8762 H         1 <0>         0.1440
     60 H26        -1.1668   -4.4776    7.2791 H         1 <0>         0.0805
     61 H27        -0.8962   -2.6897    8.9563 H         1 <0>         0.1429
     62 H28        -2.6184   -2.8159    9.3893 H         1 <0>         0.1415
     63 H29         2.4957   -5.3659   -1.0055 H         1 <0>         0.0816
     64 H30         3.9779   -4.3870   -0.8911 H         1 <0>         0.0412
     65 H31         4.7079   -5.7213    1.0674 H         1 <0>         0.0775
     66 H32         3.2257   -6.7001    0.9530 H         1 <0>         0.0864
     67 H33         2.9209   -8.2901   -0.9053 H         1 <0>         0.1347
     68 H34         4.0595   -9.7066   -2.5671 H         1 <0>         0.1569
     69 H35         7.5228   -7.4369   -2.2847 H         1 <0>         0.1569
     70 H36         6.4842   -5.9448   -0.6235 H         1 <0>         0.1330
     71 H37        -1.5644   -2.0988    6.7441 H         1 <0>         0.4212
@<TRIPOS>BOND
     1    1    2 1
     2    1   36 1
     3    1   37 1
     4    1   38 1
     5    2    3 1
     6    2    8 1
     7    2    4 1
     8    4    5 1
     9    4   39 1
    10    4   40 1
    11    5    6 1
    12    5   28 1
    13    6    7 1
    14    6   41 1
    15    6   42 1
    16    7    8 1
    17    7   43 1
    18    7   44 1
    19    8    9 1
    20    9   10 2
    21    9   11 2
    22    9   12 1
    23   12   17 ar
    24   12   13 ar
    25   13   14 ar
    26   13   45 1
    27   14   15 ar
    28   14   46 1
    29   15   16 ar
    30   15   18 1
    31   16   17 ar
    32   16   47 1
    33   17   48 1
    34   18   20 1
    35   18   19 1
    36   18   21 1
    37   19   20 1
    38   19   49 1
    39   19   50 1
    40   20   51 1
    41   20   52 1
    42   21   22 1
    43   21   53 1
    44   21   54 1
    45   22   27 1
    46   22   23 1
    47   22   71 1
    48   23   24 1
    49   23   55 1
    50   23   56 1
    51   24   25 1
    52   24   57 1
    53   24   58 1
    54   25   26 1
    55   26   27 1
    56   26   59 1
    57   26   60 1
    58   27   61 1
    59   27   62 1
    60   28   29 1
    61   28   63 1
    62   28   64 1
    63   29   30 1
    64   29   65 1
    65   29   66 1
    66   30   35 ar
    67   30   31 ar
    68   31   32 ar
    69   31   67 1
    70   32   33 ar
    71   32   68 1
    72   33   34 ar
    73   34   35 ar
    74   34   69 1
    75   35   70 1
@<TRIPOS>MOLECULE
CHEMBL374001
   46    48     0     0     0
SMALL
USER_CHARGES

@<TRIPOS>ATOM
      1 C1         -0.0169    1.3984    0.0097 C.ar      1 <0>         0.0084
      2 C2          1.1887    2.0703    0.0018 C.ar      1 <0>        -0.1876
      3 C3          2.3733    1.3415   -0.0134 C.ar      1 <0>         0.3512
      4 N1          2.3586    0.0176   -0.0204 N.ar      1 <0>        -0.5389
      5 C4          1.2321   -0.6639   -0.0133 C.ar      1 <0>         0.2000
      6 C5          0.0021   -0.0041    0.0020 C.ar      1 <0>        -0.1202
      7 C6         -1.2217   -0.7477    0.0102 C.1       1 <0>         0.2565
      8 N2         -2.1925   -1.3376    0.0167 N.1       1 <0>        -0.4066
      9 O1          3.5601    1.9963   -0.0217 O.3       1 <0>        -0.2950
     10 C7          4.7431    1.1949   -0.0372 C.3       1 <0>         0.0798
     11 C8          5.9744    2.1031   -0.0447 C.3       1 <0>        -0.1024
     12 C9          6.1503    2.7856   -1.4210 C.3       1 <0>        -0.1503
     13 C10         7.6482    2.8174   -1.6306 C.2       1 <0>         0.5179
     14 O2          8.2211    3.5101   -2.4447 O.2       1 <0>        -0.5229
     15 N3          8.2517    1.9664   -0.7830 N.am      1 <0>        -0.6209
     16 C11         7.2734    1.2742    0.0642 C.3       1 <0>         0.1121
     17 C12         9.7000    1.7570   -0.7137 C.3       1 <0>         0.1687
     18 C13        10.3761    3.0776   -0.2923 C.3       1 <0>        -0.1269
     19 C14        11.7370    2.7609    0.2662 C.3       1 <0>        -0.1163
     20 C15        12.8485    2.8636   -0.7957 C.3       1 <0>        -0.1178
     21 C16        12.4354    2.2628   -2.1529 C.3       1 <0>        -0.1235
     22 C17        11.6804    0.9697   -2.0045 C.3       1 <0>        -0.1090
     23 C18        10.1697    1.2810   -2.0063 C.3       1 <0>        -0.1418
     24 H1         -0.9517    1.9390    0.0260 H         1 <0>         0.1537
     25 H2          1.2119    3.1500    0.0070 H         1 <0>         0.1553
     26 H3          1.2600   -1.7435   -0.0193 H         1 <0>         0.1721
     27 H4          4.7644    0.5612    0.8494 H         1 <0>         0.0796
     28 H5          4.7471    0.5702   -0.9305 H         1 <0>         0.0773
     29 H6          5.9157    2.8430    0.7536 H         1 <0>         0.1051
     30 H7          5.6681    2.1983   -2.2024 H         1 <0>         0.1052
     31 H8          5.7466    3.7978   -1.3992 H         1 <0>         0.1065
     32 H9          7.6197    1.2497    1.0975 H         1 <0>         0.0858
     33 H10         7.1065    0.2615   -0.3026 H         1 <0>         0.0766
     34 H11         9.9108    0.9980    0.0398 H         1 <0>         0.0834
     35 H12        10.4791    3.7294   -1.1599 H         1 <0>         0.0789
     36 H13         9.7731    3.5707    0.4701 H         1 <0>         0.0648
     37 H14        11.9569    3.4572    1.0755 H         1 <0>         0.0625
     38 H15        11.7261    1.7478    0.6685 H         1 <0>         0.0608
     39 H16        13.1020    3.9140   -0.9387 H         1 <0>         0.0595
     40 H17        13.7313    2.3375   -0.4325 H         1 <0>         0.0596
     41 H18        11.8057    2.9803   -2.6792 H         1 <0>         0.0643
     42 H19        13.3318    2.0818   -2.7460 H         1 <0>         0.0596
     43 H20        11.9191    0.3087   -2.8377 H         1 <0>         0.0665
     44 H21        11.9546    0.4916   -1.0641 H         1 <0>         0.0660
     45 H22         9.6230    0.3753   -2.2690 H         1 <0>         0.0609
     46 H23         9.9674    2.0438   -2.7582 H         1 <0>         0.0816
@<TRIPOS>BOND
     1    1    6 ar
     2    1    2 ar
     3    1   24 1
     4    2    3 ar
     5    2   25 1
     6    3    4 ar
     7    3    9 1
     8    4    5 ar
     9    5    6 ar
    10    5   26 1
    11    6    7 1
    12    7    8 3
    13    9   10 1
    14   10   11 1
    15   10   27 1
    16   10   28 1
    17   11   16 1
    18   11   12 1
    19   11   29 1
    20   12   13 1
    21   12   30 1
    22   12   31 1
    23   13   14 2
    24   13   15 am
    25   15   16 1
    26   15   17 1
    27   16   32 1
    28   16   33 1
    29   17   23 1
    30   17   18 1
    31   17   34 1
    32   18   19 1
    33   18   35 1
    34   18   36 1
    35   19   20 1
    36   19   37 1
    37   19   38 1
    38   20   21 1
    39   20   39 1
    40   20   40 1
    41   21   22 1
    42   21   41 1
    43   21   42 1
    44   22   23 1
    45   22   43 1
    46   22   44 1
    47   23   45 1
    48   23   46 1
@<TRIPOS>MOLECULE
CHEMBL374001__1
   46    48     0     0     0
SMALL
USER_CHARGES

@<TRIPOS>ATOM
      1 C1         -0.0169    1.3984    0.0097 C.ar      1 <0>         0.0084
      2 C2          1.1887    2.0703    0.0018 C.ar      1 <0>        -0.1877
      3 C3          2.3733    1.3415   -0.0134 C.ar      1 <0>         0.3512
      4 N1          2.3586    0.0176   -0.0204 N.ar      1 <0>        -0.5386
      5 C4          1.2321   -0.6639   -0.0133 C.ar      1 <0>         0.2000
      6 C5          0.0021   -0.0041    0.0020 C.ar      1 <0>        -0.1205
      7 C6         -1.2217   -0.7477    0.0102 C.1       1 <0>         0.2568
      8 N2         -2.1925   -1.3376    0.0167 N.1       1 <0>        -0.4067
      9 O1          3.5601    1.9963   -0.0217 O.3       1 <0>        -0.2956
     10 C7          4.7431    1.1949   -0.0372 C.3       1 <0>         0.0768
     11 C8          5.9744    2.1031   -0.0447 C.3       1 <0>        -0.1023
     12 C9          6.1771    2.7717    1.3348 C.3       1 <0>        -0.1520
     13 C10         7.1284    1.8454    2.0598 C.2       1 <0>         0.5167
     14 O2          7.3259    1.8503    3.2564 O.2       1 <0>        -0.5232
     15 N3          7.7225    1.0156    1.1849 N.am      1 <0>        -0.6222
     16 C11         7.2710    1.2755   -0.1872 C.3       1 <0>         0.1112
     17 C12         8.6956   -0.0156    1.5535 C.3       1 <0>         0.1688
     18 C13         8.0078   -1.0454    2.4730 C.3       1 <0>        -0.1267
     19 C14         8.8006   -2.3238    2.4356 C.3       1 <0>        -0.1161
     20 C15         9.8274   -2.4143    3.5806 C.3       1 <0>        -0.1178
     21 C16        10.5610   -1.0829    3.8318 C.3       1 <0>        -0.1234
     22 C17        10.9468   -0.3881    2.5541 C.3       1 <0>        -0.1090
     23 C18         9.8385    0.6213    2.1910 C.3       1 <0>        -0.1415
     24 H1         -0.9517    1.9390    0.0260 H         1 <0>         0.1539
     25 H2          1.2119    3.1500    0.0070 H         1 <0>         0.1554
     26 H3          1.2600   -1.7435   -0.0193 H         1 <0>         0.1717
     27 H4          4.7644    0.5612    0.8494 H         1 <0>         0.0733
     28 H5          4.7471    0.5702   -0.9305 H         1 <0>         0.0787
     29 H6          5.9002    2.8510   -0.8341 H         1 <0>         0.1120
     30 H7          6.6218    3.7600    1.2180 H         1 <0>         0.1093
     31 H8          5.2294    2.8395    1.8689 H         1 <0>         0.1059
     32 H9          7.0645    0.3364   -0.7006 H         1 <0>         0.0840
     33 H10         8.0245    1.8456   -0.7307 H         1 <0>         0.0829
     34 H11         9.0327   -0.5217    0.6490 H         1 <0>         0.0832
     35 H12         7.9778   -0.6628    3.4932 H         1 <0>         0.0785
     36 H13         6.9940   -1.2327    2.1192 H         1 <0>         0.0644
     37 H14         8.1138   -3.1670    2.5104 H         1 <0>         0.0624
     38 H15         9.3277   -2.3842    1.4835 H         1 <0>         0.0608
     39 H16         9.3105   -2.7086    4.4940 H         1 <0>         0.0593
     40 H17        10.5630   -3.1798    3.3334 H         1 <0>         0.0595
     41 H18         9.9105   -0.4252    4.4083 H         1 <0>         0.0642
     42 H19        11.4625   -1.2809    4.4116 H         1 <0>         0.0594
     43 H20        11.8905    0.1391    2.6946 H         1 <0>         0.0664
     44 H21        11.0498   -1.1220    1.7548 H         1 <0>         0.0659
     45 H22        10.2500    1.3686    1.5125 H         1 <0>         0.0609
     46 H23         9.5030    1.1196    3.1005 H         1 <0>         0.0815
@<TRIPOS>BOND
     1    1    6 ar
     2    1    2 ar
     3    1   24 1
     4    2    3 ar
     5    2   25 1
     6    3    4 ar
     7    3    9 1
     8    4    5 ar
     9    5    6 ar
    10    5   26 1
    11    6    7 1
    12    7    8 3
    13    9   10 1
    14   10   11 1
    15   10   27 1
    16   10   28 1
    17   11   16 1
    18   11   12 1
    19   11   29 1
    20   12   13 1
    21   12   30 1
    22   12   31 1
    23   13   14 2
    24   13   15 am
    25   15   16 1
    26   15   17 1
    27   16   32 1
    28   16   33 1
    29   17   23 1
    30   17   18 1
    31   17   34 1
    32   18   19 1
    33   18   35 1
    34   18   36 1
    35   19   20 1
    36   19   37 1
    37   19   38 1
    38   20   21 1
    39   20   39 1
    40   20   40 1
    41   21   22 1
    42   21   41 1
    43   21   42 1
    44   22   23 1
    45   22   43 1
    46   22   44 1
    47   23   45 1
    48   23   46 1
@<TRIPOS>MOLECULE
CHEMBL554502
   50    54     0     0     0
SMALL
USER_CHARGES

@<TRIPOS>ATOM
      1 C1         -0.0005    1.4210    0.0272 C.ar      1 <0>        -0.1154
      2 C2          1.1923    2.1197    0.0036 C.ar      1 <0>        -0.1223
      3 C3          2.3889    1.4340   -0.0108 C.ar      1 <0>        -0.1152
      4 C4          2.4071    0.0451   -0.0007 C.ar      1 <0>        -0.0657
      5 C5          1.2174   -0.6513    0.0256 C.ar      1 <0>        -0.0680
      6 C6          0.0147    0.0416    0.0373 C.ar      1 <0>        -0.1212
      7 C7          1.1664   -2.1564    0.0493 C.3       1 <0>        -0.0830
      8 C8          2.4892   -2.7505   -0.4301 C.3       1 <0>        -0.1216
      9 C9          3.6296   -2.1104    0.3722 C.3       1 <0>        -0.1038
     10 C10         3.7368   -0.6472   -0.0229 C.3       1 <0>        -0.0261
     11 C11         4.7374    0.0872    0.8971 C.3       1 <0>        -0.1261
     12 C12         6.1021   -0.2389    0.2518 C.3       1 <0>         0.1020
     13 N1          5.8463   -0.6086   -1.1484 N.am      1 <0>        -0.6096
     14 C13         4.3975   -0.5054   -1.4088 C.3       1 <0>         0.1195
     15 C14         6.7808   -0.9798   -2.0458 C.2       1 <0>         0.5710
     16 O1          6.4468   -1.3489   -3.1517 O.2       1 <0>        -0.5281
     17 C15         8.2408   -0.9361   -1.6750 C.3       1 <0>        -0.1194
     18 C16         9.1005   -2.1461   -2.0463 C.3       1 <0>        -0.1308
     19 C17         8.7219   -1.8961   -0.5851 C.3       1 <0>        -0.1590
     20 C18         8.8875    0.4236   -1.7397 C.ar      1 <0>        -0.0346
     21 C19         9.9432    0.7272   -0.9005 C.ar      1 <0>        -0.1039
     22 C20        10.5367    1.9740   -0.9594 C.ar      1 <0>        -0.1044
     23 C21        10.0740    2.9184   -1.8584 C.ar      1 <0>        -0.0352
     24 C22         9.0173    2.6139   -2.6980 C.ar      1 <0>        -0.1030
     25 C23         8.4283    1.3648   -2.6421 C.ar      1 <0>        -0.0965
     26 Cl1        10.8185    4.4848   -1.9325 Cl        1 <0>        -0.0666
     27 H1         -0.9402    1.9530    0.0422 H         1 <0>         0.1225
     28 H2          1.1871    3.1997   -0.0040 H         1 <0>         0.1222
     29 H3          3.3196    1.9815   -0.0305 H         1 <0>         0.1224
     30 H4         -0.9173   -0.5039    0.0549 H         1 <0>         0.1214
     31 H5          0.9701   -2.4928    1.0674 H         1 <0>         0.0776
     32 H6          0.3624   -2.4986   -0.6022 H         1 <0>         0.0757
     33 H7          2.4870   -3.8282   -0.2674 H         1 <0>         0.0714
     34 H8          2.6232   -2.5376   -1.4907 H         1 <0>         0.0673
     35 H9          3.4151   -2.1869    1.4382 H         1 <0>         0.0720
     36 H10         4.5665   -2.6200    0.1471 H         1 <0>         0.0697
     37 H11         4.5531    1.1614    0.8879 H         1 <0>         0.0851
     38 H12         4.6873   -0.3053    1.9127 H         1 <0>         0.0884
     39 H13         6.7496    0.6371    0.2915 H         1 <0>         0.0719
     40 H14         6.5701   -1.0723    0.7757 H         1 <0>         0.0728
     41 H15         4.0722   -1.3099   -2.0683 H         1 <0>         0.0843
     42 H16         4.1587    0.4643   -1.8455 H         1 <0>         0.0713
     43 H17         8.6100   -2.9737   -2.5587 H         1 <0>         0.1078
     44 H18        10.1340   -1.9588   -2.3376 H         1 <0>         0.1089
     45 H19         9.5064   -1.5443    0.0849 H         1 <0>         0.1106
     46 H20         7.9824   -2.5592   -0.1362 H         1 <0>         0.1042
     47 H21        10.3042   -0.0099   -0.1985 H         1 <0>         0.1361
     48 H22        11.3613    2.2112   -0.3035 H         1 <0>         0.1369
     49 H23         8.6554    3.3508   -3.3998 H         1 <0>         0.1358
     50 H24         7.6066    1.1254   -3.3008 H         1 <0>         0.1301
@<TRIPOS>BOND
     1    1    6 ar
     2    1    2 ar
     3    1   27 1
     4    2    3 ar
     5    2   28 1
     6    3    4 ar
     7    3   29 1
     8    4   10 1
     9    4    5 ar
    10    5    6 ar
    11    5    7 1
    12    6   30 1
    13    7    8 1
    14    7   31 1
    15    7   32 1
    16    8    9 1
    17    8   33 1
    18    8   34 1
    19    9   10 1
    20    9   35 1
    21    9   36 1
    22   10   14 1
    23   10   11 1
    24   11   12 1
    25   11   37 1
    26   11   38 1
    27   12   13 1
    28   12   39 1
    29   12   40 1
    30   13   14 1
    31   13   15 am
    32   14   41 1
    33   14   42 1
    34   15   16 2
    35   15   17 1
    36   17   19 1
    37   17   18 1
    38   17   20 1
    39   18   19 1
    40   18   43 1
    41   18   44 1
    42   19   45 1
    43   19   46 1
    44   20   25 ar
    45   20   21 ar
    46   21   22 ar
    47   21   47 1
    48   22   23 ar
    49   22   48 1
    50   23   24 ar
    51   23   26 1
    52   24   25 ar
    53   24   49 1
    54   25   50 1
@<TRIPOS>MOLECULE
CHEMBL554502__1
   50    54     0     0     0
SMALL
USER_CHARGES

@<TRIPOS>ATOM
      1 C1         -0.0233    1.2997   -0.0308 C.ar      1 <0>        -0.1160
      2 C2          1.1615    2.0122   -0.0467 C.ar      1 <0>        -0.1213
      3 C3          2.3658    1.3398   -0.0484 C.ar      1 <0>        -0.1166
      4 C4          2.3999   -0.0486   -0.0326 C.ar      1 <0>        -0.0651
      5 C5          1.2184   -0.7584   -0.0122 C.ar      1 <0>        -0.0686
      6 C6          0.0074   -0.0793   -0.0142 C.ar      1 <0>        -0.1212
      7 C7          1.1831   -2.2636    0.0197 C.3       1 <0>        -0.0835
      8 C8          2.5184   -2.8463   -0.4383 C.3       1 <0>        -0.1194
      9 C9          3.6410   -2.1851    0.3718 C.3       1 <0>        -0.1073
     10 C10         3.7394   -0.7248   -0.0426 C.3       1 <0>        -0.0248
     11 C11         4.3786   -0.6124   -1.4458 C.3       1 <0>        -0.1213
     12 C12         5.8892   -0.6808   -1.1050 C.3       1 <0>         0.0990
     13 N1          6.0238    0.0508    0.1684 N.am      1 <0>        -0.6097
     14 C13         4.7274    0.0281    0.8643 C.3       1 <0>         0.1141
     15 C14         7.1478    0.6415    0.6202 C.2       1 <0>         0.5699
     16 O1          7.1221    1.2909    1.6442 O.2       1 <0>        -0.5281
     17 C15         8.4366    0.4951   -0.1470 C.3       1 <0>        -0.1191
     18 C16         9.2763    1.7555   -0.3645 C.3       1 <0>        -0.1302
     19 C17         8.5095    1.1358   -1.5345 C.3       1 <0>        -0.1607
     20 C18         9.1716   -0.8043    0.0588 C.ar      1 <0>        -0.0342
     21 C19         9.9600   -1.3199   -0.9529 C.ar      1 <0>        -0.1038
     22 C20        10.6343   -2.5117   -0.7647 C.ar      1 <0>        -0.1043
     23 C21        10.5201   -3.1885    0.4366 C.ar      1 <0>        -0.0352
     24 C22         9.7309   -2.6719    1.4487 C.ar      1 <0>        -0.1029
     25 C23         9.0616   -1.4773    1.2614 C.ar      1 <0>        -0.0962
     26 Cl1        11.3663   -4.6857    0.6735 Cl        1 <0>        -0.0667
     27 H1         -0.9692    1.8208   -0.0268 H         1 <0>         0.1224
     28 H2          1.1440    3.0920   -0.0581 H         1 <0>         0.1221
     29 H3          3.2904    1.8978   -0.0624 H         1 <0>         0.1214
     30 H4         -0.9183   -0.6354   -0.0023 H         1 <0>         0.1214
     31 H5          0.9765   -2.5962    1.0369 H         1 <0>         0.0773
     32 H6          0.3916   -2.6181   -0.6407 H         1 <0>         0.0756
     33 H7          2.5271   -3.9224   -0.2654 H         1 <0>         0.0717
     34 H8          2.6628   -2.6415   -1.4991 H         1 <0>         0.0686
     35 H9          3.4117   -2.2493    1.4355 H         1 <0>         0.0709
     36 H10         4.5858   -2.6884    0.1669 H         1 <0>         0.0721
     37 H11         4.0824   -1.4492   -2.0784 H         1 <0>         0.0912
     38 H12         4.1265    0.3386   -1.9151 H         1 <0>         0.0806
     39 H13         6.2036   -1.7172   -0.9819 H         1 <0>         0.0725
     40 H14         6.4762   -0.1957   -1.8848 H         1 <0>         0.0827
     41 H15         4.3770    1.0469    1.0295 H         1 <0>         0.0789
     42 H16         4.8268   -0.4919    1.8171 H         1 <0>         0.0724
     43 H17         8.8966    2.6905    0.0473 H         1 <0>         0.1080
     44 H18        10.3607    1.6450   -0.3586 H         1 <0>         0.1092
     45 H19         9.0893    0.6177   -2.2983 H         1 <0>         0.1111
     46 H20         7.6252    1.6632   -1.8924 H         1 <0>         0.1048
     47 H21        10.0487   -0.7917   -1.8907 H         1 <0>         0.1360
     48 H22        11.2499   -2.9146   -1.5553 H         1 <0>         0.1369
     49 H23         9.6412   -3.2000    2.3865 H         1 <0>         0.1357
     50 H24         8.4493   -1.0715    2.0531 H         1 <0>         0.1299
@<TRIPOS>BOND
     1    1    6 ar
     2    1    2 ar
     3    1   27 1
     4    2    3 ar
     5    2   28 1
     6    3    4 ar
     7    3   29 1
     8    4   10 1
     9    4    5 ar
    10    5    6 ar
    11    5    7 1
    12    6   30 1
    13    7    8 1
    14    7   31 1
    15    7   32 1
    16    8    9 1
    17    8   33 1
    18    8   34 1
    19    9   10 1
    20    9   35 1
    21    9   36 1
    22   10   14 1
    23   10   11 1
    24   11   12 1
    25   11   37 1
    26   11   38 1
    27   12   13 1
    28   12   39 1
    29   12   40 1
    30   13   14 1
    31   13   15 am
    32   14   41 1
    33   14   42 1
    34   15   16 2
    35   15   17 1
    36   17   19 1
    37   17   18 1
    38   17   20 1
    39   18   19 1
    40   18   43 1
    41   18   44 1
    42   19   45 1
    43   19   46 1
    44   20   25 ar
    45   20   21 ar
    46   21   22 ar
    47   21   47 1
    48   22   23 ar
    49   22   48 1
    50   23   24 ar
    51   23   26 1
    52   24   25 ar
    53   24   49 1
    54   25   50 1
@<TRIPOS>MOLECULE
CHEMBL553071
   48    50     0     0     0
SMALL
USER_CHARGES

@<TRIPOS>ATOM
      1 C1         -0.0184    1.5028    0.0103 C.3       1 <0>        -0.1505
      2 C2          0.0021   -0.0041    0.0020 C.ar      1 <0>         0.0373
      3 C3          0.0058   -0.6888   -1.1988 C.ar      1 <0>        -0.6188
      4 C4          0.0246   -2.0709   -1.2066 C.ar      1 <0>        -0.0194
      5 C5          0.0396   -2.7693   -0.0135 C.ar      1 <0>        -0.1402
      6 C6          0.0359   -2.0859    1.1877 C.ar      1 <0>        -0.0627
      7 C7          0.0229   -0.7022    1.1960 C.ar      1 <0>        -0.0650
      8 Cl1         0.0249    0.1571    2.7045 Cl        1 <0>        -0.0666
      9 S1         -0.0140    0.2004   -2.7199 S.o2      1 <0>         2.6221
     10 O1          0.9983    1.1930   -2.6232 O.2       1 <0>        -0.9998
     11 O2         -0.0326   -0.7702   -3.7575 O.2       1 <0>        -1.0066
     12 N1         -1.4595    1.0046   -2.7981 N.2       1 <0>        -1.0116
     13 C8         -1.7542    1.7949   -3.8981 C.2       1 <0>         0.4397
     14 N2         -2.8385    2.5042   -4.1285 N.2       1 <0>        -0.5844
     15 C9         -2.9676    3.2119   -5.2370 C.2       1 <0>         0.1188
     16 C10        -1.9384    3.1719   -6.1167 C.2       1 <0>        -0.3056
     17 S2         -0.8093    2.0863   -5.2599 S.3       1 <0>        -0.1085
     18 C11        -4.2053    4.0270   -5.5105 C.3       1 <0>        -0.0531
     19 C12        -5.4209    3.1410   -5.4182 C.2       1 <0>         0.5215
     20 O3         -5.2946    1.9636   -5.1561 O.2       1 <0>        -0.4670
     21 N3         -6.6483    3.6570   -5.6269 N.am      1 <0>        -0.6445
     22 C13        -6.8250    5.0808   -5.9521 C.3       1 <0>         0.0859
     23 C14        -7.7143    5.1883   -7.1952 C.3       1 <0>        -0.0224
     24 N4         -8.9678    4.4595   -6.9636 N.4       1 <0>        -0.3850
     25 C15        -8.6903    3.0270   -6.7991 C.3       1 <0>        -0.0191
     26 C16        -7.8489    2.8112   -5.5419 C.3       1 <0>         0.0882
     27 C17        -9.8645    4.6541   -8.1108 C.3       1 <0>        -0.0457
     28 H1          1.0042    1.8801    0.0026 H         1 <0>         0.0930
     29 H2         -0.5455    1.8639   -0.8728 H         1 <0>         0.0969
     30 H3         -0.5286    1.8543    0.9071 H         1 <0>         0.0803
     31 H4          0.0271   -2.6054   -2.1450 H         1 <0>         0.1469
     32 H5          0.0539   -3.8492   -0.0201 H         1 <0>         0.1392
     33 H6          0.0474   -2.6316    2.1196 H         1 <0>         0.1378
     34 H7         -1.8293    3.6641   -7.0718 H         1 <0>         0.1703
     35 H8         -4.2828    4.8279   -4.7752 H         1 <0>         0.1055
     36 H9         -4.1439    4.4565   -6.5104 H         1 <0>         0.1021
     37 H10        -7.3019    5.5912   -5.1153 H         1 <0>         0.0940
     38 H11        -5.8545    5.5331   -6.1558 H         1 <0>         0.1320
     39 H12        -7.9352    6.2370   -7.3945 H         1 <0>         0.1418
     40 H13        -7.1959    4.7568   -8.0514 H         1 <0>         0.1337
     41 H14        -9.6303    2.4830   -6.7066 H         1 <0>         0.1405
     42 H15        -8.1423    2.6609   -7.6673 H         1 <0>         0.1324
     43 H16        -7.5550    1.7637   -5.4746 H         1 <0>         0.1348
     44 H17        -8.4309    3.0885   -4.6630 H         1 <0>         0.0896
     45 H18        -9.3856    4.2768   -9.0143 H         1 <0>         0.1210
     46 H19       -10.7955    4.1135   -7.9401 H         1 <0>         0.1232
     47 H20       -10.0777    5.7165   -8.2291 H         1 <0>         0.1235
     48 H21        -9.4117    4.8128   -6.1292 H         1 <0>         0.4244
@<TRIPOS>BOND
     1    1    2 1
     2    1   28 1
     3    1   29 1
     4    1   30 1
     5    2    7 ar
     6    2    3 ar
     7    3    4 ar
     8    3    9 1
     9    4    5 ar
    10    4   31 1
    11    5    6 ar
    12    5   32 1
    13    6    7 ar
    14    6   33 1
    15    7    8 1
    16    9   10 2
    17    9   11 2
    18    9   12 1
    19   12   13 1
    20   13   17 1
    21   13   14 2
    22   14   15 1
    23   15   16 2
    24   15   18 1
    25   16   17 1
    26   16   34 1
    27   18   19 1
    28   18   35 1
    29   18   36 1
    30   19   20 2
    31   19   21 am
    32   21   26 1
    33   21   22 1
    34   22   23 1
    35   22   37 1
    36   22   38 1
    37   23   24 1
    38   23   39 1
    39   23   40 1
    40   24   25 1
    41   24   27 1
    42   24   48 1
    43   25   26 1
    44   25   41 1
    45   25   42 1
    46   26   43 1
    47   26   44 1
    48   27   45 1
    49   27   46 1
    50   27   47 1
@<TRIPOS>MOLECULE
CHEMBL553071__1
   47    49     0     0     0
SMALL
USER_CHARGES

@<TRIPOS>ATOM
      1 C1         -0.0184    1.5028    0.0103 C.3       1 <0>        -0.1514
      2 C2          0.0021   -0.0041    0.0020 C.ar      1 <0>         0.0387
      3 C3          0.0058   -0.6888   -1.1988 C.ar      1 <0>        -0.6158
      4 C4          0.0246   -2.0709   -1.2066 C.ar      1 <0>        -0.0194
      5 C5          0.0396   -2.7693   -0.0135 C.ar      1 <0>        -0.1418
      6 C6          0.0359   -2.0859    1.1877 C.ar      1 <0>        -0.0652
      7 C7          0.0229   -0.7022    1.1960 C.ar      1 <0>        -0.0652
      8 Cl1         0.0249    0.1571    2.7045 Cl        1 <0>        -0.0695
      9 S1         -0.0140    0.2004   -2.7199 S.o2      1 <0>         2.6184
     10 O1          0.9983    1.1930   -2.6232 O.2       1 <0>        -1.0035
     11 O2         -0.0326   -0.7702   -3.7575 O.2       1 <0>        -1.0088
     12 N1         -1.4595    1.0046   -2.7981 N.2       1 <0>        -1.0119
     13 C8         -1.7542    1.7949   -3.8981 C.2       1 <0>         0.4373
     14 N2         -2.8385    2.5042   -4.1285 N.2       1 <0>        -0.5747
     15 C9         -2.9676    3.2119   -5.2370 C.2       1 <0>         0.1320
     16 C10        -1.9384    3.1719   -6.1167 C.2       1 <0>        -0.3056
     17 S2         -0.8093    2.0863   -5.2599 S.3       1 <0>        -0.1254
     18 C11        -4.2053    4.0270   -5.5105 C.3       1 <0>        -0.0571
     19 C12        -5.4209    3.1410   -5.4182 C.2       1 <0>         0.5185
     20 O3         -5.2946    1.9636   -5.1561 O.2       1 <0>        -0.4998
     21 N3         -6.6483    3.6570   -5.6269 N.am      1 <0>        -0.6273
     22 C13        -6.8234    5.0807   -5.9519 C.3       1 <0>         0.1133
     23 C14        -7.6969    5.1898   -7.2062 C.3       1 <0>         0.0393
     24 N4         -8.9442    4.4425   -6.9969 N.3       1 <0>        -0.5437
     25 C15        -8.6814    3.0098   -6.8063 C.3       1 <0>         0.0417
     26 C16        -7.8478    2.8101   -5.5416 C.3       1 <0>         0.1183
     27 C17        -9.8822    4.6627   -8.1058 C.3       1 <0>         0.0256
     28 H1          1.0042    1.8801    0.0026 H         1 <0>         0.0919
     29 H2         -0.5455    1.8639   -0.8728 H         1 <0>         0.0999
     30 H3         -0.5286    1.8543    0.9071 H         1 <0>         0.0799
     31 H4          0.0271   -2.6054   -2.1450 H         1 <0>         0.1467
     32 H5          0.0539   -3.8492   -0.0201 H         1 <0>         0.1377
     33 H6          0.0474   -2.6316    2.1196 H         1 <0>         0.1360
     34 H7         -1.8293    3.6641   -7.0718 H         1 <0>         0.1702
     35 H8         -4.2828    4.8279   -4.7752 H         1 <0>         0.1015
     36 H9         -4.1439    4.4565   -6.5104 H         1 <0>         0.0985
     37 H10        -7.3117    5.5888   -5.1203 H         1 <0>         0.0749
     38 H11        -5.8511    5.5351   -6.1421 H         1 <0>         0.0907
     39 H12        -7.9285    6.2375   -7.3981 H         1 <0>         0.0859
     40 H13        -7.1619    4.7729   -8.0594 H         1 <0>         0.0395
     41 H14        -9.6269    2.4765   -6.7082 H         1 <0>         0.0849
     42 H15        -8.1327    2.6233   -7.6651 H         1 <0>         0.0380
     43 H16        -7.5523    1.7640   -5.4608 H         1 <0>         0.0953
     44 H17        -8.4364    3.0957   -4.6698 H         1 <0>         0.0702
     45 H18        -9.4271    4.3290   -9.0383 H         1 <0>         0.0246
     46 H19       -10.7969    4.0980   -7.9255 H         1 <0>         0.0681
     47 H20       -10.1186    5.7244   -8.1763 H         1 <0>         0.0686
@<TRIPOS>BOND
     1    1    2 1
     2    1   28 1
     3    1   29 1
     4    1   30 1
     5    2    7 ar
     6    2    3 ar
     7    3    4 ar
     8    3    9 1
     9    4    5 ar
    10    4   31 1
    11    5    6 ar
    12    5   32 1
    13    6    7 ar
    14    6   33 1
    15    7    8 1
    16    9   10 2
    17    9   11 2
    18    9   12 1
    19   12   13 1
    20   13   17 1
    21   13   14 2
    22   14   15 1
    23   15   16 2
    24   15   18 1
    25   16   17 1
    26   16   34 1
    27   18   19 1
    28   18   35 1
    29   18   36 1
    30   19   20 2
    31   19   21 am
    32   21   26 1
    33   21   22 1
    34   22   23 1
    35   22   37 1
    36   22   38 1
    37   23   24 1
    38   23   39 1
    39   23   40 1
    40   24   25 1
    41   24   27 1
    42   25   26 1
    43   25   41 1
    44   25   42 1
    45   26   43 1
    46   26   44 1
    47   27   45 1
    48   27   46 1
    49   27   47 1
@<TRIPOS>MOLECULE
CHEMBL480941
   51    54     0     0     0
SMALL
USER_CHARGES

@<TRIPOS>ATOM
      1 C1          0.1532    1.3294    0.4035 C.3       1 <0>        -0.1608
      2 C2          0.1799   -0.1867    0.6073 C.3       1 <0>         0.1270
      3 H1          0.7025   -0.6586   -0.2247 H         1 <0>         0.1098
      4 C3         -1.2557   -0.7213    0.6830 C.3       1 <0>         0.1378
      5 N1         -1.8569   -0.2750    1.9477 N.pl3     1 <0>        -0.6785
      6 C4         -1.1710   -0.5912    3.2084 C.3       1 <0>         0.1336
      7 C5          0.2646   -0.0567    3.1327 C.3       1 <0>         0.1002
      8 N2          0.8694   -0.5031    1.8660 N.pl3     1 <0>        -0.9874
      9 S1          2.2936   -1.3482    1.8575 S.o2      1 <0>         2.6877
     10 O1          2.4081   -1.9640    3.1330 O.2       1 <0>        -0.9456
     11 O2          2.3169   -2.0925    0.6473 O.2       1 <0>        -0.9435
     12 C6          3.5984   -0.1690    1.7486 C.ar      1 <0>        -0.6514
     13 C7          4.0622    0.2357    0.5102 C.ar      1 <0>        -0.0210
     14 C8          5.0861    1.1603    0.4210 C.ar      1 <0>        -0.1063
     15 C9          5.6489    1.6828    1.5694 C.ar      1 <0>        -0.0738
     16 C10         5.1852    1.2788    2.8135 C.ar      1 <0>         0.1149
     17 C11         4.1530    0.3544    2.9000 C.ar      1 <0>        -0.0303
     18 N3          5.7546    1.8075    3.9813 N.pl3     1 <0>        -0.4342
     19 C12         5.4173    1.5104    5.2679 C.2       1 <0>         0.1603
     20 N4          6.1899    2.2211    6.0436 N.2       1 <0>        -0.2833
     21 N5          6.9835    2.9390    5.3315 N.2       1 <0>        -0.2842
     22 C13         6.7635    2.7201    4.0637 C.2       1 <0>         0.1597
     23 C14        -3.0596    0.4379    1.9513 C.ar      1 <0>         0.2148
     24 C15        -3.0448    1.8268    1.9643 C.ar      1 <0>        -0.0988
     25 C16        -4.2340    2.5290    1.9674 C.ar      1 <0>        -0.1133
     26 C17        -5.4406    1.8494    1.9576 C.ar      1 <0>         0.0981
     27 C18        -5.4577    0.4651    1.9446 C.ar      1 <0>        -0.1020
     28 C19        -4.2706   -0.2413    1.9362 C.ar      1 <0>        -0.1657
     29 C20        -4.2899   -1.7480    1.9157 C.3       1 <0>         0.5173
     30 F1         -5.6096   -2.1991    2.0256 F         1 <0>        -0.1782
     31 F2         -3.7394   -2.2052    0.7136 F         1 <0>        -0.1724
     32 F3         -3.5385   -2.2386    2.9890 F         1 <0>        -0.1694
     33 F4         -6.6028    2.5383    1.9611 F         1 <0>        -0.1293
     34 H2          1.1727    1.6992    0.2939 H         1 <0>         0.0571
     35 H3         -0.4174    1.5652   -0.4948 H         1 <0>         0.0701
     36 H4         -0.3147    1.8038    1.2661 H         1 <0>         0.0657
     37 H5         -1.8352   -0.3331   -0.1546 H         1 <0>         0.0878
     38 H6         -1.2427   -1.8106    0.6484 H         1 <0>         0.0682
     39 H7         -1.6945   -0.1171    4.0386 H         1 <0>         0.0874
     40 H8         -1.1520   -1.6713    3.3536 H         1 <0>         0.0699
     41 H9          0.2516    1.0327    3.1673 H         1 <0>         0.0762
     42 H10         0.8441   -0.4449    3.9703 H         1 <0>         0.1011
     43 H11         3.6240   -0.1717   -0.3889 H         1 <0>         0.1501
     44 H12         5.4466    1.4743   -0.5475 H         1 <0>         0.1492
     45 H13         6.4492    2.4045    1.4990 H         1 <0>         0.1434
     46 H14         3.7874    0.0413    3.8668 H         1 <0>         0.1488
     47 H15         4.6533    0.8166    5.5861 H         1 <0>         0.2249
     48 H16         7.2822    3.1786    3.2347 H         1 <0>         0.2239
     49 H17        -2.1041    2.3572    1.9723 H         1 <0>         0.1453
     50 H18        -4.2230    3.6088    1.9778 H         1 <0>         0.1468
     51 H19        -6.3999   -0.0628    1.9370 H         1 <0>         0.1521
@<TRIPOS>BOND
     1    1    2 1
     2    1   34 1
     3    1   35 1
     4    1   36 1
     5    2    3 1
     6    2    8 1
     7    2    4 1
     8    4    5 1
     9    4   37 1
    10    4   38 1
    11    5    6 1
    12    5   23 1
    13    6    7 1
    14    6   39 1
    15    6   40 1
    16    7    8 1
    17    7   41 1
    18    7   42 1
    19    8    9 1
    20    9   10 2
    21    9   11 2
    22    9   12 1
    23   12   17 ar
    24   12   13 ar
    25   13   14 ar
    26   13   43 1
    27   14   15 ar
    28   14   44 1
    29   15   16 ar
    30   15   45 1
    31   16   17 ar
    32   16   18 1
    33   17   46 1
    34   18   22 1
    35   18   19 1
    36   19   20 2
    37   19   47 1
    38   20   21 1
    39   21   22 2
    40   22   48 1
    41   23   28 ar
    42   23   24 ar
    43   24   25 ar
    44   24   49 1
    45   25   26 ar
    46   25   50 1
    47   26   27 ar
    48   26   33 1
    49   27   28 ar
    50   27   51 1
    51   28   29 1
    52   29   30 1
    53   29   31 1
    54   29   32 1
@<TRIPOS>MOLECULE
CHEMBL495889
   57    61     0     0     0
SMALL
USER_CHARGES

@<TRIPOS>ATOM
      1 C1         -1.0212    1.3516    0.2271 C.3       1 <0>         0.0660
      2 N1         -0.3634    0.0469    0.1206 N.pl3     1 <0>        -0.4635
      3 C2          0.1331   -0.5376   -1.0135 C.2       1 <0>         0.2033
      4 N2          0.6353   -1.6997   -0.6579 N.2       1 <0>        -0.2505
      5 N3          0.4831   -1.8691    0.6071 N.2       1 <0>        -0.2805
      6 C3         -0.1144   -0.8319    1.1297 C.2       1 <0>         0.2060
      7 C4         -0.4666   -0.6440    2.5829 C.3       1 <0>         0.0354
      8 C5         -0.4093   -1.9433    3.4035 C.3       1 <0>        -0.1062
      9 C6         -1.6812   -1.4559    4.1173 C.3       1 <0>        -0.1380
     10 C7         -1.9804   -0.6327    2.8533 C.3       1 <0>        -0.1318
     11 C8          0.2689    0.5071    3.2192 C.ar      1 <0>        -0.0604
     12 C9          1.6437    0.4580    3.3552 C.ar      1 <0>        -0.0889
     13 C10         2.3189    1.5134    3.9388 C.ar      1 <0>        -0.1057
     14 C11         1.6185    2.6192    4.3868 C.ar      1 <0>        -0.0316
     15 C12         0.2425    2.6678    4.2504 C.ar      1 <0>        -0.1074
     16 C13        -0.4309    1.6142    3.6616 C.ar      1 <0>        -0.1038
     17 Cl1         2.4657    3.9450    5.1204 Cl        1 <0>        -0.0652
     18 C14         0.1085    0.0295   -2.3783 C.ar      1 <0>        -0.0069
     19 C15         0.2721    1.4035   -2.5672 C.ar      1 <0>        -0.0880
     20 C16         0.2496    1.9309   -3.8386 C.ar      1 <0>        -0.1049
     21 C17         0.0629    1.0937   -4.9390 C.ar      1 <0>        -0.0177
     22 C18        -0.1006   -0.2784   -4.7527 C.ar      1 <0>        -0.1035
     23 C19        -0.0727   -0.8095   -3.4809 C.ar      1 <0>         0.0056
     24 Cl2        -0.2691   -2.5187   -3.2488 Cl        1 <0>        -0.0276
     25 C20         0.0379    1.6637   -6.3078 C.ar      1 <0>        -0.0691
     26 C21         0.2064    3.0345   -6.4981 C.ar      1 <0>        -0.0519
     27 C22         0.1822    3.5593   -7.7740 C.ar      1 <0>        -0.1335
     28 C23        -0.0088    2.7279   -8.8633 C.ar      1 <0>        -0.0173
     29 C24        -0.1764    1.3672   -8.6805 C.ar      1 <0>        -0.6553
     30 C25        -0.1483    0.8304   -7.4092 C.ar      1 <0>        -0.0122
     31 S1         -0.4190    0.3162  -10.0737 S.o2      1 <0>         2.4974
     32 O1         -1.1398   -0.7983   -9.5660 O.2       1 <0>        -0.9338
     33 O2         -0.9902    1.1568  -11.0670 O.2       1 <0>        -0.9342
     34 C26         1.2499   -0.1926  -10.5701 C.3       1 <0>        -0.6499
     35 H1         -0.2913    2.1029    0.5289 H         1 <0>         0.0850
     36 H2         -1.4453    1.6247   -0.7392 H         1 <0>         0.0950
     37 H3         -1.8162    1.2981    0.9708 H         1 <0>         0.0932
     38 H4         -0.5607   -2.8432    2.8075 H         1 <0>         0.1006
     39 H5          0.4605   -2.0087    4.0573 H         1 <0>         0.0794
     40 H6         -2.4070   -2.2472    4.3050 H         1 <0>         0.0788
     41 H7         -1.4810   -0.8461    4.9983 H         1 <0>         0.0868
     42 H8         -2.3791    0.3598    3.0629 H         1 <0>         0.0804
     43 H9         -2.5614   -1.1744    2.1069 H         1 <0>         0.0903
     44 H10         2.1903   -0.4054    3.0057 H         1 <0>         0.1339
     45 H11         3.3929    1.4748    4.0453 H         1 <0>         0.1364
     46 H12        -0.3048    3.5306    4.6003 H         1 <0>         0.1369
     47 H13        -1.5045    1.6541    3.5508 H         1 <0>         0.1375
     48 H14         0.4159    2.0523   -1.7159 H         1 <0>         0.1357
     49 H15         0.3761    2.9935   -3.9843 H         1 <0>         0.1399
     50 H16        -0.2451   -0.9256   -5.6051 H         1 <0>         0.1471
     51 H17         0.3552    3.6844   -5.6485 H         1 <0>         0.1365
     52 H18         0.3122    4.6211   -7.9226 H         1 <0>         0.1393
     53 H19        -0.0273    3.1431   -9.8601 H         1 <0>         0.1461
     54 H20        -0.2749   -0.2329   -7.2680 H         1 <0>         0.1462
     55 H21         1.7292   -0.7203   -9.7455 H         1 <0>         0.1327
     56 H22         1.1864   -0.8522  -11.4355 H         1 <0>         0.1354
     57 H23         1.8370    0.6890  -10.8274 H         1 <0>         0.1325
@<TRIPOS>BOND
     1    1    2 1
     2    1   35 1
     3    1   36 1
     4    1   37 1
     5    2    6 1
     6    2    3 1
     7    3    4 2
     8    3   18 1
     9    4    5 1
    10    5    6 2
    11    6    7 1
    12    7   10 1
    13    7    8 1
    14    7   11 1
    15    8    9 1
    16    8   38 1
    17    8   39 1
    18    9   10 1
    19    9   40 1
    20    9   41 1
    21   10   42 1
    22   10   43 1
    23   11   16 ar
    24   11   12 ar
    25   12   13 ar
    26   12   44 1
    27   13   14 ar
    28   13   45 1
    29   14   15 ar
    30   14   17 1
    31   15   16 ar
    32   15   46 1
    33   16   47 1
    34   18   23 ar
    35   18   19 ar
    36   19   20 ar
    37   19   48 1
    38   20   21 ar
    39   20   49 1
    40   21   22 ar
    41   21   25 1
    42   22   23 ar
    43   22   50 1
    44   23   24 1
    45   25   30 ar
    46   25   26 ar
    47   26   27 ar
    48   26   51 1
    49   27   28 ar
    50   27   52 1
    51   28   29 ar
    52   28   53 1
    53   29   30 ar
    54   29   31 1
    55   30   54 1
    56   31   32 2
    57   31   33 2
    58   31   34 1
    59   34   55 1
    60   34   56 1
    61   34   57 1
@<TRIPOS>MOLECULE
CHEMBL198906
   60    65     0     0     0
SMALL
USER_CHARGES

@<TRIPOS>ATOM
      1 C1         -1.6490    0.8550   -0.1445 C.3       1 <0>         0.0619
      2 N1         -0.7141   -0.2702   -0.0659 N.pl3     1 <0>        -0.4627
      3 C2         -0.0558   -0.8707   -1.1047 C.2       1 <0>         0.1849
      4 N2          0.6780   -1.8320   -0.5898 N.2       1 <0>        -0.2505
      5 N3          0.5178   -1.8643    0.6852 N.2       1 <0>        -0.2799
      6 C3         -0.3164   -0.9302    1.0557 C.2       1 <0>         0.2034
      7 C4         -0.7597   -0.6387    2.4663 C.3       1 <0>         0.0322
      8 C5         -0.5519    0.8465    2.7695 C.3       1 <0>        -0.1126
      9 C6         -1.0019    1.1424    4.2016 C.3       1 <0>        -0.0994
     10 C7         -1.5097   -0.1455    4.8531 C.3       1 <0>         0.0402
     11 C8         -0.3854   -1.1830    4.8759 C.3       1 <0>        -0.1014
     12 C9          0.0646   -1.4789    3.4438 C.3       1 <0>        -0.0934
     13 C10        -2.6916   -0.6918    4.0497 C.3       1 <0>        -0.0979
     14 C11        -2.2416   -0.9877    2.6176 C.3       1 <0>        -0.1072
     15 C12        -1.9529    0.1460    6.2636 C.2       1 <0>         0.2446
     16 N4         -2.4435   -0.7482    7.1173 N.2       1 <0>        -0.5195
     17 C13        -2.7302   -0.1610    8.2616 C.2       1 <0>         0.3293
     18 N5         -2.4160    1.1495    8.1437 N.pl3     1 <0>        -0.4780
     19 H1         -2.5155    1.8352    8.8225 H         1 <0>         0.4412
     20 N6         -1.9109    1.3172    6.8441 N.2       1 <0>        -0.3017
     21 C14        -3.2949   -0.8176    9.4610 C.ar      1 <0>        -0.0483
     22 C15        -3.5677   -2.1859    9.4469 C.ar      1 <0>        -0.0337
     23 C16        -4.0942   -2.7932   10.5676 C.ar      1 <0>        -0.1534
     24 C17        -4.3526   -2.0468   11.7064 C.ar      1 <0>         0.1228
     25 C18        -4.0834   -0.6875   11.7255 C.ar      1 <0>        -0.1522
     26 C19        -3.5511   -0.0718   10.6120 C.ar      1 <0>        -0.0680
     27 F1         -4.8692   -2.6463   12.8014 F         1 <0>        -0.1316
     28 C20        -0.1518   -0.5069   -2.5355 C.ar      1 <0>         0.0350
     29 C21        -0.0249    0.8257   -2.9296 C.ar      1 <0>        -0.1023
     30 C22        -0.1155    1.1584   -4.2653 C.ar      1 <0>        -0.0846
     31 C23        -0.3317    0.1741   -5.2134 C.ar      1 <0>        -0.1051
     32 C24        -0.4583   -1.1487   -4.8292 C.ar      1 <0>        -0.0704
     33 C25        -0.3639   -1.4952   -3.4968 C.ar      1 <0>        -0.1470
     34 C26        -0.4958   -2.9376   -3.0805 C.3       1 <0>         0.5043
     35 F2         -0.7015   -3.7329   -4.2129 F         1 <0>        -0.1796
     36 F3          0.6747   -3.3445   -2.4312 F         1 <0>        -0.1482
     37 F4         -1.5832   -3.0744   -2.2109 F         1 <0>        -0.1787
     38 H2         -1.1096    1.7878    0.0200 H         1 <0>         0.0877
     39 H3         -2.1138    0.8730   -1.1303 H         1 <0>         0.0934
     40 H4         -2.4193    0.7413    0.6183 H         1 <0>         0.0986
     41 H5          0.5038    1.0952    2.6617 H         1 <0>         0.0734
     42 H6         -1.1391    1.4451    2.0731 H         1 <0>         0.0679
     43 H7         -0.1599    1.5316    4.7739 H         1 <0>         0.0751
     44 H8         -1.8029    1.8816    4.1853 H         1 <0>         0.0735
     45 H9          0.4566   -0.7938    5.4482 H         1 <0>         0.0677
     46 H10        -0.7471   -2.1005    5.3400 H         1 <0>         0.0807
     47 H11        -0.0834   -2.5370    3.2278 H         1 <0>         0.0814
     48 H12         1.1203   -1.2303    3.3360 H         1 <0>         0.0755
     49 H13        -3.0533   -1.6093    4.5138 H         1 <0>         0.0820
     50 H14        -3.4925    0.0474    4.0334 H         1 <0>         0.0673
     51 H15        -2.8288   -0.3891    1.9212 H         1 <0>         0.0651
     52 H16        -2.3896   -2.0458    2.4016 H         1 <0>         0.0770
     53 H17        -3.3673   -2.7683    8.5597 H         1 <0>         0.1519
     54 H18        -4.3057   -3.8523   10.5577 H         1 <0>         0.1470
     55 H19        -4.2870   -0.1101   12.6152 H         1 <0>         0.1453
     56 H20        -3.3372    0.9867   10.6295 H         1 <0>         0.1325
     57 H21         0.1435    1.5949   -2.1905 H         1 <0>         0.1350
     58 H22        -0.0178    2.1895   -4.5716 H         1 <0>         0.1409
     59 H23        -0.4022    0.4397   -6.2579 H         1 <0>         0.1420
     60 H24        -0.6269   -1.9124   -5.5740 H         1 <0>         0.1471
@<TRIPOS>BOND
     1    1    2 1
     2    1   38 1
     3    1   39 1
     4    1   40 1
     5    2    6 1
     6    2    3 1
     7    3    4 2
     8    3   28 1
     9    4    5 1
    10    5    6 2
    11    6    7 1
    12    7   12 1
    13    7   14 1
    14    7    8 1
    15    8    9 1
    16    8   41 1
    17    8   42 1
    18    9   10 1
    19    9   43 1
    20    9   44 1
    21   10   11 1
    22   10   13 1
    23   10   15 1
    24   11   12 1
    25   11   45 1
    26   11   46 1
    27   12   47 1
    28   12   48 1
    29   13   14 1
    30   13   49 1
    31   13   50 1
    32   14   51 1
    33   14   52 1
    34   15   20 2
    35   15   16 1
    36   16   17 2
    37   17   18 1
    38   17   21 1
    39   18   19 1
    40   18   20 1
    41   21   26 ar
    42   21   22 ar
    43   22   23 ar
    44   22   53 1
    45   23   24 ar
    46   23   54 1
    47   24   25 ar
    48   24   27 1
    49   25   26 ar
    50   25   55 1
    51   26   56 1
    52   28   33 ar
    53   28   29 ar
    54   29   30 ar
    55   29   57 1
    56   30   31 ar
    57   30   58 1
    58   31   32 ar
    59   31   59 1
    60   32   33 ar
    61   32   60 1
    62   33   34 1
    63   34   35 1
    64   34   36 1
    65   34   37 1
@<TRIPOS>MOLECULE
CHEMBL198906__1
   60    65     0     0     0
SMALL
USER_CHARGES

@<TRIPOS>ATOM
      1 C1         -1.6490    0.8550   -0.1445 C.3       1 <0>         0.0616
      2 N1         -0.7141   -0.2702   -0.0659 N.pl3     1 <0>        -0.4624
      3 C2         -0.0558   -0.8707   -1.1047 C.2       1 <0>         0.1879
      4 N2          0.6780   -1.8320   -0.5898 N.2       1 <0>        -0.2503
      5 N3          0.5178   -1.8643    0.6852 N.2       1 <0>        -0.2794
      6 C3         -0.3164   -0.9302    1.0557 C.2       1 <0>         0.2004
      7 C4         -0.7597   -0.6387    2.4663 C.3       1 <0>         0.0325
      8 C5         -0.5519    0.8465    2.7695 C.3       1 <0>        -0.1154
      9 C6         -1.0019    1.1424    4.2016 C.3       1 <0>        -0.0904
     10 C7         -1.5097   -0.1455    4.8531 C.3       1 <0>         0.0217
     11 C8         -0.3854   -1.1830    4.8759 C.3       1 <0>        -0.1067
     12 C9          0.0646   -1.4789    3.4438 C.3       1 <0>        -0.0931
     13 C10        -2.6916   -0.6918    4.0497 C.3       1 <0>        -0.1087
     14 C11        -2.2416   -0.9877    2.6176 C.3       1 <0>        -0.1066
     15 C12        -1.9529    0.1460    6.2636 C.2       1 <0>         0.3038
     16 N4         -1.6716    1.2238    6.9470 N.2       1 <0>        -0.5232
     17 C13        -2.2276    1.1472    8.1636 C.2       1 <0>         0.2701
     18 N5         -2.8733    0.0058    8.2608 N.2       1 <0>        -0.3006
     19 H1         -3.0722   -1.5223    6.7883 H         1 <0>         0.4420
     20 N6         -2.7107   -0.6560    7.0329 N.pl3     1 <0>        -0.4757
     21 C14        -2.1304    2.1792    9.2256 C.ar      1 <0>        -0.0280
     22 C15        -1.4172    3.3538    8.9951 C.ar      1 <0>        -0.0455
     23 C16        -1.3298    4.3110    9.9851 C.ar      1 <0>        -0.1580
     24 C17        -1.9495    4.1052   11.2070 C.ar      1 <0>         0.1155
     25 C18        -2.6593    2.9385   11.4405 C.ar      1 <0>        -0.1573
     26 C19        -2.7570    1.9789   10.4539 C.ar      1 <0>        -0.0547
     27 F1         -1.8610    5.0447   12.1738 F         1 <0>        -0.1353
     28 C20        -0.1518   -0.5069   -2.5355 C.ar      1 <0>         0.0332
     29 C21        -0.0249    0.8257   -2.9296 C.ar      1 <0>        -0.1017
     30 C22        -0.1155    1.1584   -4.2653 C.ar      1 <0>        -0.0844
     31 C23        -0.3317    0.1741   -5.2134 C.ar      1 <0>        -0.1043
     32 C24        -0.4583   -1.1487   -4.8292 C.ar      1 <0>        -0.0704
     33 C25        -0.3639   -1.4952   -3.4968 C.ar      1 <0>        -0.1468
     34 C26        -0.4958   -2.9376   -3.0805 C.3       1 <0>         0.5043
     35 F2         -0.7015   -3.7329   -4.2129 F         1 <0>        -0.1792
     36 F3          0.6747   -3.3445   -2.4312 F         1 <0>        -0.1483
     37 F4         -1.5832   -3.0744   -2.2109 F         1 <0>        -0.1793
     38 H2         -1.1096    1.7878    0.0200 H         1 <0>         0.0889
     39 H3         -2.1138    0.8730   -1.1303 H         1 <0>         0.0940
     40 H4         -2.4193    0.7413    0.6183 H         1 <0>         0.0980
     41 H5          0.5038    1.0952    2.6617 H         1 <0>         0.0761
     42 H6         -1.1391    1.4451    2.0731 H         1 <0>         0.0694
     43 H7         -0.1599    1.5316    4.7739 H         1 <0>         0.0856
     44 H8         -1.8029    1.8816    4.1853 H         1 <0>         0.0756
     45 H9          0.4566   -0.7938    5.4482 H         1 <0>         0.0786
     46 H10        -0.7471   -2.1005    5.3400 H         1 <0>         0.0701
     47 H11        -0.0834   -2.5370    3.2278 H         1 <0>         0.0823
     48 H12         1.1203   -1.2303    3.3360 H         1 <0>         0.0800
     49 H13        -3.0533   -1.6093    4.5138 H         1 <0>         0.0704
     50 H14        -3.4925    0.0474    4.0334 H         1 <0>         0.0768
     51 H15        -2.8288   -0.3891    1.9212 H         1 <0>         0.0694
     52 H16        -2.3896   -2.0458    2.4016 H         1 <0>         0.0786
     53 H17        -0.9332    3.5147    8.0431 H         1 <0>         0.1464
     54 H18        -0.7771    5.2217    9.8073 H         1 <0>         0.1427
     55 H19        -3.1406    2.7819   12.3946 H         1 <0>         0.1423
     56 H20        -3.3145    1.0718   10.6350 H         1 <0>         0.1413
     57 H21         0.1435    1.5949   -2.1905 H         1 <0>         0.1353
     58 H22        -0.0178    2.1895   -4.5716 H         1 <0>         0.1414
     59 H23        -0.4022    0.4397   -6.2579 H         1 <0>         0.1424
     60 H24        -0.6269   -1.9124   -5.5740 H         1 <0>         0.1473
@<TRIPOS>BOND
     1    1    2 1
     2    1   38 1
     3    1   39 1
     4    1   40 1
     5    2    6 1
     6    2    3 1
     7    3    4 2
     8    3   28 1
     9    4    5 1
    10    5    6 2
    11    6    7 1
    12    7   12 1
    13    7   14 1
    14    7    8 1
    15    8    9 1
    16    8   41 1
    17    8   42 1
    18    9   10 1
    19    9   43 1
    20    9   44 1
    21   10   11 1
    22   10   13 1
    23   10   15 1
    24   11   12 1
    25   11   45 1
    26   11   46 1
    27   12   47 1
    28   12   48 1
    29   13   14 1
    30   13   49 1
    31   13   50 1
    32   14   51 1
    33   14   52 1
    34   15   16 2
    35   15   20 1
    36   16   17 1
    37   17   21 1
    38   17   18 2
    39   18   20 1
    40   19   20 1
    41   21   26 ar
    42   21   22 ar
    43   22   23 ar
    44   22   53 1
    45   23   24 ar
    46   23   54 1
    47   24   25 ar
    48   24   27 1
    49   25   26 ar
    50   25   55 1
    51   26   56 1
    52   28   33 ar
    53   28   29 ar
    54   29   30 ar
    55   29   57 1
    56   30   31 ar
    57   30   58 1
    58   31   32 ar
    59   31   59 1
    60   32   33 ar
    61   32   60 1
    62   33   34 1
    63   34   35 1
    64   34   36 1
    65   34   37 1
@<TRIPOS>MOLECULE
CHEMBL468988
   42    43     0     0     0
SMALL
USER_CHARGES

@<TRIPOS>ATOM
      1 C1         -0.0187    1.5258    0.0104 C.3       1 <0>        -0.1477
      2 C2          0.0021   -0.0041    0.0020 C.3       1 <0>        -0.1358
      3 C3         -1.4333   -0.5336    0.0129 C.3       1 <0>        -0.0852
      4 C4         -1.4126   -2.0635    0.0045 C.3       1 <0>        -0.0986
      5 C5         -0.4021   -2.6126    1.0054 C.2       1 <0>         0.5482
      6 O1         -0.4766   -2.4312    2.2050 O.2       1 <0>        -0.4614
      7 N1          0.5540   -3.3008    0.4347 N.2       1 <0>        -0.6891
      8 C6          0.6459   -3.5052   -0.8664 C.2       1 <0>         0.4801
      9 S1         -0.6755   -2.7176   -1.5495 S.3       1 <0>        -0.1059
     10 N2          1.6127   -4.2093   -1.5220 N.pl3     1 <0>        -0.6423
     11 C7          2.7007   -4.8366   -0.7677 C.3       1 <0>         0.1492
     12 C8          3.7807   -3.7756   -0.4731 C.3       1 <0>        -0.1217
     13 C9          4.6098   -4.2479    0.6905 C.3       1 <0>        -0.1163
     14 C10         5.8779   -5.0002    0.2437 C.3       1 <0>        -0.1196
     15 C11         5.6194   -5.9605   -0.9331 C.3       1 <0>        -0.1222
     16 C12         4.3301   -6.7215   -0.7828 C.3       1 <0>        -0.1086
     17 C13         3.2202   -5.9589   -1.5350 C.3       1 <0>        -0.1352
     18 C14        -2.8098   -2.6383    0.2460 C.3       1 <0>        -0.1194
     19 H1          1.0039    1.9031    0.0027 H         1 <0>         0.0567
     20 H2         -0.5459    1.8868   -0.8726 H         1 <0>         0.0568
     21 H3         -0.5289    1.8773    0.9072 H         1 <0>         0.0570
     22 H4          0.5123   -0.3556   -0.8948 H         1 <0>         0.0662
     23 H5          0.5293   -0.3651    0.8851 H         1 <0>         0.0643
     24 H6         -1.9435   -0.1821    0.9097 H         1 <0>         0.0931
     25 H7         -1.9605   -0.1726   -0.8702 H         1 <0>         0.0832
     26 H8          1.5799   -4.2947   -2.4876 H         1 <0>         0.4225
     27 H9          2.3057   -5.2081    0.1779 H         1 <0>         0.0985
     28 H10         4.4174   -3.6483   -1.3486 H         1 <0>         0.0700
     29 H11         3.3042   -2.8279   -0.2224 H         1 <0>         0.0705
     30 H12         4.9038   -3.3846    1.2875 H         1 <0>         0.0645
     31 H13         4.0049   -4.9119    1.3080 H         1 <0>         0.0652
     32 H14         6.6315   -4.2719   -0.0558 H         1 <0>         0.0599
     33 H15         6.2620   -5.5735    1.0874 H         1 <0>         0.0614
     34 H16         5.5829   -5.3838   -1.8573 H         1 <0>         0.0614
     35 H17         6.4433   -6.6714   -0.9956 H         1 <0>         0.0623
     36 H18         4.4419   -7.7188   -1.2082 H         1 <0>         0.0718
     37 H19         4.0709   -6.7978    0.2731 H         1 <0>         0.0718
     38 H20         2.4031   -6.6472   -1.7511 H         1 <0>         0.0711
     39 H21         3.6237   -5.5862   -2.4765 H         1 <0>         0.0712
     40 H22        -3.4842   -2.2958   -0.5389 H         1 <0>         0.0772
     41 H23        -2.7617   -3.7272    0.2342 H         1 <0>         0.0680
     42 H24        -3.1788   -2.3014    1.2147 H         1 <0>         0.0870
@<TRIPOS>BOND
     1    1    2 1
     2    1   19 1
     3    1   20 1
     4    1   21 1
     5    2    3 1
     6    2   22 1
     7    2   23 1
     8    3    4 1
     9    3   24 1
    10    3   25 1
    11    4    9 1
    12    4    5 1
    13    4   18 1
    14    5    6 2
    15    5    7 1
    16    7    8 2
    17    8    9 1
    18    8   10 1
    19   10   11 1
    20   10   26 1
    21   11   17 1
    22   11   12 1
    23   11   27 1
    24   12   13 1
    25   12   28 1
    26   12   29 1
    27   13   14 1
    28   13   30 1
    29   13   31 1
    30   14   15 1
    31   14   32 1
    32   14   33 1
    33   15   16 1
    34   15   34 1
    35   15   35 1
    36   16   17 1
    37   16   36 1
    38   16   37 1
    39   17   38 1
    40   17   39 1
    41   18   40 1
    42   18   41 1
    43   18   42 1
@<TRIPOS>MOLECULE
CHEMBL468988__1
   42    43     0     0     0
SMALL
USER_CHARGES

@<TRIPOS>ATOM
      1 C1         -0.0187    1.5258    0.0104 C.3       1 <0>        -0.1477
      2 C2          0.0021   -0.0041    0.0020 C.3       1 <0>        -0.1361
      3 C3         -1.4333   -0.5336    0.0129 C.3       1 <0>        -0.0851
      4 C4         -1.4126   -2.0635    0.0045 C.3       1 <0>        -0.0986
      5 C5         -0.4215   -2.6018   -1.0214 C.2       1 <0>         0.5482
      6 O1         -0.5184   -2.4068   -2.2173 O.2       1 <0>        -0.4614
      7 N1          0.5453   -3.2959   -0.4765 N.2       1 <0>        -0.6891
      8 C6          0.6620   -3.5143    0.8203 C.2       1 <0>         0.4801
      9 S1         -0.6460   -2.7342    1.5370 S.3       1 <0>        -0.1060
     10 N2          1.6406   -4.2259    1.4496 N.pl3     1 <0>        -0.6423
     11 C7          2.7140   -4.8449    0.6680 C.3       1 <0>         0.1492
     12 C8          2.2088   -6.1873    0.1010 C.3       1 <0>        -0.1218
     13 C9          3.0698   -6.5641   -1.0741 C.3       1 <0>        -0.1164
     14 C10         4.2314   -7.4958   -0.6789 C.3       1 <0>        -0.1196
     15 C11         4.9050   -7.0829    0.6439 C.3       1 <0>        -0.1223
     16 C12         5.0888   -5.5936    0.7561 C.3       1 <0>        -0.1086
     17 C13         3.8835   -5.0070    1.5191 C.3       1 <0>        -0.1351
     18 C14        -2.8142   -2.6358   -0.2165 C.3       1 <0>        -0.1194
     19 H1          1.0039    1.9031    0.0027 H         1 <0>         0.0568
     20 H2         -0.5459    1.8868   -0.8726 H         1 <0>         0.0571
     21 H3         -0.5289    1.8773    0.9072 H         1 <0>         0.0568
     22 H4          0.5123   -0.3556   -0.8948 H         1 <0>         0.0642
     23 H5          0.5293   -0.3651    0.8851 H         1 <0>         0.0662
     24 H6         -1.9435   -0.1821    0.9097 H         1 <0>         0.0833
     25 H7         -1.9605   -0.1726   -0.8702 H         1 <0>         0.0931
     26 H8          1.6259   -4.3222    2.4147 H         1 <0>         0.4225
     27 H9          2.9702   -4.1867   -0.1622 H         1 <0>         0.0986
     28 H10         2.2785   -6.9584    0.8683 H         1 <0>         0.0701
     29 H11         1.1733   -6.0816   -0.2227 H         1 <0>         0.0703
     30 H12         2.4515   -7.0672   -1.8175 H         1 <0>         0.0646
     31 H13         3.4805   -5.6562   -1.5158 H         1 <0>         0.0653
     32 H14         3.8484   -8.5111   -0.5763 H         1 <0>         0.0599
     33 H15         4.9783   -7.4827   -1.4727 H         1 <0>         0.0615
     34 H16         4.2891   -7.4258    1.4753 H         1 <0>         0.0614
     35 H17         5.8807   -7.5645    0.7081 H         1 <0>         0.0623
     36 H18         6.0075   -5.3783    1.3017 H         1 <0>         0.0718
     37 H19         5.1401   -5.1549   -0.2404 H         1 <0>         0.0718
     38 H20         4.1621   -4.0347    1.9252 H         1 <0>         0.0711
     39 H21         3.6300   -5.6727    2.3442 H         1 <0>         0.0712
     40 H22        -3.2016   -2.2885   -1.1743 H         1 <0>         0.0870
     41 H23        -2.7660   -3.7247   -0.2173 H         1 <0>         0.0679
     42 H24        -3.4734   -2.3019    0.5847 H         1 <0>         0.0771
@<TRIPOS>BOND
     1    1    2 1
     2    1   19 1
     3    1   20 1
     4    1   21 1
     5    2    3 1
     6    2   22 1
     7    2   23 1
     8    3    4 1
     9    3   24 1
    10    3   25 1
    11    4    9 1
    12    4    5 1
    13    4   18 1
    14    5    6 2
    15    5    7 1
    16    7    8 2
    17    8    9 1
    18    8   10 1
    19   10   11 1
    20   10   26 1
    21   11   17 1
    22   11   12 1
    23   11   27 1
    24   12   13 1
    25   12   28 1
    26   12   29 1
    27   13   14 1
    28   13   30 1
    29   13   31 1
    30   14   15 1
    31   14   32 1
    32   14   33 1
    33   15   16 1
    34   15   34 1
    35   15   35 1
    36   16   17 1
    37   16   36 1
    38   16   37 1
    39   17   38 1
    40   17   39 1
    41   18   40 1
    42   18   41 1
    43   18   42 1
@<TRIPOS>MOLECULE
CHEMBL549419
   65    68     0     0     0
SMALL
USER_CHARGES

@<TRIPOS>ATOM
      1 C1          2.0262   -5.5826   -4.4740 C.3       1 <0>        -0.1461
      2 C2          1.3954   -4.8613   -3.2812 C.3       1 <0>        -0.1089
      3 C3          1.4734   -3.3490   -3.5003 C.3       1 <0>        -0.1493
      4 C4         -0.0694   -5.2823   -3.1471 C.3       1 <0>         0.1234
      5 N1         -0.6402   -4.6855   -1.9371 N.am      1 <0>        -0.7333
      6 C5         -1.9272   -4.9197   -1.6128 C.2       1 <0>         0.5113
      7 O1         -2.6128   -5.6246   -2.3227 O.2       1 <0>        -0.5372
      8 C6         -2.5144   -4.3057   -0.3681 C.3       1 <0>        -0.1419
      9 C7         -4.0139   -4.6044   -0.3106 C.3       1 <0>        -0.0200
     10 C8         -4.6117   -4.0575    1.0021 C.3       1 <0>        -0.1096
     11 C9         -5.6659   -5.1166    1.4096 C.3       1 <0>        -0.1284
     12 C10        -4.9806   -6.4493    1.0182 C.3       1 <0>        -0.1295
     13 C11        -4.2484   -6.1252   -0.3004 C.3       1 <0>        -0.1015
     14 C12        -4.7200   -3.9733   -1.5122 C.3       1 <0>        -0.1391
     15 C13        -4.5153   -2.4804   -1.4881 C.2       1 <0>         0.5137
     16 O2         -3.9576   -1.9600   -0.5451 O.2       1 <0>        -0.5362
     17 N2         -4.9519   -1.7237   -2.5142 N.am      1 <0>        -0.7262
     18 C14        -4.7529   -0.2724   -2.4907 C.3       1 <0>         0.1590
     19 C15        -5.8933    0.3861   -1.7117 C.3       1 <0>        -0.0939
     20 C16        -7.2265    0.0651   -2.3903 C.3       1 <0>        -0.1063
     21 C17        -7.2115    0.6011   -3.8232 C.3       1 <0>        -0.0870
     22 C18        -7.0037    2.1168   -3.7987 C.3       1 <0>        -0.1081
     23 C19        -5.6705    2.4378   -3.1201 C.3       1 <0>        -0.0882
     24 C20        -5.6855    1.9018   -1.6872 C.3       1 <0>        -0.1065
     25 C21        -4.5302    1.7792   -3.8991 C.3       1 <0>        -0.1051
     26 C22        -4.7380    0.2636   -3.9237 C.3       1 <0>        -0.0928
     27 C23        -6.0712   -0.0574   -4.6022 C.3       1 <0>        -0.1093
     28 H1          3.0698   -5.2826   -4.5696 H         1 <0>         0.0610
     29 H2          1.9706   -6.6599   -4.3180 H         1 <0>         0.0582
     30 H3          1.4876   -5.3191   -5.3843 H         1 <0>         0.0582
     31 H4          1.9340   -5.1248   -2.3710 H         1 <0>         0.0763
     32 H5          1.0240   -2.8352   -2.6506 H         1 <0>         0.0540
     33 H6          2.5169   -3.0491   -3.5959 H         1 <0>         0.0589
     34 H7          0.9348   -3.0855   -4.4106 H         1 <0>         0.0569
     35 H8         -0.6271   -4.9401   -4.0189 H         1 <0>         0.0660
     36 H9         -0.1306   -6.3685   -3.0801 H         1 <0>         0.0666
     37 H10        -0.0919   -4.1217   -1.3693 H         1 <0>         0.3996
     38 H11        -2.0260   -4.7276    0.5103 H         1 <0>         0.0925
     39 H12        -2.3593   -3.2270   -0.3871 H         1 <0>         0.1120
     40 H13        -3.8398   -3.9737    1.7671 H         1 <0>         0.0659
     41 H14        -5.0874   -3.0918    0.8314 H         1 <0>         0.0778
     42 H15        -5.8554   -5.0802    2.4824 H         1 <0>         0.0640
     43 H16        -6.5899   -4.9779    0.8482 H         1 <0>         0.0630
     44 H17        -4.2682   -6.7517    1.7857 H         1 <0>         0.0623
     45 H18        -5.7255   -7.2290    0.8592 H         1 <0>         0.0625
     46 H19        -4.8660   -6.4134   -1.1510 H         1 <0>         0.0681
     47 H20        -3.2940   -6.6504   -0.3364 H         1 <0>         0.0642
     48 H21        -4.3049   -4.3820   -2.4335 H         1 <0>         0.1083
     49 H22        -5.7862   -4.1946   -1.4646 H         1 <0>         0.0926
     50 H23        -5.3980   -2.1399   -3.2684 H         1 <0>         0.3980
     51 H24        -3.8032   -0.0437   -2.0073 H         1 <0>         0.0859
     52 H25        -5.9039    0.0043   -0.6909 H         1 <0>         0.0742
     53 H26        -7.3745   -1.0146   -2.4078 H         1 <0>         0.0604
     54 H27        -8.0389    0.5343   -1.8353 H         1 <0>         0.0620
     55 H28        -8.1613    0.3724   -4.3066 H         1 <0>         0.0701
     56 H29        -6.9931    2.4986   -4.8195 H         1 <0>         0.0621
     57 H30        -7.8161    2.5859   -3.2437 H         1 <0>         0.0624
     58 H31        -5.5224    3.5175   -3.1026 H         1 <0>         0.0718
     59 H32        -6.4978    2.3709   -1.1322 H         1 <0>         0.0651
     60 H33        -4.7357    2.1305   -1.2038 H         1 <0>         0.0636
     61 H34        -4.5195    2.1611   -4.9200 H         1 <0>         0.0675
     62 H35        -3.5804    2.0079   -3.4157 H         1 <0>         0.0645
     63 H36        -3.9256   -0.2056   -4.4786 H         1 <0>         0.0742
     64 H37        -6.2193   -1.1372   -4.6197 H         1 <0>         0.0591
     65 H38        -6.0605    0.3244   -5.6231 H         1 <0>         0.0670
@<TRIPOS>BOND
     1    1    2 1
     2    1   28 1
     3    1   29 1
     4    1   30 1
     5    2    3 1
     6    2    4 1
     7    2   31 1
     8    3   32 1
     9    3   33 1
    10    3   34 1
    11    4    5 1
    12    4   35 1
    13    4   36 1
    14    5    6 am
    15    5   37 1
    16    6    7 2
    17    6    8 1
    18    8    9 1
    19    8   38 1
    20    8   39 1
    21    9   13 1
    22    9   10 1
    23    9   14 1
    24   10   11 1
    25   10   40 1
    26   10   41 1
    27   11   12 1
    28   11   42 1
    29   11   43 1
    30   12   13 1
    31   12   44 1
    32   12   45 1
    33   13   46 1
    34   13   47 1
    35   14   15 1
    36   14   48 1
    37   14   49 1
    38   15   16 2
    39   15   17 am
    40   17   18 1
    41   17   50 1
    42   18   26 1
    43   18   19 1
    44   18   51 1
    45   19   24 1
    46   19   20 1
    47   19   52 1
    48   20   21 1
    49   20   53 1
    50   20   54 1
    51   21   27 1
    52   21   22 1
    53   21   55 1
    54   22   23 1
    55   22   56 1
    56   22   57 1
    57   23   24 1
    58   23   25 1
    59   23   58 1
    60   24   59 1
    61   24   60 1
    62   25   26 1
    63   25   61 1
    64   25   62 1
    65   26   27 1
    66   26   63 1
    67   27   64 1
    68   27   65 1
@<TRIPOS>MOLECULE
CHEMBL1081453
   60    64     0     0     0
SMALL
USER_CHARGES

@<TRIPOS>ATOM
      1 C1          0.0398    0.4696   -0.0734 C.3       1 <0>        -0.1391
      2 C2         -0.0530   -1.0358   -0.3304 C.3       1 <0>        -0.0413
      3 C3          0.6583   -1.7901    0.7947 C.3       1 <0>        -0.1442
      4 C4         -1.5235   -1.4558   -0.3759 C.3       1 <0>        -0.1496
      5 C5          0.6035   -1.3619   -1.6472 C.ar      1 <0>         0.0004
      6 C6         -0.1329   -1.9465   -2.6606 C.ar      1 <0>        -0.1391
      7 C7          0.4693   -2.2456   -3.8684 C.ar      1 <0>        -0.0201
      8 C8          1.8077   -1.9598   -4.0629 C.ar      1 <0>        -0.6930
      9 C9          2.5438   -1.3744   -3.0499 C.ar      1 <0>        -0.0198
     10 C10         1.9406   -1.0714   -1.8435 C.ar      1 <0>        -0.1337
     11 S1          2.5755   -2.3422   -5.6021 S.o2      1 <0>         2.7015
     12 O1          3.9658   -2.4759   -5.3402 O.2       1 <0>        -0.9334
     13 O2          1.8078   -3.3826   -6.1915 O.2       1 <0>        -0.9342
     14 N1          2.4032   -1.0155   -6.5781 N.pl3     1 <0>        -1.0223
     15 C11         1.2835   -0.7311   -7.5010 C.3       1 <0>         0.0929
     16 C12         1.6604    0.6143   -8.1953 C.3       1 <0>         0.0183
     17 H1          1.1676    0.8213   -9.1453 H         1 <0>         0.1842
     18 C13         3.2231    0.4599   -8.2348 C.3       1 <0>        -0.1438
     19 C14         3.3438    0.1374   -6.6989 C.3       1 <0>         0.1375
     20 H2          4.3504   -0.0219   -6.3124 H         1 <0>         0.1752
     21 C15         2.5460    1.3428   -6.1120 C.3       1 <0>        -0.0227
     22 N2          1.4811    1.6414   -7.1211 N.4       1 <0>        -0.3964
     23 C16         0.1448    1.5201   -6.5231 C.3       1 <0>         0.0109
     24 C17        -0.9471    1.7181   -7.5993 C.3       1 <0>        -0.1377
     25 C18        -1.7474    2.9688   -7.1233 C.3       1 <0>        -0.0965
     26 C19        -0.7666    4.1627   -7.3326 C.3       1 <0>        -0.1339
     27 C20         0.3253    3.9647   -6.2564 C.3       1 <0>        -0.1361
     28 C21        -0.0986    2.6698   -5.4983 C.3       1 <0>        -0.1103
     29 C22        -1.6619    2.7926   -5.5661 C.3       1 <0>        -0.1195
     30 H3          1.0874    0.7688   -0.0410 H         1 <0>         0.0591
     31 H4         -0.4670    1.0070   -0.8749 H         1 <0>         0.0554
     32 H5         -0.4350    0.7055    0.8790 H         1 <0>         0.0680
     33 H6          0.1835   -1.5543    1.7471 H         1 <0>         0.0684
     34 H7          0.5922   -2.8626    0.6115 H         1 <0>         0.0605
     35 H8          1.7059   -1.4909    0.8271 H         1 <0>         0.0603
     36 H9         -2.0302   -0.9184   -1.1775 H         1 <0>         0.0594
     37 H10        -1.5896   -2.5283   -0.5590 H         1 <0>         0.0625
     38 H11        -1.9983   -1.2199    0.5765 H         1 <0>         0.0673
     39 H12        -1.1785   -2.1698   -2.5086 H         1 <0>         0.1413
     40 H13        -0.1058   -2.7030   -4.6599 H         1 <0>         0.1392
     41 H14         3.5896   -1.1514   -3.2018 H         1 <0>         0.1405
     42 H15         2.5148   -0.6106   -1.0534 H         1 <0>         0.1362
     43 H16         1.1917   -1.5261   -8.2410 H         1 <0>         0.1211
     44 H17         0.3527   -0.6219   -6.9443 H         1 <0>         0.0978
     45 H18         3.5418   -0.3723   -8.8623 H         1 <0>         0.1332
     46 H19         3.7249    1.3896   -8.5029 H         1 <0>         0.1164
     47 H20         2.0920    1.0687   -5.1597 H         1 <0>         0.1356
     48 H21         3.2010    2.2048   -5.9859 H         1 <0>         0.1444
     49 H22         0.0325    0.5498   -6.0394 H         1 <0>         0.1427
     50 H23        -0.4924    1.9055   -8.5720 H         1 <0>         0.0864
     51 H24        -1.5982    0.8451   -7.6451 H         1 <0>         0.1033
     52 H25        -2.7479    3.0816   -7.5410 H         1 <0>         0.1209
     53 H26        -0.3285    4.1243   -8.3299 H         1 <0>         0.0711
     54 H27        -1.2833    5.1102   -7.1798 H         1 <0>         0.0848
     55 H28         1.3002    3.8289   -6.7247 H         1 <0>         0.0518
     56 H29         0.3454    4.8148   -5.5746 H         1 <0>         0.0953
     57 H30         0.3421    2.5295   -4.5113 H         1 <0>         0.1224
     58 H31        -2.0263    3.6717   -5.0346 H         1 <0>         0.0933
     59 H32        -2.1584    1.8824   -5.2298 H         1 <0>         0.0844
     60 H33         1.6105    2.5673   -7.5006 H         1 <0>         0.4228
@<TRIPOS>BOND
     1    1    2 1
     2    1   30 1
     3    1   31 1
     4    1   32 1
     5    2    3 1
     6    2    4 1
     7    2    5 1
     8    3   33 1
     9    3   34 1
    10    3   35 1
    11    4   36 1
    12    4   37 1
    13    4   38 1
    14    5   10 ar
    15    5    6 ar
    16    6    7 ar
    17    6   39 1
    18    7    8 ar
    19    7   40 1
    20    8    9 ar
    21    8   11 1
    22    9   10 ar
    23    9   41 1
    24   10   42 1
    25   11   12 2
    26   11   13 2
    27   11   14 1
    28   14   19 1
    29   14   15 1
    30   15   16 1
    31   15   43 1
    32   15   44 1
    33   16   17 1
    34   16   22 1
    35   16   18 1
    36   18   19 1
    37   18   45 1
    38   18   46 1
    39   19   20 1
    40   19   21 1
    41   21   22 1
    42   21   47 1
    43   21   48 1
    44   22   23 1
    45   22   60 1
    46   23   28 1
    47   23   24 1
    48   23   49 1
    49   24   25 1
    50   24   50 1
    51   24   51 1
    52   25   29 1
    53   25   26 1
    54   25   52 1
    55   26   27 1
    56   26   53 1
    57   26   54 1
    58   27   28 1
    59   27   55 1
    60   27   56 1
    61   28   29 1
    62   28   57 1
    63   29   58 1
    64   29   59 1
@<TRIPOS>MOLECULE
CHEMBL1081453__1
   59    63     0     0     0
SMALL
USER_CHARGES

@<TRIPOS>ATOM
      1 C1         -0.0101   -0.1287   -0.2099 C.3       1 <0>        -0.1393
      2 C2         -0.1604   -1.5988   -0.6065 C.3       1 <0>        -0.0384
      3 C3          0.5204   -2.4818    0.4412 C.3       1 <0>        -0.1411
      4 C4         -1.6460   -1.9559   -0.6869 C.3       1 <0>        -0.1476
      5 C5          0.4841   -1.8251   -1.9497 C.ar      1 <0>        -0.0100
      6 C6         -0.2733   -2.2836   -3.0113 C.ar      1 <0>        -0.1414
      7 C7          0.3179   -2.4913   -4.2435 C.ar      1 <0>        -0.0169
      8 C8          1.6665   -2.2401   -4.4142 C.ar      1 <0>        -0.6834
      9 C9          2.4237   -1.7807   -3.3528 C.ar      1 <0>        -0.0161
     10 C10         1.8316   -1.5690   -2.1218 C.ar      1 <0>        -0.1359
     11 S1          2.4203   -2.5059   -5.9844 S.o2      1 <0>         2.7057
     12 O1          3.8042   -2.7167   -5.7401 O.2       1 <0>        -0.9516
     13 O2          1.6137   -3.4563   -6.6665 O.2       1 <0>        -0.9530
     14 N1          2.2999   -1.0881   -6.8316 N.pl3     1 <0>        -1.0134
     15 C11         1.1927   -0.6758   -7.7207 C.3       1 <0>         0.0829
     16 C12         1.6216    0.7132   -8.2872 C.3       1 <0>         0.0557
     17 H1          1.1380    1.0270   -9.2123 H         1 <0>         0.1335
     18 C13         3.1773    0.5034   -8.3452 C.3       1 <0>        -0.1271
     19 C14         3.2842    0.0341   -6.8466 C.3       1 <0>         0.1200
     20 H2          4.2837   -0.1991   -6.4794 H         1 <0>         0.1353
     21 C15         2.5329    1.2091   -6.1473 C.3       1 <0>         0.0250
     22 N2          1.4811    1.6414   -7.1211 N.3       1 <0>        -0.4978
     23 C16         0.1343    1.5571   -6.5405 C.3       1 <0>         0.0704
     24 C17        -0.9377    1.7837   -7.6308 C.3       1 <0>        -0.1173
     25 C18        -1.7098    3.0562   -7.1662 C.3       1 <0>        -0.1026
     26 C19        -0.6941    4.2228   -7.3635 C.3       1 <0>        -0.1143
     27 C20         0.3779    3.9962   -6.2732 C.3       1 <0>        -0.1131
     28 C21        -0.0909    2.7141   -5.5197 C.3       1 <0>        -0.0932
     29 C22        -1.6492    2.8794   -5.6078 C.3       1 <0>        -0.1254
     30 H3          1.0482    0.1258   -0.1526 H         1 <0>         0.0590
     31 H4         -0.4951    0.5004   -0.9563 H         1 <0>         0.0578
     32 H5         -0.4763    0.0350    0.7616 H         1 <0>         0.0639
     33 H6          0.0542   -2.3180    1.4128 H         1 <0>         0.0642
     34 H7          0.4133   -3.5291    0.1587 H         1 <0>         0.0585
     35 H8          1.5787   -2.2273    0.4985 H         1 <0>         0.0595
     36 H9         -2.1310   -1.3269   -1.4333 H         1 <0>         0.0604
     37 H10        -1.7531   -3.0032   -0.9694 H         1 <0>         0.0607
     38 H11        -2.1122   -1.7922    0.2846 H         1 <0>         0.0634
     39 H12        -1.3269   -2.4799   -2.8780 H         1 <0>         0.1368
     40 H13        -0.2737   -2.8502   -5.0727 H         1 <0>         0.1363
     41 H14         3.4774   -1.5847   -3.4860 H         1 <0>         0.1382
     42 H15         2.4224   -1.2065   -1.2935 H         1 <0>         0.1320
     43 H16         1.0711   -1.3940   -8.5316 H         1 <0>         0.0779
     44 H17         0.2664   -0.5836   -7.1537 H         1 <0>         0.0762
     45 H18         3.4644   -0.2781   -9.0488 H         1 <0>         0.0874
     46 H19         3.7148    1.4342   -8.5266 H         1 <0>         0.0969
     47 H20         2.0679    0.8646   -5.2236 H         1 <0>         0.0623
     48 H21         3.2205    2.0297   -5.9429 H         1 <0>         0.0915
     49 H22        -0.0106    0.5908   -6.0575 H         1 <0>         0.0496
     50 H23        -0.4655    1.9576   -8.5977 H         1 <0>         0.0767
     51 H24        -1.6117    0.9287   -7.6844 H         1 <0>         0.0621
     52 H25        -2.7013    3.1958   -7.5970 H         1 <0>         0.0958
     53 H26        -0.2444    4.1714   -8.3551 H         1 <0>         0.0642
     54 H27        -1.1868    5.1842   -7.2181 H         1 <0>         0.0561
     55 H28         1.3547    3.8335   -6.7287 H         1 <0>         0.0880
     56 H29         0.4124    4.8462   -5.5917 H         1 <0>         0.0510
     57 H30         0.3330    2.5630   -4.5270 H         1 <0>         0.0894
     58 H31        -1.9964    3.7687   -5.0817 H         1 <0>         0.0702
     59 H32        -2.1747    1.9834   -5.2774 H         1 <0>         0.0644
@<TRIPOS>BOND
     1    1    2 1
     2    1   30 1
     3    1   31 1
     4    1   32 1
     5    2    3 1
     6    2    4 1
     7    2    5 1
     8    3   33 1
     9    3   34 1
    10    3   35 1
    11    4   36 1
    12    4   37 1
    13    4   38 1
    14    5   10 ar
    15    5    6 ar
    16    6    7 ar
    17    6   39 1
    18    7    8 ar
    19    7   40 1
    20    8    9 ar
    21    8   11 1
    22    9   10 ar
    23    9   41 1
    24   10   42 1
    25   11   12 2
    26   11   13 2
    27   11   14 1
    28   14   19 1
    29   14   15 1
    30   15   16 1
    31   15   43 1
    32   15   44 1
    33   16   17 1
    34   16   22 1
    35   16   18 1
    36   18   19 1
    37   18   45 1
    38   18   46 1
    39   19   20 1
    40   19   21 1
    41   21   22 1
    42   21   47 1
    43   21   48 1
    44   22   23 1
    45   23   28 1
    46   23   24 1
    47   23   49 1
    48   24   25 1
    49   24   50 1
    50   24   51 1
    51   25   29 1
    52   25   26 1
    53   25   52 1
    54   26   27 1
    55   26   53 1
    56   26   54 1
    57   27   28 1
    58   27   55 1
    59   27   56 1
    60   28   29 1
    61   28   57 1
    62   29   58 1
    63   29   59 1
@<TRIPOS>MOLECULE
CHEMBL1081453__2
   60    64     0     0     0
SMALL
USER_CHARGES

@<TRIPOS>ATOM
      1 C1          0.0414    0.3561   -0.0928 C.3       1 <0>        -0.1390
      2 C2         -0.0638   -1.1437   -0.3764 C.3       1 <0>        -0.0412
      3 C3          0.6433   -1.9235    0.7340 C.3       1 <0>        -0.1443
      4 C4         -1.5376   -1.5511   -0.4268 C.3       1 <0>        -0.1495
      5 C5          0.5881   -1.4516   -1.6998 C.ar      1 <0>         0.0008
      6 C6         -0.1545   -2.0122   -2.7222 C.ar      1 <0>        -0.1394
      7 C7          0.4434   -2.2946   -3.9361 C.ar      1 <0>        -0.0201
      8 C8          1.7838   -2.0160   -4.1279 C.ar      1 <0>        -0.6930
      9 C9          2.5261   -1.4545   -3.1058 C.ar      1 <0>        -0.0196
     10 C10         1.9272   -1.1682   -1.8933 C.ar      1 <0>        -0.1334
     11 S1          2.5462   -2.3770   -5.6748 S.o2      1 <0>         2.7015
     12 O1          3.9357   -2.5264   -5.4177 O.2       1 <0>        -0.9334
     13 O2          1.7693   -3.4007   -6.2813 O.2       1 <0>        -0.9344
     14 N1          2.3829   -1.0320   -6.6269 N.pl3     1 <0>        -1.0225
     15 C11         1.2640   -0.7223   -7.5427 C.3       1 <0>         0.0927
     16 C12         1.6505    0.6321   -8.2137 C.3       1 <0>         0.0194
     17 H1          1.1579    0.8599   -9.1590 H         1 <0>         0.1847
     18 C13         3.2119    0.4661   -8.2585 C.3       1 <0>        -0.1434
     19 C14         3.3324    0.1154   -6.7288 C.3       1 <0>         0.1371
     20 H2          4.3383   -0.0587   -6.3468 H         1 <0>         0.1751
     21 C15         2.5451    1.3165   -6.1193 C.3       1 <0>        -0.0229
     22 N2          1.4811    1.6414   -7.1211 N.4       1 <0>        -0.3930
     23 C16         0.1448    1.5201   -6.5231 C.3       1 <0>         0.0111
     24 C17        -0.9471    1.7181   -7.5993 C.3       1 <0>        -0.1380
     25 C18        -1.7474    2.9688   -7.1233 C.3       1 <0>        -0.0961
     26 C19        -2.5218    2.4797   -5.8614 C.3       1 <0>        -0.1303
     27 C20        -1.4299    2.2817   -4.7852 C.3       1 <0>        -0.1184
     28 C21        -0.0986    2.6698   -5.4983 C.3       1 <0>        -0.1133
     29 C22        -0.6026    3.8083   -6.4539 C.3       1 <0>        -0.1331
     30 H3          1.0914    0.6464   -0.0569 H         1 <0>         0.0592
     31 H4         -0.4623    0.9116   -0.8839 H         1 <0>         0.0554
     32 H5         -0.4301    0.5788    0.8644 H         1 <0>         0.0679
     33 H6          0.1718   -1.7008    1.6912 H         1 <0>         0.0684
     34 H7          0.5684   -2.9920    0.5319 H         1 <0>         0.0604
     35 H8          1.6933   -1.6332    0.7699 H         1 <0>         0.0604
     36 H9         -2.0413   -0.9956   -1.2179 H         1 <0>         0.0592
     37 H10        -1.6125   -2.6196   -0.6289 H         1 <0>         0.0624
     38 H11        -2.0091   -1.3284    0.5304 H         1 <0>         0.0673
     39 H12        -1.2017   -2.2299   -2.5724 H         1 <0>         0.1410
     40 H13        -0.1365   -2.7332   -4.7347 H         1 <0>         0.1389
     41 H14         3.5734   -1.2372   -3.2555 H         1 <0>         0.1405
     42 H15         2.5062   -0.7261   -1.0960 H         1 <0>         0.1361
     43 H16         1.1648   -1.5033   -8.2965 H         1 <0>         0.1211
     44 H17         0.3350   -0.6156   -6.9826 H         1 <0>         0.0971
     45 H18         3.5231   -0.3574   -8.9013 H         1 <0>         0.1327
     46 H19         3.7207    1.3964   -8.5110 H         1 <0>         0.1172
     47 H20         2.0905    1.0291   -5.1712 H         1 <0>         0.1353
     48 H21         3.2072    2.1709   -5.9789 H         1 <0>         0.1458
     49 H22         0.0325    0.5498   -6.0394 H         1 <0>         0.1411
     50 H23        -0.4924    1.9055   -8.5720 H         1 <0>         0.0866
     51 H24        -1.5982    0.8451   -7.6451 H         1 <0>         0.1035
     52 H25        -2.3344    3.4781   -7.8876 H         1 <0>         0.1192
     53 H26        -3.2397    3.2343   -5.5399 H         1 <0>         0.0788
     54 H27        -3.0274    1.5364   -6.0677 H         1 <0>         0.0750
     55 H28        -1.6110    2.9389   -3.9347 H         1 <0>         0.0849
     56 H29        -1.3987    1.2410   -4.4625 H         1 <0>         0.0731
     57 H30         0.7395    2.9106   -4.8444 H         1 <0>         0.1181
     58 H31         0.1603    4.1057   -7.1733 H         1 <0>         0.0700
     59 H32        -0.9922    4.6632   -5.9013 H         1 <0>         0.0951
     60 H33         1.6173    2.5729   -7.4843 H         1 <0>         0.4240
@<TRIPOS>BOND
     1    1    2 1
     2    1   30 1
     3    1   31 1
     4    1   32 1
     5    2    3 1
     6    2    4 1
     7    2    5 1
     8    3   33 1
     9    3   34 1
    10    3   35 1
    11    4   36 1
    12    4   37 1
    13    4   38 1
    14    5   10 ar
    15    5    6 ar
    16    6    7 ar
    17    6   39 1
    18    7    8 ar
    19    7   40 1
    20    8    9 ar
    21    8   11 1
    22    9   10 ar
    23    9   41 1
    24   10   42 1
    25   11   12 2
    26   11   13 2
    27   11   14 1
    28   14   19 1
    29   14   15 1
    30   15   16 1
    31   15   43 1
    32   15   44 1
    33   16   17 1
    34   16   22 1
    35   16   18 1
    36   18   19 1
    37   18   45 1
    38   18   46 1
    39   19   20 1
    40   19   21 1
    41   21   22 1
    42   21   47 1
    43   21   48 1
    44   22   23 1
    45   22   60 1
    46   23   28 1
    47   23   24 1
    48   23   49 1
    49   24   25 1
    50   24   50 1
    51   24   51 1
    52   25   29 1
    53   25   26 1
    54   25   52 1
    55   26   27 1
    56   26   53 1
    57   26   54 1
    58   27   28 1
    59   27   55 1
    60   27   56 1
    61   28   29 1
    62   28   57 1
    63   29   58 1
    64   29   59 1
@<TRIPOS>MOLECULE
CHEMBL1081453__3
   59    63     0     0     0
SMALL
USER_CHARGES

@<TRIPOS>ATOM
      1 C1         -0.0097   -0.1206   -0.2078 C.3       1 <0>        -0.1393
      2 C2         -0.1592   -1.5913   -0.6024 C.3       1 <0>        -0.0383
      3 C3          0.5221   -2.4725    0.4465 C.3       1 <0>        -0.1411
      4 C4         -1.6445   -1.9494   -0.6825 C.3       1 <0>        -0.1475
      5 C5          0.4856   -1.8190   -1.9453 C.ar      1 <0>        -0.0098
      6 C6         -0.2715   -2.2793   -3.0064 C.ar      1 <0>        -0.1414
      7 C7          0.3200   -2.4882   -4.2382 C.ar      1 <0>        -0.0171
      8 C8          1.6684   -2.2364   -4.4091 C.ar      1 <0>        -0.6831
      9 C9          2.4253   -1.7753   -3.3483 C.ar      1 <0>        -0.0160
     10 C10         1.8330   -1.5623   -2.1176 C.ar      1 <0>        -0.1356
     11 S1          2.4226   -2.5039   -5.9790 S.o2      1 <0>         2.7055
     12 O1          3.8065   -2.7136   -5.7343 O.2       1 <0>        -0.9515
     13 O2          1.6165   -3.4556   -6.6599 O.2       1 <0>        -0.9530
     14 N1          2.3014   -1.0873   -6.8280 N.pl3     1 <0>        -1.0135
     15 C11         1.1941   -0.6767   -7.7177 C.3       1 <0>         0.0826
     16 C12         1.6222    0.7118   -8.2860 C.3       1 <0>         0.0558
     17 H1          1.1385    1.0241   -9.2115 H         1 <0>         0.1337
     18 C13         3.1781    0.5028   -8.3436 C.3       1 <0>        -0.1271
     19 C14         3.2851    0.0355   -6.8444 C.3       1 <0>         0.1199
     20 H2          4.2847   -0.1967   -6.4768 H         1 <0>         0.1356
     21 C15         2.5330    1.2109   -6.1467 C.3       1 <0>         0.0250
     22 N2          1.4811    1.6414   -7.1211 N.3       1 <0>        -0.5013
     23 C16         0.1343    1.5571   -6.5405 C.3       1 <0>         0.0710
     24 C17        -0.9377    1.7837   -7.6308 C.3       1 <0>        -0.1176
     25 C18        -1.7098    3.0562   -7.1662 C.3       1 <0>        -0.1026
     26 C19        -2.5135    2.5898   -5.9141 C.3       1 <0>        -0.1222
     27 C20        -1.4414    2.3632   -4.8237 C.3       1 <0>        -0.1222
     28 C21        -0.0909    2.7141   -5.5197 C.3       1 <0>        -0.0886
     29 C22        -0.5513    3.8649   -6.4826 C.3       1 <0>        -0.1148
     30 H3          1.0485    0.1345   -0.1507 H         1 <0>         0.0590
     31 H4         -0.4950    0.5072   -0.9550 H         1 <0>         0.0578
     32 H5         -0.4761    0.0441    0.7636 H         1 <0>         0.0637
     33 H6          0.0557   -2.3078    1.4178 H         1 <0>         0.0642
     34 H7          0.4156   -3.5203    0.1653 H         1 <0>         0.0584
     35 H8          1.5803   -2.2174    0.5035 H         1 <0>         0.0595
     36 H9         -2.1298   -1.3215   -1.4298 H         1 <0>         0.0603
     37 H10        -1.7510   -2.9971   -0.9637 H         1 <0>         0.0607
     38 H11        -2.1109   -1.7846    0.2888 H         1 <0>         0.0633
     39 H12        -1.3250   -2.4760   -2.8729 H         1 <0>         0.1366
     40 H13        -0.2714   -2.8485   -5.0670 H         1 <0>         0.1361
     41 H14         3.4789   -1.5789   -3.4817 H         1 <0>         0.1383
     42 H15         2.4235   -1.1985   -1.2898 H         1 <0>         0.1320
     43 H16         1.0729   -1.3960   -8.5277 H         1 <0>         0.0781
     44 H17         0.2677   -0.5843   -7.1509 H         1 <0>         0.0759
     45 H18         3.4656   -0.2794   -9.0461 H         1 <0>         0.0876
     46 H19         3.7150    1.4336   -8.5262 H         1 <0>         0.0971
     47 H20         2.0682    0.8674   -5.2226 H         1 <0>         0.0624
     48 H21         3.2201    2.0322   -5.9432 H         1 <0>         0.0914
     49 H22        -0.0106    0.5908   -6.0575 H         1 <0>         0.0503
     50 H23        -0.4655    1.9576   -8.5977 H         1 <0>         0.0755
     51 H24        -1.6117    0.9287   -7.6844 H         1 <0>         0.0638
     52 H25        -2.2727    3.5805   -7.9384 H         1 <0>         0.0980
     53 H26        -3.2146    3.3640   -5.6025 H         1 <0>         0.0627
     54 H27        -3.0419    1.6604   -6.1263 H         1 <0>         0.0618
     55 H28        -1.6155    3.0260   -3.9761 H         1 <0>         0.0642
     56 H29        -1.4428    1.3224   -4.4999 H         1 <0>         0.0592
     57 H30         0.7449    2.9327   -4.8552 H         1 <0>         0.0946
     58 H31         0.2287    4.1407   -7.1922 H         1 <0>         0.0779
     59 H32        -0.9246    4.7307   -5.9357 H         1 <0>         0.0640
@<TRIPOS>BOND
     1    1    2 1
     2    1   30 1
     3    1   31 1
     4    1   32 1
     5    2    3 1
     6    2    4 1
     7    2    5 1
     8    3   33 1
     9    3   34 1
    10    3   35 1
    11    4   36 1
    12    4   37 1
    13    4   38 1
    14    5   10 ar
    15    5    6 ar
    16    6    7 ar
    17    6   39 1
    18    7    8 ar
    19    7   40 1
    20    8    9 ar
    21    8   11 1
    22    9   10 ar
    23    9   41 1
    24   10   42 1
    25   11   12 2
    26   11   13 2
    27   11   14 1
    28   14   19 1
    29   14   15 1
    30   15   16 1
    31   15   43 1
    32   15   44 1
    33   16   17 1
    34   16   22 1
    35   16   18 1
    36   18   19 1
    37   18   45 1
    38   18   46 1
    39   19   20 1
    40   19   21 1
    41   21   22 1
    42   21   47 1
    43   21   48 1
    44   22   23 1
    45   23   28 1
    46   23   24 1
    47   23   49 1
    48   24   25 1
    49   24   50 1
    50   24   51 1
    51   25   29 1
    52   25   26 1
    53   25   52 1
    54   26   27 1
    55   26   53 1
    56   26   54 1
    57   27   28 1
    58   27   55 1
    59   27   56 1
    60   28   29 1
    61   28   57 1
    62   29   58 1
    63   29   59 1
@<TRIPOS>MOLECULE
CHEMBL1081453__4
   60    64     0     0     0
SMALL
USER_CHARGES

@<TRIPOS>ATOM
      1 C1          0.0408    0.4046   -0.0843 C.3       1 <0>        -0.1391
      2 C2         -0.0590   -1.0977   -0.3565 C.3       1 <0>        -0.0414
      3 C3          0.6498   -1.8666    0.7602 C.3       1 <0>        -0.1442
      4 C4         -1.5315   -1.5105   -0.4049 C.3       1 <0>        -0.1495
      5 C5          0.5948   -1.4134   -1.6771 C.ar      1 <0>         0.0003
      6 C6         -0.1452   -1.9842   -2.6957 C.ar      1 <0>        -0.1394
      7 C7          0.4545   -2.2738   -3.9071 C.ar      1 <0>        -0.0202
      8 C8          1.7941   -1.9921   -4.1000 C.ar      1 <0>        -0.6933
      9 C9          2.5338   -1.4204   -3.0817 C.ar      1 <0>        -0.0197
     10 C10         1.9330   -1.1269   -1.8718 C.ar      1 <0>        -0.1336
     11 S1          2.5588   -2.3623   -5.6436 S.o2      1 <0>         2.7016
     12 O1          3.9486   -2.5050   -5.3845 O.2       1 <0>        -0.9334
     13 O2          1.7858   -3.3932   -6.2429 O.2       1 <0>        -0.9341
     14 N1          2.3916   -1.0251   -6.6060 N.pl3     1 <0>        -1.0224
     15 C11         1.2723   -0.7262   -7.5249 C.3       1 <0>         0.0922
     16 C12         1.6547    0.6245   -8.2059 C.3       1 <0>         0.0203
     17 H1          1.1620    0.8434   -9.1532 H         1 <0>         0.1849
     18 C13         3.2167    0.4634   -8.2483 C.3       1 <0>        -0.1437
     19 C14         3.3373    0.1247   -6.7160 C.3       1 <0>         0.1372
     20 H2          4.3435   -0.0431   -6.3320 H         1 <0>         0.1750
     21 C15         2.5455    1.3277   -6.1161 C.3       1 <0>        -0.0229
     22 N2          1.4811    1.6414   -7.1211 N.4       1 <0>        -0.3930
     23 C16         0.1448    1.5201   -6.5231 C.3       1 <0>         0.0131
     24 C17        -0.1430    2.7245   -5.5980 C.3       1 <0>        -0.1347
     25 C18        -1.3884    3.4181   -6.2298 C.3       1 <0>        -0.0967
     26 C19        -2.5633    2.4278   -5.9646 C.3       1 <0>        -0.1299
     27 C20        -2.2754    1.2233   -6.8898 C.3       1 <0>        -0.1198
     28 C21        -0.9538    1.5994   -7.6268 C.3       1 <0>        -0.1171
     29 C22        -1.1251    3.1543   -7.7544 C.3       1 <0>        -0.1320
     30 H3          1.0898    0.6987   -0.0498 H         1 <0>         0.0593
     31 H4         -0.4642    0.9524   -0.8799 H         1 <0>         0.0550
     32 H5         -0.4321    0.6329    0.8709 H         1 <0>         0.0682
     33 H6          0.1769   -1.6383    1.7154 H         1 <0>         0.0685
     34 H7          0.5787   -2.9369    0.5662 H         1 <0>         0.0605
     35 H8          1.6988   -1.5725    0.7946 H         1 <0>         0.0604
     36 H9         -2.0365   -0.9627   -1.2005 H         1 <0>         0.0591
     37 H10        -1.6026   -2.5807   -0.5988 H         1 <0>         0.0626
     38 H11        -2.0044   -1.2822    0.5503 H         1 <0>         0.0674
     39 H12        -1.1917   -2.2043   -2.5450 H         1 <0>         0.1412
     40 H13        -0.1234   -2.7205   -4.7026 H         1 <0>         0.1392
     41 H14         3.5804   -1.2007   -3.2323 H         1 <0>         0.1406
     42 H15         2.5100   -0.6768   -1.0775 H         1 <0>         0.1363
     43 H16         1.1763   -1.5132   -8.2728 H         1 <0>         0.1209
     44 H17         0.3426   -0.6184   -6.9662 H         1 <0>         0.0975
     45 H18         3.5311   -0.3639   -8.8847 H         1 <0>         0.1328
     46 H19         3.7225    1.3935   -8.5076 H         1 <0>         0.1171
     47 H20         2.0912    1.0460   -5.1662 H         1 <0>         0.1348
     48 H21         3.2046    2.1854   -5.9818 H         1 <0>         0.1454
     49 H22         0.0605    0.5848   -5.9696 H         1 <0>         0.1400
     50 H23        -0.3701    2.3824   -4.5883 H         1 <0>         0.1003
     51 H24         0.7070    3.4067   -5.5868 H         1 <0>         0.0844
     52 H25        -1.5527    4.4566   -5.9420 H         1 <0>         0.1185
     53 H26        -2.5667    2.1131   -4.9211 H         1 <0>         0.0738
     54 H27        -3.5155    2.8891   -6.2265 H         1 <0>         0.0792
     55 H28        -2.1374    0.3164   -6.3011 H         1 <0>         0.0736
     56 H29        -3.0862    1.0925   -7.6065 H         1 <0>         0.0875
     57 H30        -0.7473    1.0496   -8.5451 H         1 <0>         0.1218
     58 H31        -1.9840    3.4218   -8.3698 H         1 <0>         0.0958
     59 H32        -0.2126    3.6390   -8.1015 H         1 <0>         0.0702
     60 H33         1.6144    2.5705   -7.4913 H         1 <0>         0.4239
@<TRIPOS>BOND
     1    1    2 1
     2    1   30 1
     3    1   31 1
     4    1   32 1
     5    2    3 1
     6    2    4 1
     7    2    5 1
     8    3   33 1
     9    3   34 1
    10    3   35 1
    11    4   36 1
    12    4   37 1
    13    4   38 1
    14    5   10 ar
    15    5    6 ar
    16    6    7 ar
    17    6   39 1
    18    7    8 ar
    19    7   40 1
    20    8    9 ar
    21    8   11 1
    22    9   10 ar
    23    9   41 1
    24   10   42 1
    25   11   12 2
    26   11   13 2
    27   11   14 1
    28   14   19 1
    29   14   15 1
    30   15   16 1
    31   15   43 1
    32   15   44 1
    33   16   17 1
    34   16   22 1
    35   16   18 1
    36   18   19 1
    37   18   45 1
    38   18   46 1
    39   19   20 1
    40   19   21 1
    41   21   22 1
    42   21   47 1
    43   21   48 1
    44   22   23 1
    45   22   60 1
    46   23   28 1
    47   23   24 1
    48   23   49 1
    49   24   25 1
    50   24   50 1
    51   24   51 1
    52   25   29 1
    53   25   26 1
    54   25   52 1
    55   26   27 1
    56   26   53 1
    57   26   54 1
    58   27   28 1
    59   27   55 1
    60   27   56 1
    61   28   29 1
    62   28   57 1
    63   29   58 1
    64   29   59 1
@<TRIPOS>MOLECULE
CHEMBL1081453__5
   59    63     0     0     0
SMALL
USER_CHARGES

@<TRIPOS>ATOM
      1 C1         -0.0000    0.0983   -0.1536 C.3       1 <0>        -0.1393
      2 C2         -0.1266   -1.3872   -0.4972 C.3       1 <0>        -0.0384
      3 C3          0.5652   -2.2213    0.5830 C.3       1 <0>        -0.1411
      4 C4         -1.6062   -1.7702   -0.5676 C.3       1 <0>        -0.1475
      5 C5          0.5248   -1.6518   -1.8301 C.ar      1 <0>        -0.0102
      6 C6         -0.2227   -2.1599   -2.8760 C.ar      1 <0>        -0.1415
      7 C7          0.3748   -2.4026   -4.0987 C.ar      1 <0>        -0.0170
      8 C8          1.7197   -2.1367   -4.2756 C.ar      1 <0>        -0.6833
      9 C9          2.4671   -1.6277   -3.2300 C.ar      1 <0>        -0.0161
     10 C10         1.8686   -1.3810   -2.0086 C.ar      1 <0>        -0.1358
     11 S1          2.4816   -2.4471   -5.8338 S.o2      1 <0>         2.7054
     12 O1          3.8679   -2.6274   -5.5793 O.2       1 <0>        -0.9515
     13 O2          1.6915   -3.4340   -6.4828 O.2       1 <0>        -0.9527
     14 N1          2.3414   -1.0628   -6.7318 N.pl3     1 <0>        -1.0134
     15 C11         1.2302   -0.7001   -7.6374 C.3       1 <0>         0.0822
     16 C12         1.6390    0.6741   -8.2527 C.3       1 <0>         0.0568
     17 H1          1.1528    0.9468   -9.1894 H         1 <0>         0.1338
     18 C13         3.1979    0.4866   -8.3000 C.3       1 <0>        -0.1275
     19 C14         3.3082    0.0733   -6.7853 C.3       1 <0>         0.1201
     20 H2          4.3102   -0.1310   -6.4080 H         1 <0>         0.1355
     21 C15         2.5370    1.2608   -6.1303 C.3       1 <0>         0.0247
     22 N2          1.4811    1.6414   -7.1211 N.3       1 <0>        -0.5015
     23 C16         0.1343    1.5571   -6.5405 C.3       1 <0>         0.0722
     24 C17        -0.1325    2.7700   -5.6200 C.3       1 <0>        -0.1086
     25 C18        -1.3503    3.4966   -6.2684 C.3       1 <0>        -0.1026
     26 C19        -2.5550    2.5389   -6.0178 C.3       1 <0>        -0.1220
     27 C20        -2.2881    1.3260   -6.9383 C.3       1 <0>        -0.1226
     28 C21        -0.9473    1.6652   -7.6584 C.3       1 <0>        -0.1005
     29 C22        -1.0745    3.2240   -7.7893 C.3       1 <0>        -0.1147
     30 H3          1.0541    0.3711   -0.1034 H         1 <0>         0.0591
     31 H4         -0.4929    0.6925   -0.9231 H         1 <0>         0.0574
     32 H5         -0.4712    0.2896    0.8105 H         1 <0>         0.0640
     33 H6          0.0941   -2.0299    1.5471 H         1 <0>         0.0642
     34 H7          0.4751   -3.2796    0.3382 H         1 <0>         0.0585
     35 H8          1.6193   -1.9484    0.6332 H         1 <0>         0.0595
     36 H9         -2.0990   -1.1760   -1.3372 H         1 <0>         0.0602
     37 H10        -1.6963   -2.8285   -0.8124 H         1 <0>         0.0608
     38 H11        -2.0773   -1.5788    0.3965 H         1 <0>         0.0634
     39 H12        -1.2735   -2.3677   -2.7377 H         1 <0>         0.1368
     40 H13        -0.2091   -2.8003   -4.9156 H         1 <0>         0.1364
     41 H14         3.5179   -1.4203   -3.3682 H         1 <0>         0.1383
     42 H15         2.4516   -0.9799   -1.1928 H         1 <0>         0.1320
     43 H16         1.1217   -1.4488   -8.4221 H         1 <0>         0.0781
     44 H17         0.3011   -0.6019   -7.0759 H         1 <0>         0.0766
     45 H18         3.4988   -0.3151   -8.9744 H         1 <0>         0.0876
     46 H19         3.7213    1.4185   -8.5138 H         1 <0>         0.0970
     47 H20         2.0751    0.9427   -5.1957 H         1 <0>         0.0617
     48 H21         3.2112    2.0990   -5.9542 H         1 <0>         0.0912
     49 H22         0.0175    0.6251   -5.9874 H         1 <0>         0.0502
     50 H23        -0.3819    2.4352   -4.6130 H         1 <0>         0.0589
     51 H24         0.7356    3.4288   -5.5982 H         1 <0>         0.0742
     52 H25        -1.4899    4.5394   -5.9835 H         1 <0>         0.0973
     53 H26        -2.5806    2.2255   -4.9741 H         1 <0>         0.0610
     54 H27        -3.4908    3.0256   -6.2923 H         1 <0>         0.0630
     55 H28        -2.1825    0.4164   -6.3472 H         1 <0>         0.0602
     56 H29        -3.0928    1.2165   -7.6654 H         1 <0>         0.0667
     57 H30        -0.7440    1.1090   -8.5735 H         1 <0>         0.0993
     58 H31        -1.9178    3.5142   -8.4160 H         1 <0>         0.0655
     59 H32        -0.1447    3.6833   -8.1248 H         1 <0>         0.0781
@<TRIPOS>BOND
     1    1    2 1
     2    1   30 1
     3    1   31 1
     4    1   32 1
     5    2    3 1
     6    2    4 1
     7    2    5 1
     8    3   33 1
     9    3   34 1
    10    3   35 1
    11    4   36 1
    12    4   37 1
    13    4   38 1
    14    5   10 ar
    15    5    6 ar
    16    6    7 ar
    17    6   39 1
    18    7    8 ar
    19    7   40 1
    20    8    9 ar
    21    8   11 1
    22    9   10 ar
    23    9   41 1
    24   10   42 1
    25   11   12 2
    26   11   13 2
    27   11   14 1
    28   14   19 1
    29   14   15 1
    30   15   16 1
    31   15   43 1
    32   15   44 1
    33   16   17 1
    34   16   22 1
    35   16   18 1
    36   18   19 1
    37   18   45 1
    38   18   46 1
    39   19   20 1
    40   19   21 1
    41   21   22 1
    42   21   47 1
    43   21   48 1
    44   22   23 1
    45   23   28 1
    46   23   24 1
    47   23   49 1
    48   24   25 1
    49   24   50 1
    50   24   51 1
    51   25   29 1
    52   25   26 1
    53   25   52 1
    54   26   27 1
    55   26   53 1
    56   26   54 1
    57   27   28 1
    58   27   55 1
    59   27   56 1
    60   28   29 1
    61   28   57 1
    62   29   58 1
    63   29   59 1
@<TRIPOS>MOLECULE
CHEMBL1081453__6
   60    64     0     0     0
SMALL
USER_CHARGES

@<TRIPOS>ATOM
      1 C1          0.0410    0.3857   -0.0876 C.3       1 <0>        -0.1392
      2 C2         -0.0609   -1.1156   -0.3643 C.3       1 <0>        -0.0414
      3 C3          0.6473   -1.8888    0.7500 C.3       1 <0>        -0.1442
      4 C4         -1.5339   -1.5264   -0.4134 C.3       1 <0>        -0.1496
      5 C5          0.5922   -1.4283   -1.6859 C.ar      1 <0>         0.0002
      6 C6         -0.1488   -1.9952   -2.7060 C.ar      1 <0>        -0.1394
      7 C7          0.4502   -2.2820   -3.9184 C.ar      1 <0>        -0.0201
      8 C8          1.7901   -2.0015   -4.1108 C.ar      1 <0>        -0.6932
      9 C9          2.5308   -1.4338   -3.0911 C.ar      1 <0>        -0.0198
     10 C10         1.9308   -1.1430   -1.8801 C.ar      1 <0>        -0.1337
     11 S1          2.5539   -2.3681   -5.6558 S.o2      1 <0>         2.7017
     12 O1          3.9436   -2.5134   -5.3974 O.2       1 <0>        -0.9334
     13 O2          1.7794   -3.3961   -6.2579 O.2       1 <0>        -0.9341
     14 N1          2.3882   -1.0278   -6.6142 N.pl3     1 <0>        -1.0223
     15 C11         1.2691   -0.7247   -7.5318 C.3       1 <0>         0.0932
     16 C12         1.6531    0.6274   -8.2089 C.3       1 <0>         0.0193
     17 H1          1.1604    0.8498   -9.1555 H         1 <0>         0.1845
     18 C13         3.2148    0.4645   -8.2523 C.3       1 <0>        -0.1442
     19 C14         3.3354    0.1211   -6.7209 C.3       1 <0>         0.1376
     20 H2          4.3415   -0.0492   -6.3378 H         1 <0>         0.1752
     21 C15         2.5454    1.3233   -6.1173 C.3       1 <0>        -0.0235
     22 N2          1.4811    1.6414   -7.1211 N.4       1 <0>        -0.3945
     23 C16         0.1448    1.5201   -6.5231 C.3       1 <0>         0.0135
     24 C17        -0.1430    2.7245   -5.5980 C.3       1 <0>        -0.1346
     25 C18        -1.3884    3.4181   -6.2298 C.3       1 <0>        -0.0970
     26 C19        -0.8537    4.0537   -7.5494 C.3       1 <0>        -0.1335
     27 C20        -0.5659    2.8492   -8.4746 C.3       1 <0>        -0.1387
     28 C21        -0.9538    1.5994   -7.6268 C.3       1 <0>        -0.1139
     29 C22        -2.1568    2.1731   -6.7979 C.3       1 <0>        -0.1196
     30 H3          1.0904    0.6783   -0.0526 H         1 <0>         0.0592
     31 H4         -0.4635    0.9365   -0.8814 H         1 <0>         0.0552
     32 H5         -0.4313    0.6118    0.8684 H         1 <0>         0.0681
     33 H6          0.1750   -1.6627    1.7060 H         1 <0>         0.0685
     34 H7          0.5747   -2.9584    0.5529 H         1 <0>         0.0605
     35 H8          1.6967   -1.5962    0.7850 H         1 <0>         0.0604
     36 H9         -2.0384   -0.9755   -1.2072 H         1 <0>         0.0593
     37 H10        -1.6065   -2.5959   -0.6105 H         1 <0>         0.0626
     38 H11        -2.0062   -1.3002    0.5426 H         1 <0>         0.0674
     39 H12        -1.1956   -2.2143   -2.5557 H         1 <0>         0.1413
     40 H13        -0.1285   -2.7255   -4.7151 H         1 <0>         0.1394
     41 H14         3.5777   -1.2149   -3.2413 H         1 <0>         0.1405
     42 H15         2.5086   -0.6960   -1.0847 H         1 <0>         0.1362
     43 H16         1.1718   -1.5094   -8.2821 H         1 <0>         0.1211
     44 H17         0.3396   -0.6174   -6.9726 H         1 <0>         0.0978
     45 H18         3.5280   -0.3614   -8.8911 H         1 <0>         0.1332
     46 H19         3.7218    1.3946   -8.5089 H         1 <0>         0.1165
     47 H20         2.0909    1.0394   -5.1682 H         1 <0>         0.1354
     48 H21         3.2056    2.1798   -5.9807 H         1 <0>         0.1449
     49 H22         0.0605    0.5848   -5.9696 H         1 <0>         0.1409
     50 H23        -0.3701    2.3824   -4.5883 H         1 <0>         0.0998
     51 H24         0.7070    3.4067   -5.5868 H         1 <0>         0.0844
     52 H25        -1.9554    4.0735   -5.5686 H         1 <0>         0.1196
     53 H26        -1.6100    4.7013   -7.9930 H         1 <0>         0.0846
     54 H27         0.0620    4.6131   -7.3580 H         1 <0>         0.0702
     55 H28        -1.1807    2.9047   -9.3730 H         1 <0>         0.0953
     56 H29         0.4913    2.8165   -8.7380 H         1 <0>         0.0535
     57 H30        -1.1344    0.6815   -8.1862 H         1 <0>         0.1264
     58 H31        -2.4710    1.4911   -6.0078 H         1 <0>         0.0842
     59 H32        -2.9912    2.4640   -7.4362 H         1 <0>         0.0943
     60 H33         1.6155    2.5715   -7.4886 H         1 <0>         0.4238
@<TRIPOS>BOND
     1    1    2 1
     2    1   30 1
     3    1   31 1
     4    1   32 1
     5    2    3 1
     6    2    4 1
     7    2    5 1
     8    3   33 1
     9    3   34 1
    10    3   35 1
    11    4   36 1
    12    4   37 1
    13    4   38 1
    14    5   10 ar
    15    5    6 ar
    16    6    7 ar
    17    6   39 1
    18    7    8 ar
    19    7   40 1
    20    8    9 ar
    21    8   11 1
    22    9   10 ar
    23    9   41 1
    24   10   42 1
    25   11   12 2
    26   11   13 2
    27   11   14 1
    28   14   19 1
    29   14   15 1
    30   15   16 1
    31   15   43 1
    32   15   44 1
    33   16   17 1
    34   16   22 1
    35   16   18 1
    36   18   19 1
    37   18   45 1
    38   18   46 1
    39   19   20 1
    40   19   21 1
    41   21   22 1
    42   21   47 1
    43   21   48 1
    44   22   23 1
    45   22   60 1
    46   23   28 1
    47   23   24 1
    48   23   49 1
    49   24   25 1
    50   24   50 1
    51   24   51 1
    52   25   29 1
    53   25   26 1
    54   25   52 1
    55   26   27 1
    56   26   53 1
    57   26   54 1
    58   27   28 1
    59   27   55 1
    60   27   56 1
    61   28   29 1
    62   28   57 1
    63   29   58 1
    64   29   59 1
@<TRIPOS>MOLECULE
CHEMBL1081453__7
   59    63     0     0     0
SMALL
USER_CHARGES

@<TRIPOS>ATOM
      1 C1          0.0048    0.2560   -0.1195 C.3       1 <0>        -0.1393
      2 C2         -0.1053   -1.2389   -0.4263 C.3       1 <0>        -0.0385
      3 C3          0.5936   -2.0384    0.6753 C.3       1 <0>        -0.1411
      4 C4         -1.5806   -1.6393   -0.4893 C.3       1 <0>        -0.1476
      5 C5          0.5512   -1.5295   -1.7513 C.ar      1 <0>        -0.0102
      6 C6         -0.1891   -2.0714   -2.7853 C.ar      1 <0>        -0.1415
      7 C7          0.4130   -2.3379   -4.0007 C.ar      1 <0>        -0.0169
      8 C8          1.7553   -2.0621   -4.1823 C.ar      1 <0>        -0.6834
      9 C9          2.4954   -1.5193   -3.1486 C.ar      1 <0>        -0.0161
     10 C10         1.8923   -1.2488   -1.9345 C.ar      1 <0>        -0.1359
     11 S1          2.5231   -2.4029   -5.7312 S.o2      1 <0>         2.7056
     12 O1          3.9108   -2.5620   -5.4703 O.2       1 <0>        -0.9517
     13 O2          1.7447   -3.4140   -6.3566 O.2       1 <0>        -0.9528
     14 N1          2.3696   -1.0429   -6.6635 N.pl3     1 <0>        -1.0134
     15 C11         1.2561   -0.7147   -7.5794 C.3       1 <0>         0.0823
     16 C12         1.6512    0.6481   -8.2281 C.3       1 <0>         0.0558
     17 H1          1.1638    0.8922   -9.1720 H         1 <0>         0.1346
     18 C13         3.2121    0.4762   -8.2685 C.3       1 <0>        -0.1278
     19 C14         3.3243    0.1018   -6.7438 C.3       1 <0>         0.1203
     20 H2          4.3278   -0.0823   -6.3601 H         1 <0>         0.1353
     21 C15         2.5393    1.2969   -6.1197 C.3       1 <0>         0.0242
     22 N2          1.4811    1.6414   -7.1211 N.3       1 <0>        -0.4981
     23 C16         0.1343    1.5571   -6.5405 C.3       1 <0>         0.0711
     24 C17        -0.1325    2.7700   -5.6200 C.3       1 <0>        -0.1085
     25 C18        -1.3503    3.4966   -6.2684 C.3       1 <0>        -0.1030
     26 C19        -0.7814    4.1159   -7.5814 C.3       1 <0>        -0.1134
     27 C20        -0.5145    2.9030   -8.5019 C.3       1 <0>        -0.1165
     28 C21        -0.9473    1.6652   -7.6584 C.3       1 <0>        -0.1025
     29 C22        -2.1449    2.2723   -6.8456 C.3       1 <0>        -0.1244
     30 H3          1.0558    0.5412   -0.0746 H         1 <0>         0.0590
     31 H4         -0.4931    0.8255   -0.9043 H         1 <0>         0.0575
     32 H5         -0.4700    0.4661    0.8389 H         1 <0>         0.0639
     33 H6          0.1188   -1.8282    1.6337 H         1 <0>         0.0642
     34 H7          0.5151   -3.1034    0.4568 H         1 <0>         0.0585
     35 H8          1.6446   -1.7531    0.7202 H         1 <0>         0.0595
     36 H9         -2.0784   -1.0698   -1.2740 H         1 <0>         0.0603
     37 H10        -1.6590   -2.7043   -0.7078 H         1 <0>         0.0608
     38 H11        -2.0554   -1.4292    0.4691 H         1 <0>         0.0634
     39 H12        -1.2379   -2.2869   -2.6434 H         1 <0>         0.1369
     40 H13        -0.1652   -2.7620   -4.8083 H         1 <0>         0.1365
     41 H14         3.5442   -1.3041   -3.2904 H         1 <0>         0.1382
     42 H15         2.4696   -0.8213   -1.1281 H         1 <0>         0.1320
     43 H16         1.1570   -1.4838   -8.3454 H         1 <0>         0.0780
     44 H17         0.3251   -0.6126   -7.0218 H         1 <0>         0.0766
     45 H18         3.5227   -0.3388   -8.9224 H         1 <0>         0.0875
     46 H19         3.7259    1.4081   -8.5047 H         1 <0>         0.0968
     47 H20         2.0793    0.9971   -5.1781 H         1 <0>         0.0620
     48 H21         3.2043    2.1463   -5.9635 H         1 <0>         0.0911
     49 H22         0.0175    0.6251   -5.9874 H         1 <0>         0.0496
     50 H23        -0.3819    2.4352   -4.6130 H         1 <0>         0.0571
     51 H24         0.7356    3.4288   -5.5982 H         1 <0>         0.0753
     52 H25        -1.9077    4.1679   -5.6151 H         1 <0>         0.0949
     53 H26        -1.5139    4.7834   -8.0352 H         1 <0>         0.0565
     54 H27         0.1466    4.6504   -7.3785 H         1 <0>         0.0653
     55 H28        -1.1159    2.9743   -9.4083 H         1 <0>         0.0546
     56 H29         0.5447    2.8413   -8.7516 H         1 <0>         0.0861
     57 H30        -1.1455    0.7519   -8.2194 H         1 <0>         0.0947
     58 H31        -2.4877    1.6000   -6.0591 H         1 <0>         0.0652
     59 H32        -2.9626    2.5851   -7.4948 H         1 <0>         0.0714
@<TRIPOS>BOND
     1    1    2 1
     2    1   30 1
     3    1   31 1
     4    1   32 1
     5    2    3 1
     6    2    4 1
     7    2    5 1
     8    3   33 1
     9    3   34 1
    10    3   35 1
    11    4   36 1
    12    4   37 1
    13    4   38 1
    14    5   10 ar
    15    5    6 ar
    16    6    7 ar
    17    6   39 1
    18    7    8 ar
    19    7   40 1
    20    8    9 ar
    21    8   11 1
    22    9   10 ar
    23    9   41 1
    24   10   42 1
    25   11   12 2
    26   11   13 2
    27   11   14 1
    28   14   19 1
    29   14   15 1
    30   15   16 1
    31   15   43 1
    32   15   44 1
    33   16   17 1
    34   16   22 1
    35   16   18 1
    36   18   19 1
    37   18   45 1
    38   18   46 1
    39   19   20 1
    40   19   21 1
    41   21   22 1
    42   21   47 1
    43   21   48 1
    44   22   23 1
    45   23   28 1
    46   23   24 1
    47   23   49 1
    48   24   25 1
    49   24   50 1
    50   24   51 1
    51   25   29 1
    52   25   26 1
    53   25   52 1
    54   26   27 1
    55   26   53 1
    56   26   54 1
    57   27   28 1
    58   27   55 1
    59   27   56 1
    60   28   29 1
    61   28   57 1
    62   29   58 1
    63   29   59 1
@<TRIPOS>MOLECULE
CHEMBL391653
   55    58     0     0     0
SMALL
USER_CHARGES

@<TRIPOS>ATOM
      1 C1         -0.0187    1.5258    0.0104 C.3       1 <0>        -0.1848
      2 C2          0.0021   -0.0041    0.0020 C.3       1 <0>         0.1043
      3 C3          0.7421   -0.5109    1.2415 C.3       1 <0>        -0.1855
      4 C4         -1.4117   -0.5257    0.0127 C.2       1 <0>         0.5333
      5 O1         -1.8076   -1.2234   -0.8969 O.2       1 <0>        -0.5049
      6 N1         -2.2363   -0.2169    1.0331 N.am      1 <0>        -0.7190
      7 C5         -3.6107   -0.7239    1.0435 C.3       1 <0>         0.1570
      8 C6         -4.5059    0.2125    0.2297 C.3       1 <0>        -0.0881
      9 C7         -4.4741    1.6123    0.8466 C.3       1 <0>        -0.1097
     10 C8         -4.9824    1.5460    2.2881 C.3       1 <0>        -0.0773
     11 C9         -4.0871    0.6095    3.1020 C.3       1 <0>        -0.1130
     12 C10        -4.1189   -0.7902    2.4851 C.3       1 <0>        -0.0824
     13 C11        -5.5543   -1.3198    2.4960 C.3       1 <0>        -0.0938
     14 C12        -6.4496   -0.3833    1.6821 C.3       1 <0>        -0.5431
     15 C13        -6.4177    1.0164    2.2990 C.3       1 <0>        -0.0966
     16 C14        -5.9413   -0.3170    0.2405 C.3       1 <0>        -0.0920
     17 S1         -8.1514   -1.0112    1.6950 S.o2      1 <0>         2.6147
     18 O2         -8.2291   -2.2295    0.9677 O.2       1 <0>        -0.9578
     19 O3         -8.7000   -0.9116    3.0021 O.2       1 <0>        -0.9575
     20 N2         -9.0131    0.0763    0.7911 N.pl3     1 <0>        -1.2477
     21 O4          0.6709   -0.4649   -1.1737 O.3       1 <0>        -0.2810
     22 C15         1.9652   -0.0810   -1.3383 C.ar      1 <0>         0.1069
     23 C16         2.2602    1.0972   -2.0094 C.ar      1 <0>        -0.0172
     24 C17         3.5766    1.4860   -2.1759 C.ar      1 <0>        -0.1313
     25 C18         4.6001    0.7003   -1.6739 C.ar      1 <0>         0.1281
     26 C19         4.3075   -0.4757   -1.0046 C.ar      1 <0>        -0.1311
     27 C20         2.9920   -0.8642   -0.8305 C.ar      1 <0>        -0.0172
     28 Cl1         2.6254   -2.3350    0.0157 Cl        1 <0>        -0.0221
     29 F1          5.8858    1.0815   -1.8379 F         1 <0>        -0.1192
     30 Cl2         0.9773    2.0822   -2.6400 Cl        1 <0>        -0.0229
     31 H1          1.0039    1.9031    0.0027 H         1 <0>         0.0729
     32 H2         -0.5459    1.8868   -0.8726 H         1 <0>         0.0826
     33 H3         -0.5289    1.8773    0.9072 H         1 <0>         0.0759
     34 H4          0.2319   -0.1594    2.1383 H         1 <0>         0.0765
     35 H5          0.7568   -1.6008    1.2356 H         1 <0>         0.0827
     36 H6          1.7647   -0.1336    1.2338 H         1 <0>         0.0729
     37 H7         -1.9197    0.3412    1.7606 H         1 <0>         0.3994
     38 H8         -3.6333   -1.7212    0.6041 H         1 <0>         0.0955
     39 H9         -4.1439    0.2598   -0.7973 H         1 <0>         0.0860
     40 H10        -3.4515    1.9896    0.8388 H         1 <0>         0.0669
     41 H11        -5.1119    2.2795    0.2667 H         1 <0>         0.0678
     42 H12        -4.9597    2.5432    2.7276 H         1 <0>         0.0821
     43 H13        -3.0645    0.9868    3.0943 H         1 <0>         0.0651
     44 H14        -4.4492    0.5623    4.1290 H         1 <0>         0.0747
     45 H15        -3.4811   -1.4574    3.0649 H         1 <0>         0.0890
     46 H16        -5.5770   -2.3170    2.0565 H         1 <0>         0.0857
     47 H17        -5.9164   -1.3670    3.5230 H         1 <0>         0.0886
     48 H18        -6.7798    0.9692    3.3260 H         1 <0>         0.0875
     49 H19        -7.0556    1.6836    1.7192 H         1 <0>         0.0743
     50 H20        -6.5792    0.3501   -0.3393 H         1 <0>         0.0820
     51 H21        -5.9640   -1.3143   -0.1989 H         1 <0>         0.0880
     52 H22        -9.7910   -0.2170    0.2912 H         1 <0>         0.4219
     53 H23        -8.7400    1.0066    0.7614 H         1 <0>         0.4129
     54 H24         3.8066    2.4030   -2.6981 H         1 <0>         0.1601
     55 H25         5.1072   -1.0878   -0.6142 H         1 <0>         0.1603
@<TRIPOS>BOND
     1    1    2 1
     2    1   31 1
     3    1   32 1
     4    1   33 1
     5    2    3 1
     6    2    4 1
     7    2   21 1
     8    3   34 1
     9    3   35 1
    10    3   36 1
    11    4    5 2
    12    4    6 am
    13    6    7 1
    14    6   37 1
    15    7   12 1
    16    7    8 1
    17    7   38 1
    18    8   16 1
    19    8    9 1
    20    8   39 1
    21    9   10 1
    22    9   40 1
    23    9   41 1
    24   10   15 1
    25   10   11 1
    26   10   42 1
    27   11   12 1
    28   11   43 1
    29   11   44 1
    30   12   13 1
    31   12   45 1
    32   13   14 1
    33   13   46 1
    34   13   47 1
    35   14   15 1
    36   14   16 1
    37   14   17 1
    38   15   48 1
    39   15   49 1
    40   16   50 1
    41   16   51 1
    42   17   18 2
    43   17   19 2
    44   17   20 1
    45   20   52 1
    46   20   53 1
    47   21   22 1
    48   22   27 ar
    49   22   23 ar
    50   23   24 ar
    51   23   30 1
    52   24   25 ar
    53   24   54 1
    54   25   26 ar
    55   25   29 1
    56   26   27 ar
    57   26   55 1
    58   27   28 1
@<TRIPOS>MOLECULE
CHEMBL549609
   50    54     0     0     0
SMALL
USER_CHARGES

@<TRIPOS>ATOM
      1 C1          0.9664    1.3816    2.2219 C.ar      1 <0>        -0.1157
      2 C2          2.1871    2.0114    2.0651 C.ar      1 <0>        -0.1207
      3 C3          3.2955    1.2814    1.6836 C.ar      1 <0>        -0.1019
      4 C4          3.1897   -0.0809    1.4570 C.ar      1 <0>        -0.0868
      5 C5          1.9685   -0.7111    1.6155 C.ar      1 <0>        -0.0893
      6 C6          0.8583    0.0233    1.9971 C.ar      1 <0>        -0.1088
      7 C7          2.1120   -2.1884    1.3164 C.3       1 <0>        -0.0834
      8 C8          3.4409   -2.3168    0.5401 C.3       1 <0>        -0.1099
      9 C9          4.2300   -1.0915    1.0363 C.3       1 <0>        -0.0270
     10 C10         5.1048   -1.4798    2.2244 C.3       1 <0>        -0.1022
     11 C11         6.1138   -2.5474    1.7928 C.3       1 <0>        -0.1374
     12 C12         7.0042   -1.9826    0.6818 C.3       1 <0>         0.1045
     13 N1          6.1499   -1.4963   -0.4102 N.am      1 <0>        -0.6018
     14 C13         5.0869   -0.5303   -0.0965 C.3       1 <0>         0.1249
     15 C14         6.3371   -1.9265   -1.6736 C.2       1 <0>         0.5597
     16 O1          5.5686   -1.5893   -2.5492 O.2       1 <0>        -0.5293
     17 C15         7.5014   -2.8265   -1.9984 C.3       1 <0>        -0.1227
     18 C16         8.3575   -2.4635   -3.2134 C.3       1 <0>        -0.1307
     19 C17         8.9089   -2.2600   -1.8008 C.3       1 <0>        -0.1604
     20 C18         7.2930   -4.2900   -1.7057 C.ar      1 <0>        -0.0402
     21 C19         8.1555   -4.9538   -0.8533 C.ar      1 <0>        -0.1013
     22 C20         7.9649   -6.2961   -0.5845 C.ar      1 <0>        -0.1066
     23 C21         6.9106   -6.9754   -1.1687 C.ar      1 <0>        -0.0327
     24 C22         6.0478   -6.3105   -2.0216 C.ar      1 <0>        -0.1053
     25 C23         6.2361   -4.9669   -2.2853 C.ar      1 <0>        -0.0904
     26 Cl1         6.6709   -8.6615   -0.8320 Cl        1 <0>        -0.0666
     27 H1          0.0995    1.9504    2.5242 H         1 <0>         0.1241
     28 H2          2.2739    3.0734    2.2412 H         1 <0>         0.1241
     29 H3          4.2484    1.7747    1.5611 H         1 <0>         0.1183
     30 H4         -0.0955   -0.4681    2.1198 H         1 <0>         0.1199
     31 H5          2.1592   -2.7592    2.2438 H         1 <0>         0.0798
     32 H6          1.2802   -2.5324    0.7017 H         1 <0>         0.0755
     33 H7          3.9554   -3.2414    0.8021 H         1 <0>         0.0794
     34 H8          3.2694   -2.2583   -0.5347 H         1 <0>         0.0743
     35 H9          5.6387   -0.6005    2.5846 H         1 <0>         0.0677
     36 H10         4.4773   -1.8753    3.0231 H         1 <0>         0.0699
     37 H11         6.7311   -2.8304    2.6454 H         1 <0>         0.0798
     38 H12         5.5809   -3.4231    1.4222 H         1 <0>         0.0727
     39 H13         7.5996   -1.1583    1.0745 H         1 <0>         0.0703
     40 H14         7.6635   -2.7662    0.3083 H         1 <0>         0.0908
     41 H15         4.4670   -0.3701   -0.9786 H         1 <0>         0.0957
     42 H16         5.5322    0.4143    0.2159 H         1 <0>         0.0691
     43 H17         8.7701   -3.2833   -3.8014 H         1 <0>         0.1079
     44 H18         8.0786   -1.5737   -3.7778 H         1 <0>         0.1066
     45 H19         8.9927   -1.2363   -1.4358 H         1 <0>         0.1043
     46 H20         9.6842   -2.9459   -1.4594 H         1 <0>         0.1094
     47 H21         8.9786   -4.4236   -0.3976 H         1 <0>         0.1350
     48 H22         8.6390   -6.8147    0.0812 H         1 <0>         0.1366
     49 H23         5.2248   -6.8404   -2.4782 H         1 <0>         0.1359
     50 H24         5.5598   -4.4466   -2.9474 H         1 <0>         0.1347
@<TRIPOS>BOND
     1    1    6 ar
     2    1    2 ar
     3    1   27 1
     4    2    3 ar
     5    2   28 1
     6    3    4 ar
     7    3   29 1
     8    4    9 1
     9    4    5 ar
    10    5    6 ar
    11    5    7 1
    12    6   30 1
    13    7    8 1
    14    7   31 1
    15    7   32 1
    16    8    9 1
    17    8   33 1
    18    8   34 1
    19    9   14 1
    20    9   10 1
    21   10   11 1
    22   10   35 1
    23   10   36 1
    24   11   12 1
    25   11   37 1
    26   11   38 1
    27   12   13 1
    28   12   39 1
    29   12   40 1
    30   13   14 1
    31   13   15 am
    32   14   41 1
    33   14   42 1
    34   15   16 2
    35   15   17 1
    36   17   19 1
    37   17   18 1
    38   17   20 1
    39   18   19 1
    40   18   43 1
    41   18   44 1
    42   19   45 1
    43   19   46 1
    44   20   25 ar
    45   20   21 ar
    46   21   22 ar
    47   21   47 1
    48   22   23 ar
    49   22   48 1
    50   23   24 ar
    51   23   26 1
    52   24   25 ar
    53   24   49 1
    54   25   50 1
@<TRIPOS>MOLECULE
CHEMBL549609__1
   50    54     0     0     0
SMALL
USER_CHARGES

@<TRIPOS>ATOM
      1 C1         -0.0134    1.3903    0.0259 C.ar      1 <0>        -0.1147
      2 C2          1.1791    2.0892   -0.0015 C.ar      1 <0>        -0.1218
      3 C3          2.3785    1.4053   -0.0248 C.ar      1 <0>        -0.0996
      4 C4          2.3923    0.0202   -0.0202 C.ar      1 <0>        -0.0887
      5 C5          1.1991   -0.6788    0.0097 C.ar      1 <0>        -0.0883
      6 C6         -0.0024    0.0093    0.0314 C.ar      1 <0>        -0.1092
      7 C7          1.4776   -2.1670    0.0143 C.3       1 <0>        -0.0859
      8 C8          2.9423   -2.3058   -0.4548 C.3       1 <0>        -0.1068
      9 C9          3.5481   -0.9513   -0.0447 C.3       1 <0>        -0.0272
     10 C10         4.5888   -0.5126   -1.0706 C.3       1 <0>        -0.1060
     11 C11         5.7233   -1.5393   -1.1239 C.3       1 <0>        -0.1357
     12 C12         6.3884   -1.6303    0.2531 C.3       1 <0>         0.1041
     13 N1          5.3599   -1.9323    1.2580 N.am      1 <0>        -0.6012
     14 C13         4.1788   -1.0609    1.3418 C.3       1 <0>         0.1291
     15 C14         5.4962   -2.9871    2.0858 C.2       1 <0>         0.5575
     16 O1          4.6823   -3.1775    2.9645 O.2       1 <0>        -0.5287
     17 C15         6.6601   -3.9299    1.9196 C.3       1 <0>        -0.1223
     18 C16         7.4222   -4.3407    3.1810 C.3       1 <0>        -0.1305
     19 C17         8.0617   -3.3751    2.1813 C.3       1 <0>        -0.1620
     20 C18         6.5117   -4.9597    0.8294 C.ar      1 <0>        -0.0340
     21 C19         7.6317   -5.4448    0.1801 C.ar      1 <0>        -0.1048
     22 C20         7.4963   -6.3893   -0.8198 C.ar      1 <0>        -0.1035
     23 C21         6.2396   -6.8493   -1.1710 C.ar      1 <0>        -0.0348
     24 C22         5.1191   -6.3634   -0.5208 C.ar      1 <0>        -0.1023
     25 C23         5.2562   -5.4231    0.4828 C.ar      1 <0>        -0.0959
     26 Cl1         6.0687   -8.0351   -2.4273 Cl        1 <0>        -0.0666
     27 H1         -0.9523    1.9236    0.0475 H         1 <0>         0.1242
     28 H2          1.1726    3.1692   -0.0050 H         1 <0>         0.1241
     29 H3          3.3094    1.9524   -0.0464 H         1 <0>         0.1186
     30 H4         -0.9343   -0.5360    0.0534 H         1 <0>         0.1200
     31 H5          1.3629   -2.5700    1.0206 H         1 <0>         0.0812
     32 H6          0.8087   -2.6791   -0.6774 H         1 <0>         0.0762
     33 H7          3.4395   -3.1257    0.0635 H         1 <0>         0.0752
     34 H8          2.9922   -2.4417   -1.5352 H         1 <0>         0.0749
     35 H9          4.1213   -0.4372   -2.0523 H         1 <0>         0.0702
     36 H10         4.9920    0.4592   -0.7857 H         1 <0>         0.0667
     37 H11         5.3195   -2.5139   -1.3981 H         1 <0>         0.0712
     38 H12         6.4605   -1.2289   -1.8643 H         1 <0>         0.0785
     39 H13         7.1360   -2.4235    0.2459 H         1 <0>         0.0919
     40 H14         6.8645   -0.6794    0.4923 H         1 <0>         0.0709
     41 H15         4.4788   -0.0711    1.6859 H         1 <0>         0.0702
     42 H16         3.4578   -1.4889    2.0382 H         1 <0>         0.0950
     43 H17         7.0819   -3.9290    4.1312 H         1 <0>         0.1077
     44 H18         7.8164   -5.3561    3.2227 H         1 <0>         0.1087
     45 H19         8.8766   -3.7552    1.5652 H         1 <0>         0.1113
     46 H20         8.1420   -2.3281    2.4737 H         1 <0>         0.1055
     47 H21         8.6126   -5.0854    0.4541 H         1 <0>         0.1359
     48 H22         8.3712   -6.7679   -1.3272 H         1 <0>         0.1366
     49 H23         4.1379   -6.7219   -0.7947 H         1 <0>         0.1355
     50 H24         4.3821   -5.0473    0.9937 H         1 <0>         0.1297
@<TRIPOS>BOND
     1    1    6 ar
     2    1    2 ar
     3    1   27 1
     4    2    3 ar
     5    2   28 1
     6    3    4 ar
     7    3   29 1
     8    4    9 1
     9    4    5 ar
    10    5    6 ar
    11    5    7 1
    12    6   30 1
    13    7    8 1
    14    7   31 1
    15    7   32 1
    16    8    9 1
    17    8   33 1
    18    8   34 1
    19    9   14 1
    20    9   10 1
    21   10   11 1
    22   10   35 1
    23   10   36 1
    24   11   12 1
    25   11   37 1
    26   11   38 1
    27   12   13 1
    28   12   39 1
    29   12   40 1
    30   13   14 1
    31   13   15 am
    32   14   41 1
    33   14   42 1
    34   15   16 2
    35   15   17 1
    36   17   19 1
    37   17   18 1
    38   17   20 1
    39   18   19 1
    40   18   43 1
    41   18   44 1
    42   19   45 1
    43   19   46 1
    44   20   25 ar
    45   20   21 ar
    46   21   22 ar
    47   21   47 1
    48   22   23 ar
    49   22   48 1
    50   23   24 ar
    51   23   26 1
    52   24   25 ar
    53   24   49 1
    54   25   50 1
@<TRIPOS>MOLECULE
CHEMBL235016
   45    49     0     0     0
SMALL
USER_CHARGES

@<TRIPOS>ATOM
      1 C1         -0.0189    1.5407    0.0105 C.3       1 <0>        -0.1216
      2 C2          1.4779    1.9416   -0.0016 C.3       1 <0>        -0.1215
      3 C3          2.1127    0.8770   -0.9336 C.3       1 <0>        -0.1100
      4 C4          1.3496   -0.4115   -0.5987 C.3       1 <0>         0.0090
      5 C5          0.0021   -0.0041    0.0020 C.3       1 <0>        -0.1090
      6 C6          1.1645   -1.2651   -1.8276 C.2       1 <0>         0.5043
      7 O1          0.5846   -0.9681   -2.8533 O.2       1 <0>        -0.4586
      8 N1          1.7766   -2.4187   -1.5450 N.2       1 <0>        -0.6419
      9 C7          2.3036   -2.4010   -0.3395 C.2       1 <0>         0.6059
     10 O2          2.0945   -1.2350    0.2989 O.3       1 <0>        -0.3112
     11 N2          2.9841   -3.4464    0.2020 N.pl3     1 <0>        -0.6505
     12 C8          3.1638   -4.6805   -0.5668 C.3       1 <0>         0.1945
     13 C9          1.7949   -5.2699   -0.9125 C.3       1 <0>        -0.1277
     14 C10         1.9826   -6.5587   -1.7154 C.3       1 <0>        -0.0800
     15 C11         2.7765   -7.5672   -0.8827 C.3       1 <0>        -0.1134
     16 C12         4.1454   -6.9778   -0.5369 C.3       1 <0>        -0.0782
     17 C13         3.9577   -5.6890    0.2660 C.3       1 <0>        -0.1159
     18 C14         4.9081   -6.6687   -1.8267 C.3       1 <0>        -0.1134
     19 C15         4.1142   -5.6602   -2.6595 C.3       1 <0>        -0.0800
     20 C16         2.7453   -6.2496   -3.0052 C.3       1 <0>        -0.1108
     21 C17         3.9265   -4.3713   -1.8566 C.3       1 <0>        -0.1277
     22 H1         -0.5055    1.9105    0.9130 H         1 <0>         0.0772
     23 H2         -0.5226    1.9202   -0.8785 H         1 <0>         0.0763
     24 H3          1.6061    2.9421   -0.4149 H         1 <0>         0.0785
     25 H4          1.9022    1.8796    1.0005 H         1 <0>         0.0736
     26 H5          1.9655    1.1477   -1.9791 H         1 <0>         0.0938
     27 H6          3.1740    0.7607   -0.7138 H         1 <0>         0.0824
     28 H7         -0.0850   -0.3854    1.0194 H         1 <0>         0.0851
     29 H8         -0.8129   -0.3863   -0.6127 H         1 <0>         0.0841
     30 H9          3.3505   -3.3750    1.0973 H         1 <0>         0.4192
     31 H10         1.2515   -5.4901    0.0064 H         1 <0>         0.0608
     32 H11         1.2293   -4.5514   -1.5058 H         1 <0>         0.0981
     33 H12         1.0073   -6.9786   -1.9617 H         1 <0>         0.0755
     34 H13         2.2331   -7.7875    0.0362 H         1 <0>         0.0633
     35 H14         2.9102   -8.4854   -1.4547 H         1 <0>         0.0674
     36 H15         4.7110   -7.6963    0.0563 H         1 <0>         0.0785
     37 H16         4.9330   -5.2691    0.5123 H         1 <0>         0.0725
     38 H17         3.4144   -5.9092    1.1848 H         1 <0>         0.0725
     39 H18         5.8834   -6.2488   -1.5804 H         1 <0>         0.0633
     40 H19         5.0418   -7.5869   -2.3987 H         1 <0>         0.0674
     41 H20         4.6575   -5.4399   -3.5783 H         1 <0>         0.0755
     42 H21         2.8790   -7.1677   -3.5772 H         1 <0>         0.0642
     43 H22         2.1797   -5.5311   -3.5985 H         1 <0>         0.0693
     44 H23         3.3609   -3.6528   -2.4498 H         1 <0>         0.0981
     45 H24         4.9017   -3.9514   -1.6103 H         1 <0>         0.0608
@<TRIPOS>BOND
     1    1    5 1
     2    1    2 1
     3    1   22 1
     4    1   23 1
     5    2    3 1
     6    2   24 1
     7    2   25 1
     8    3    4 1
     9    3   26 1
    10    3   27 1
    11    4   10 1
    12    4    5 1
    13    4    6 1
    14    5   28 1
    15    5   29 1
    16    6    7 2
    17    6    8 1
    18    8    9 2
    19    9   10 1
    20    9   11 1
    21   11   12 1
    22   11   30 1
    23   12   17 1
    24   12   21 1
    25   12   13 1
    26   13   14 1
    27   13   31 1
    28   13   32 1
    29   14   20 1
    30   14   15 1
    31   14   33 1
    32   15   16 1
    33   15   34 1
    34   15   35 1
    35   16   17 1
    36   16   18 1
    37   16   36 1
    38   17   37 1
    39   17   38 1
    40   18   19 1
    41   18   39 1
    42   18   40 1
    43   19   20 1
    44   19   21 1
    45   19   41 1
    46   20   42 1
    47   20   43 1
    48   21   44 1
    49   21   45 1
@<TRIPOS>MOLECULE
CHEMBL396387
   45    49     0     0     0
SMALL
USER_CHARGES

@<TRIPOS>ATOM
      1 C1         -0.0189    1.5407    0.0105 C.3       1 <0>        -0.1216
      2 C2          1.4779    1.9416   -0.0016 C.3       1 <0>        -0.1214
      3 C3          2.1127    0.8770   -0.9336 C.3       1 <0>        -0.1102
      4 C4          1.3496   -0.4115   -0.5987 C.3       1 <0>         0.0095
      5 C5          0.0021   -0.0041    0.0020 C.3       1 <0>        -0.1090
      6 C6          1.1645   -1.2651   -1.8276 C.2       1 <0>         0.5063
      7 O1          0.5846   -0.9681   -2.8533 O.2       1 <0>        -0.4582
      8 N1          1.7766   -2.4187   -1.5450 N.2       1 <0>        -0.6465
      9 C7          2.3036   -2.4010   -0.3395 C.2       1 <0>         0.6029
     10 O2          2.0945   -1.2350    0.2989 O.3       1 <0>        -0.3110
     11 N2          2.9841   -3.4464    0.2020 N.pl3     1 <0>        -0.6485
     12 C8          3.1638   -4.6805   -0.5668 C.3       1 <0>         0.1682
     13 C9          1.9366   -5.5764   -0.3873 C.3       1 <0>        -0.0971
     14 C10         1.7672   -5.9186    1.0943 C.3       1 <0>        -0.1100
     15 C11         3.0128   -6.6536    1.5936 C.3       1 <0>        -0.0879
     16 C12         3.2005   -7.9425    0.7907 C.3       1 <0>        -0.1086
     17 C13         3.3698   -7.6003   -0.6909 C.3       1 <0>        -0.0900
     18 C14         2.1243   -6.8652   -1.1902 C.3       1 <0>        -0.1058
     19 C15         4.5970   -6.7043   -0.8704 C.3       1 <0>        -0.1044
     20 C16         4.4093   -5.4155   -0.0675 C.3       1 <0>        -0.0945
     21 C17         4.2399   -5.7577    1.4141 C.3       1 <0>        -0.1121
     22 H1         -0.5055    1.9105    0.9130 H         1 <0>         0.0773
     23 H2         -0.5226    1.9202   -0.8785 H         1 <0>         0.0765
     24 H3          1.6061    2.9421   -0.4149 H         1 <0>         0.0787
     25 H4          1.9022    1.8796    1.0005 H         1 <0>         0.0737
     26 H5          1.9655    1.1477   -1.9791 H         1 <0>         0.0940
     27 H6          3.1740    0.7607   -0.7138 H         1 <0>         0.0827
     28 H7         -0.0850   -0.3854    1.0194 H         1 <0>         0.0853
     29 H8         -0.8129   -0.3863   -0.6127 H         1 <0>         0.0841
     30 H9          3.3505   -3.3750    1.0973 H         1 <0>         0.4185
     31 H10         3.2844   -4.4367   -1.6223 H         1 <0>         0.1053
     32 H11         1.0493   -5.0527   -0.7430 H         1 <0>         0.0816
     33 H12         1.6335   -5.0004    1.6663 H         1 <0>         0.0587
     34 H13         0.8930   -6.5569    1.2221 H         1 <0>         0.0671
     35 H14         2.8921   -6.8974    2.6491 H         1 <0>         0.0727
     36 H15         4.0878   -8.4661    1.1464 H         1 <0>         0.0637
     37 H16         2.3262   -8.5808    0.9185 H         1 <0>         0.0641
     38 H17         3.5036   -8.5185   -1.2629 H         1 <0>         0.0755
     39 H18         1.2500   -7.5035   -1.0623 H         1 <0>         0.0691
     40 H19         2.2450   -6.6215   -2.2457 H         1 <0>         0.0688
     41 H20         5.4843   -7.2280   -0.5147 H         1 <0>         0.0721
     42 H21         4.7177   -6.4606   -1.9259 H         1 <0>         0.0691
     43 H22         5.2836   -4.7772   -0.1953 H         1 <0>         0.0808
     44 H23         4.1062   -4.8395    1.9861 H         1 <0>         0.0579
     45 H24         5.1273   -6.2814    1.7698 H         1 <0>         0.0725
@<TRIPOS>BOND
     1    1    5 1
     2    1    2 1
     3    1   22 1
     4    1   23 1
     5    2    3 1
     6    2   24 1
     7    2   25 1
     8    3    4 1
     9    3   26 1
    10    3   27 1
    11    4   10 1
    12    4    5 1
    13    4    6 1
    14    5   28 1
    15    5   29 1
    16    6    7 2
    17    6    8 1
    18    8    9 2
    19    9   10 1
    20    9   11 1
    21   11   12 1
    22   11   30 1
    23   12   20 1
    24   12   13 1
    25   12   31 1
    26   13   18 1
    27   13   14 1
    28   13   32 1
    29   14   15 1
    30   14   33 1
    31   14   34 1
    32   15   21 1
    33   15   16 1
    34   15   35 1
    35   16   17 1
    36   16   36 1
    37   16   37 1
    38   17   18 1
    39   17   19 1
    40   17   38 1
    41   18   39 1
    42   18   40 1
    43   19   20 1
    44   19   41 1
    45   19   42 1
    46   20   21 1
    47   20   43 1
    48   21   44 1
    49   21   45 1
@<TRIPOS>MOLECULE
CHEMBL238234
   47    50     0     0     0
SMALL
USER_CHARGES

@<TRIPOS>ATOM
      1 C1         -0.0187    1.5258    0.0104 C.3       1 <0>        -0.1601
      2 C2          0.0021   -0.0041    0.0020 C.3       1 <0>        -0.1088
      3 C3          0.7421   -0.5109    1.2415 C.3       1 <0>         0.0154
      4 C4          0.1294    0.0667    2.5021 C.2       1 <0>         0.5088
      5 O1         -1.0071   -0.0858    2.9044 O.2       1 <0>        -0.4628
      6 N1          1.1004    0.7774    3.0763 N.2       1 <0>        -0.6418
      7 C5          2.2108    0.7314    2.3747 C.2       1 <0>         0.6100
      8 O2          2.0902   -0.0138    1.2643 O.3       1 <0>        -0.3146
      9 N2          3.3568    1.3690    2.7342 N.pl3     1 <0>        -0.6527
     10 C6          3.3987    2.1618    3.9654 C.3       1 <0>         0.1954
     11 C7          2.3612    3.2834    3.8853 C.3       1 <0>        -0.1274
     12 C8          2.4050    4.1114    5.1712 C.3       1 <0>        -0.0799
     13 C9          3.7995    4.7177    5.3402 C.3       1 <0>        -0.1134
     14 C10         4.8370    3.5960    5.4203 C.3       1 <0>        -0.0781
     15 C11         4.7932    2.7681    4.1344 C.3       1 <0>        -0.1160
     16 C12         4.5237    2.6960    6.6172 C.3       1 <0>        -0.1134
     17 C13         3.1292    2.0897    6.4483 C.3       1 <0>        -0.0799
     18 C14         2.0917    3.2114    6.3682 C.3       1 <0>        -0.1106
     19 C15         3.0854    1.2618    5.1624 C.3       1 <0>        -0.1274
     20 C16         0.7312   -2.0402    1.2854 C.3       1 <0>        -0.1084
     21 C17         1.3661   -2.5175    2.5931 C.3       1 <0>        -0.1604
     22 H1          1.0039    1.9031    0.0027 H         1 <0>         0.0549
     23 H2         -0.5459    1.8868   -0.8726 H         1 <0>         0.0697
     24 H3         -0.5289    1.8773    0.9072 H         1 <0>         0.0578
     25 H4         -1.0205   -0.3814    0.0098 H         1 <0>         0.0951
     26 H5          0.5123   -0.3556   -0.8948 H         1 <0>         0.0837
     27 H6          4.1465    1.2989    2.1753 H         1 <0>         0.4185
     28 H7          2.5844    3.9246    3.0326 H         1 <0>         0.0604
     29 H8          1.3677    2.8515    3.7649 H         1 <0>         0.0985
     30 H9          1.6659    4.9105    5.1141 H         1 <0>         0.0752
     31 H10         4.0227    5.3588    4.4874 H         1 <0>         0.0632
     32 H11         3.8307    5.3075    6.2563 H         1 <0>         0.0673
     33 H12         5.8305    4.0279    5.5406 H         1 <0>         0.0783
     34 H13         5.5324    1.9690    4.1914 H         1 <0>         0.0722
     35 H14         5.0164    3.4092    3.2816 H         1 <0>         0.0722
     36 H15         5.2628    1.8969    6.6743 H         1 <0>         0.0632
     37 H16         4.5549    3.2859    7.5333 H         1 <0>         0.0672
     38 H17         2.9060    1.4486    7.3010 H         1 <0>         0.0753
     39 H18         2.1229    3.8012    7.2843 H         1 <0>         0.0639
     40 H19         1.0982    2.7795    6.2478 H         1 <0>         0.0692
     41 H20         2.0919    0.8298    5.0420 H         1 <0>         0.0985
     42 H21         3.8245    0.4627    5.2194 H         1 <0>         0.0604
     43 H22        -0.2969   -2.3980    1.2289 H         1 <0>         0.0953
     44 H23         1.2991   -2.4320    0.4416 H         1 <0>         0.0838
     45 H24         0.7982   -2.1257    3.4369 H         1 <0>         0.0586
     46 H25         1.3584   -3.6070    2.6243 H         1 <0>         0.0697
     47 H26         2.3942   -2.1597    2.6496 H         1 <0>         0.0542
@<TRIPOS>BOND
     1    1    2 1
     2    1   22 1
     3    1   23 1
     4    1   24 1
     5    2    3 1
     6    2   25 1
     7    2   26 1
     8    3    8 1
     9    3    4 1
    10    3   20 1
    11    4    5 2
    12    4    6 1
    13    6    7 2
    14    7    8 1
    15    7    9 1
    16    9   10 1
    17    9   27 1
    18   10   15 1
    19   10   19 1
    20   10   11 1
    21   11   12 1
    22   11   28 1
    23   11   29 1
    24   12   18 1
    25   12   13 1
    26   12   30 1
    27   13   14 1
    28   13   31 1
    29   13   32 1
    30   14   15 1
    31   14   16 1
    32   14   33 1
    33   15   34 1
    34   15   35 1
    35   16   17 1
    36   16   36 1
    37   16   37 1
    38   17   18 1
    39   17   19 1
    40   17   38 1
    41   18   39 1
    42   18   40 1
    43   19   41 1
    44   19   42 1
    45   20   21 1
    46   20   43 1
    47   20   44 1
    48   21   45 1
    49   21   46 1
    50   21   47 1
@<TRIPOS>MOLECULE
CHEMBL510937
   54    57     0     0     0
SMALL
USER_CHARGES

@<TRIPOS>ATOM
      1 C1          0.1061    1.5689   -0.1868 C.3       1 <0>        -0.1605
      2 C2          0.1027    0.0396   -0.1402 C.3       1 <0>         0.1866
      3 H1          0.5795   -0.3523   -1.0387 H         1 <0>         0.1139
      4 C3          0.8611   -0.4276    1.0754 C.ar      1 <0>        -0.1123
      5 C4          0.2475   -0.4280    2.3142 C.ar      1 <0>        -0.0870
      6 C5          0.9418   -0.8567    3.4296 C.ar      1 <0>        -0.1469
      7 C6          2.2524   -1.2858    3.3060 C.ar      1 <0>         0.1066
      8 C7          2.8659   -1.2849    2.0647 C.ar      1 <0>        -0.1466
      9 C8          2.1679   -0.8608    0.9499 C.ar      1 <0>        -0.0708
     10 F1          2.9322   -1.7047    4.3957 F         1 <0>        -0.1351
     11 N1         -1.2784   -0.4437   -0.0698 N.pl3     1 <0>        -0.6370
     12 C9         -2.0029   -0.6073   -1.2138 C.2       1 <0>         0.4762
     13 N2         -1.6002   -0.3798   -2.4504 N.2       1 <0>        -0.6863
     14 C10        -2.3464   -0.5569   -3.5111 C.2       1 <0>         0.5500
     15 O1         -1.9646   -0.3444   -4.6455 O.2       1 <0>        -0.4473
     16 C11        -3.7455   -1.0586   -3.1717 C.3       1 <0>        -0.0628
     17 S1         -3.5919   -1.1476   -1.3402 S.3       1 <0>        -0.0817
     18 C12        -4.0054   -2.4409   -3.7739 C.3       1 <0>        -0.1247
     19 C13        -4.8024   -0.0706   -3.5936 C.ar      1 <0>        -0.0381
     20 C14        -5.7837   -0.4529   -4.4909 C.ar      1 <0>        -0.1035
     21 C15        -6.7541    0.4467   -4.8812 C.ar      1 <0>        -0.0542
     22 C16        -6.7445    1.7449   -4.3687 C.ar      1 <0>        -0.1218
     23 C17        -5.7517    2.1241   -3.4638 C.ar      1 <0>        -0.1179
     24 C18        -4.7905    1.2131   -3.0774 C.ar      1 <0>        -0.1062
     25 C19        -7.7811    2.7144   -4.7829 C.2       1 <0>         0.5739
     26 O2         -8.5554    2.4316   -5.6762 O.2       1 <0>        -0.5310
     27 N3         -7.8675    3.9116   -4.1699 N.am      1 <0>        -0.6151
     28 C20        -6.9310    4.4270   -3.1605 C.3       1 <0>         0.0865
     29 C21        -7.4431    5.8170   -2.7278 C.3       1 <0>        -0.1362
     30 C22        -8.9479    5.7650   -3.1024 C.3       1 <0>        -0.1342
     31 C23        -8.9130    4.9239   -4.4054 C.3       1 <0>         0.1046
     32 H2          1.1337    1.9286   -0.2392 H         1 <0>         0.0785
     33 H3         -0.4424    1.9069   -1.0661 H         1 <0>         0.0720
     34 H4         -0.3706    1.9608    0.7116 H         1 <0>         0.0632
     35 H5         -0.7747   -0.0929    2.4104 H         1 <0>         0.1304
     36 H6          0.4624   -0.8567    4.3973 H         1 <0>         0.1405
     37 H7          3.8882   -1.6191    1.9671 H         1 <0>         0.1417
     38 H8          2.6447   -0.8642   -0.0192 H         1 <0>         0.1395
     39 H9         -1.6777   -0.6474    0.7904 H         1 <0>         0.4240
     40 H10        -3.2709   -3.1486   -3.3895 H         1 <0>         0.0758
     41 H11        -5.0072   -2.7732   -3.5019 H         1 <0>         0.0831
     42 H12        -3.9231   -2.3856   -4.8594 H         1 <0>         0.0919
     43 H13        -5.7898   -1.4576   -4.8870 H         1 <0>         0.1404
     44 H14        -7.5194    0.1472   -5.5819 H         1 <0>         0.1428
     45 H15        -5.7387    3.1272   -3.0636 H         1 <0>         0.1632
     46 H16        -4.0243    1.5039   -2.3740 H         1 <0>         0.1235
     47 H17        -6.9067    3.7569   -2.3011 H         1 <0>         0.0816
     48 H18        -5.9339    4.5169   -3.5914 H         1 <0>         0.0802
     49 H19        -7.3175    5.9572   -1.6542 H         1 <0>         0.0865
     50 H20        -6.9345    6.6052   -3.2829 H         1 <0>         0.0805
     51 H21        -9.5267    5.2649   -2.3259 H         1 <0>         0.0784
     52 H22        -9.3373    6.7647   -3.2951 H         1 <0>         0.0880
     53 H23        -8.6493    5.5506   -5.2573 H         1 <0>         0.0720
     54 H24        -9.8767    4.4424   -4.5714 H         1 <0>         0.0813
@<TRIPOS>BOND
     1    1    2 1
     2    1   32 1
     3    1   33 1
     4    1   34 1
     5    2    3 1
     6    2    4 1
     7    2   11 1
     8    4    9 ar
     9    4    5 ar
    10    5    6 ar
    11    5   35 1
    12    6    7 ar
    13    6   36 1
    14    7    8 ar
    15    7   10 1
    16    8    9 ar
    17    8   37 1
    18    9   38 1
    19   11   12 1
    20   11   39 1
    21   12   17 1
    22   12   13 2
    23   13   14 1
    24   14   15 2
    25   14   16 1
    26   16   17 1
    27   16   18 1
    28   16   19 1
    29   18   40 1
    30   18   41 1
    31   18   42 1
    32   19   24 ar
    33   19   20 ar
    34   20   21 ar
    35   20   43 1
    36   21   22 ar
    37   21   44 1
    38   22   23 ar
    39   22   25 1
    40   23   24 ar
    41   23   45 1
    42   24   46 1
    43   25   26 2
    44   25   27 am
    45   27   31 1
    46   27   28 1
    47   28   29 1
    48   28   47 1
    49   28   48 1
    50   29   30 1
    51   29   49 1
    52   29   50 1
    53   30   31 1
    54   30   51 1
    55   30   52 1
    56   31   53 1
    57   31   54 1
@<TRIPOS>MOLECULE
CHEMBL510937__1
   53    56     0     0     0
SMALL
USER_CHARGES

@<TRIPOS>ATOM
      1 C1          0.0567    1.6243   -0.1719 C.3       1 <0>        -0.1529
      2 C2          0.0823    0.0952   -0.1244 C.3       1 <0>         0.1424
      3 H1          0.5635   -0.2882   -1.0242 H         1 <0>         0.0521
      4 C3          0.8533   -0.3568    1.0890 C.ar      1 <0>        -0.0506
      5 C4          0.2439   -0.3681    2.3298 C.ar      1 <0>        -0.0599
      6 C5          0.9497   -0.7828    3.4432 C.ar      1 <0>        -0.1593
      7 C6          2.2678   -1.1872    3.3156 C.ar      1 <0>         0.0768
      8 C7          2.8771   -1.1755    2.0723 C.ar      1 <0>        -0.1574
      9 C8          2.1676   -0.7653    0.9595 C.ar      1 <0>        -0.0952
     10 F1          2.9589   -1.5924    4.4034 F         1 <0>        -0.1496
     11 N1         -1.2892   -0.4141   -0.0492 N.2       1 <0>        -0.5995
     12 C9         -2.1776   -0.1302   -1.0443 C.2       1 <0>         0.3987
     13 N2         -1.9520    0.5801   -2.1341 N.2       1 <0>        -0.7433
     14 C10        -2.8502    0.8180   -3.0560 C.2       1 <0>         0.5332
     15 O1         -2.6308    1.4735   -4.0560 O.2       1 <0>        -0.5519
     16 C11        -4.2010    0.1847   -2.7417 C.3       1 <0>        -0.0800
     17 S1         -3.7853   -0.6194   -1.1396 S.3       1 <0>        -0.1612
     18 C12        -4.5918   -0.8518   -3.7970 C.3       1 <0>        -0.1109
     19 C13        -5.2744    1.2296   -2.5772 C.ar      1 <0>        -0.0005
     20 C14        -6.3882    1.2079   -3.3978 C.ar      1 <0>        -0.1206
     21 C15        -7.3745    2.1615   -3.2525 C.ar      1 <0>        -0.0576
     22 C16        -7.2469    3.1496   -2.2750 C.ar      1 <0>        -0.1464
     23 C17        -6.1208    3.1657   -1.4505 C.ar      1 <0>        -0.1189
     24 C18        -5.1445    2.2030   -1.6026 C.ar      1 <0>        -0.1050
     25 C19        -8.2998    4.1750   -2.1140 C.2       1 <0>         0.5804
     26 O2         -9.2049    4.2487   -2.9219 O.2       1 <0>        -0.5420
     27 N3         -8.2559    5.0279   -1.0714 N.am      1 <0>        -0.6174
     28 C20        -7.1657    5.1260   -0.0899 C.3       1 <0>         0.0869
     29 C21        -7.5625    6.2157    0.9283 C.3       1 <0>        -0.1358
     30 C22        -9.1067    6.2754    0.7893 C.3       1 <0>        -0.1337
     31 C23        -9.2902    6.0215   -0.7300 C.3       1 <0>         0.1061
     32 H2          1.0771    2.0032   -0.2278 H         1 <0>         0.0386
     33 H3         -0.5010    1.9512   -1.0495 H         1 <0>         0.0834
     34 H4         -0.4245    2.0077    0.7279 H         1 <0>         0.0427
     35 H5         -0.7841   -0.0523    2.4292 H         1 <0>         0.1363
     36 H6          0.4735   -0.7912    4.4125 H         1 <0>         0.1283
     37 H7          3.9053   -1.4904    1.9716 H         1 <0>         0.1281
     38 H8          2.6413   -0.7603   -0.0110 H         1 <0>         0.1271
     39 H9         -3.8332   -1.6335   -3.8369 H         1 <0>         0.0657
     40 H10        -5.5539   -1.2922   -3.5350 H         1 <0>         0.0641
     41 H11        -4.6668   -0.3682   -4.7710 H         1 <0>         0.0724
     42 H12        -6.4855    0.4430   -4.1540 H         1 <0>         0.1335
     43 H13        -8.2432    2.1437   -3.8939 H         1 <0>         0.1333
     44 H14        -6.0161    3.9277   -0.6923 H         1 <0>         0.1556
     45 H15        -4.2748    2.2117   -0.9623 H         1 <0>         0.1274
     46 H16        -7.0388    4.1709    0.4199 H         1 <0>         0.0838
     47 H17        -6.2396    5.4068   -0.5913 H         1 <0>         0.0811
     48 H18        -7.2773    5.9219    1.9384 H         1 <0>         0.0854
     49 H19        -7.1142    7.1731    0.6629 H         1 <0>         0.0782
     50 H20        -9.5827    5.4926    1.3799 H         1 <0>         0.0773
     51 H21        -9.4864    7.2584    1.0680 H         1 <0>         0.0842
     52 H22        -9.1326    6.9417   -1.2926 H         1 <0>         0.0681
     53 H23       -10.2833    5.6191   -0.9298 H         1 <0>         0.0781
@<TRIPOS>BOND
     1    1    2 1
     2    1   32 1
     3    1   33 1
     4    1   34 1
     5    2    3 1
     6    2    4 1
     7    2   11 1
     8    4    9 ar
     9    4    5 ar
    10    5    6 ar
    11    5   35 1
    12    6    7 ar
    13    6   36 1
    14    7    8 ar
    15    7   10 1
    16    8    9 ar
    17    8   37 1
    18    9   38 1
    19   11   12 1
    20   12   17 1
    21   12   13 2
    22   13   14 1
    23   14   15 2
    24   14   16 1
    25   16   17 1
    26   16   18 1
    27   16   19 1
    28   18   39 1
    29   18   40 1
    30   18   41 1
    31   19   24 ar
    32   19   20 ar
    33   20   21 ar
    34   20   42 1
    35   21   22 ar
    36   21   43 1
    37   22   23 ar
    38   22   25 1
    39   23   24 ar
    40   23   44 1
    41   24   45 1
    42   25   26 2
    43   25   27 am
    44   27   31 1
    45   27   28 1
    46   28   29 1
    47   28   46 1
    48   28   47 1
    49   29   30 1
    50   29   48 1
    51   29   49 1
    52   30   31 1
    53   30   50 1
    54   30   51 1
    55   31   52 1
    56   31   53 1
@<TRIPOS>MOLECULE
CHEMBL510937__2
   54    57     0     0     0
SMALL
USER_CHARGES

@<TRIPOS>ATOM
      1 C1         -0.0912    1.4789    0.1301 C.3       1 <0>        -0.1609
      2 C2         -0.1055   -0.0510    0.1369 C.3       1 <0>         0.1868
      3 H1          0.4347   -0.4232   -0.7336 H         1 <0>         0.1139
      4 C3          0.5582   -0.5540    1.3929 C.ar      1 <0>        -0.1121
      5 C4         -0.1457   -0.5817    2.5824 C.ar      1 <0>        -0.0869
      6 C5          0.4618   -1.0432    3.7347 C.ar      1 <0>        -0.1468
      7 C6          1.7758   -1.4779    3.6976 C.ar      1 <0>         0.1066
      8 C7          2.4798   -1.4497    2.5056 C.ar      1 <0>        -0.1466
      9 C8          1.8686   -0.9927    1.3535 C.ar      1 <0>        -0.0710
     10 F1          2.3708   -1.9288    4.8236 F         1 <0>        -0.1351
     11 N1         -1.4904   -0.5266    0.0923 N.pl3     1 <0>        -0.6370
     12 C9         -2.1287   -0.6562   -1.1061 C.2       1 <0>         0.4763
     13 N2         -1.6342   -0.4002   -2.3032 N.2       1 <0>        -0.6866
     14 C10        -2.3004   -0.5452   -3.4205 C.2       1 <0>         0.5502
     15 O1         -1.8344   -0.3067   -4.5176 O.2       1 <0>        -0.4476
     16 C11        -3.7233   -1.0459   -3.1988 C.3       1 <0>        -0.0628
     17 S1         -3.7066   -1.1824   -1.3638 S.3       1 <0>        -0.0814
     18 C12        -4.7566   -0.0251   -3.6794 C.3       1 <0>        -0.1243
     19 C13        -3.9411   -2.3902   -3.8442 C.ar      1 <0>        -0.0387
     20 C14        -4.9161   -2.5384   -4.8146 C.ar      1 <0>        -0.1034
     21 C15        -5.1206   -3.7663   -5.4094 C.ar      1 <0>        -0.0544
     22 C16        -4.3413   -4.8604   -5.0301 C.ar      1 <0>        -0.1218
     23 C17        -3.3595   -4.7040   -4.0505 C.ar      1 <0>        -0.1179
     24 C18        -3.1614   -3.4694   -3.4676 C.ar      1 <0>        -0.1061
     25 C19        -4.5553   -6.1793   -5.6629 C.2       1 <0>         0.5740
     26 O2         -5.5015   -6.3503   -6.4066 O.2       1 <0>        -0.5315
     27 N3         -3.7014   -7.1921   -5.4152 N.am      1 <0>        -0.6149
     28 C20        -2.5891   -7.1595   -4.4543 C.3       1 <0>         0.0863
     29 C21        -1.8770   -8.5265   -4.5310 C.3       1 <0>        -0.1361
     30 C22        -2.2794   -9.0495   -5.9353 C.3       1 <0>        -0.1346
     31 C23        -3.7317   -8.5184   -6.0582 C.3       1 <0>         0.1048
     32 H2          0.9392    1.8328    0.1633 H         1 <0>         0.0784
     33 H3         -0.5712    1.8428   -0.7784 H         1 <0>         0.0724
     34 H4         -0.6314    1.8512    1.0006 H         1 <0>         0.0632
     35 H5         -1.1705   -0.2422    2.6112 H         1 <0>         0.1305
     36 H6         -0.0882   -1.0644    4.6640 H         1 <0>         0.1405
     37 H7          3.5049   -1.7882    2.4755 H         1 <0>         0.1416
     38 H8          2.4161   -0.9748    0.4227 H         1 <0>         0.1394
     39 H9         -1.9534   -0.7494    0.9150 H         1 <0>         0.4240
     40 H10        -4.6253    0.1497   -4.7472 H         1 <0>         0.0919
     41 H11        -5.7599   -0.4091   -3.4948 H         1 <0>         0.0831
     42 H12        -4.6209    0.9115   -3.1385 H         1 <0>         0.0756
     43 H13        -5.5185   -1.6911   -5.1070 H         1 <0>         0.1404
     44 H14        -5.8822   -3.8808   -6.1666 H         1 <0>         0.1428
     45 H15        -2.7532   -5.5467   -3.7525 H         1 <0>         0.1631
     46 H16        -2.3991   -3.3460   -2.7126 H         1 <0>         0.1236
     47 H17        -1.8932   -6.3636   -4.7196 H         1 <0>         0.0815
     48 H18        -2.9738   -6.9980   -3.4473 H         1 <0>         0.0804
     49 H19        -0.7963   -8.4028   -4.4607 H         1 <0>         0.0866
     50 H20        -2.2413   -9.1954   -3.7514 H         1 <0>         0.0805
     51 H21        -1.6382   -8.6261   -6.7084 H         1 <0>         0.0787
     52 H22        -2.2596  -10.1389   -5.9668 H         1 <0>         0.0881
     53 H23        -4.4247   -9.1777   -5.5355 H         1 <0>         0.0720
     54 H24        -4.0136   -8.4251   -7.1070 H         1 <0>         0.0813
@<TRIPOS>BOND
     1    1    2 1
     2    1   32 1
     3    1   33 1
     4    1   34 1
     5    2    3 1
     6    2    4 1
     7    2   11 1
     8    4    9 ar
     9    4    5 ar
    10    5    6 ar
    11    5   35 1
    12    6    7 ar
    13    6   36 1
    14    7    8 ar
    15    7   10 1
    16    8    9 ar
    17    8   37 1
    18    9   38 1
    19   11   12 1
    20   11   39 1
    21   12   17 1
    22   12   13 2
    23   13   14 1
    24   14   15 2
    25   14   16 1
    26   16   17 1
    27   16   18 1
    28   16   19 1
    29   18   40 1
    30   18   41 1
    31   18   42 1
    32   19   24 ar
    33   19   20 ar
    34   20   21 ar
    35   20   43 1
    36   21   22 ar
    37   21   44 1
    38   22   23 ar
    39   22   25 1
    40   23   24 ar
    41   23   45 1
    42   24   46 1
    43   25   26 2
    44   25   27 am
    45   27   31 1
    46   27   28 1
    47   28   29 1
    48   28   47 1
    49   28   48 1
    50   29   30 1
    51   29   49 1
    52   29   50 1
    53   30   31 1
    54   30   51 1
    55   30   52 1
    56   31   53 1
    57   31   54 1
@<TRIPOS>MOLECULE
CHEMBL510937__3
   53    56     0     0     0
SMALL
USER_CHARGES

@<TRIPOS>ATOM
      1 C1         -0.0510    1.4260    0.1079 C.3       1 <0>        -0.1533
      2 C2         -0.0862   -0.1036    0.1214 C.3       1 <0>         0.1428
      3 H1          0.4380   -0.4868   -0.7540 H         1 <0>         0.0521
      4 C3          0.5861   -0.6104    1.3713 C.ar      1 <0>        -0.0506
      5 C4         -0.1033   -0.6235    2.5696 C.ar      1 <0>        -0.0598
      6 C5          0.5120   -1.0885    3.7163 C.ar      1 <0>        -0.1591
      7 C6          1.8194   -1.5415    3.6648 C.ar      1 <0>         0.0768
      8 C7          2.5088   -1.5279    2.4641 C.ar      1 <0>        -0.1575
      9 C8          1.8897   -1.0673    1.3176 C.ar      1 <0>        -0.0953
     10 F1          2.4221   -1.9959    4.7853 F         1 <0>        -0.1496
     11 N1         -1.4780   -0.5602    0.0960 N.2       1 <0>        -0.5995
     12 C9         -2.2880   -0.2213   -0.9476 C.2       1 <0>         0.3985
     13 N2         -1.9649    0.5021   -2.0038 N.2       1 <0>        -0.7434
     14 C10        -2.7912    0.7940   -2.9761 C.2       1 <0>         0.5334
     15 O1         -2.4822    1.4609   -3.9443 O.2       1 <0>        -0.5522
     16 C11        -4.1825    0.2076   -2.7645 C.3       1 <0>        -0.0801
     17 S1         -3.9032   -0.6450   -1.1579 S.3       1 <0>        -0.1608
     18 C12        -5.2401    1.3066   -2.6437 C.3       1 <0>        -0.1105
     19 C13        -4.5368   -0.7757   -3.8501 C.ar      1 <0>        -0.0011
     20 C14        -5.6471   -0.5535   -4.6451 C.ar      1 <0>        -0.1205
     21 C15        -5.9770   -1.4497   -5.6407 C.ar      1 <0>        -0.0577
     22 C16        -5.1878   -2.5827   -5.8449 C.ar      1 <0>        -0.1464
     23 C17        -4.0691   -2.8010   -5.0393 C.ar      1 <0>        -0.1190
     24 C18        -3.7471   -1.8939   -4.0510 C.ar      1 <0>        -0.1047
     25 C19        -5.5357   -3.5477   -6.9096 C.2       1 <0>         0.5805
     26 O2         -6.5853   -3.4355   -7.5124 O.2       1 <0>        -0.5424
     27 N3         -4.6891   -4.5519   -7.2119 N.am      1 <0>        -0.6173
     28 C20        -3.4483   -4.8726   -6.4915 C.3       1 <0>         0.0867
     29 C21        -2.8010   -6.0768   -7.2073 C.3       1 <0>        -0.1357
     30 C22        -3.4209   -6.0107   -8.6281 C.3       1 <0>        -0.1340
     31 C23        -4.8571   -5.5145   -8.3158 C.3       1 <0>         0.1063
     32 H2          0.9845    1.7658    0.1268 H         1 <0>         0.0386
     33 H3         -0.5372    1.7926   -0.7961 H         1 <0>         0.0835
     34 H4         -0.5752    1.8092    0.9833 H         1 <0>         0.0428
     35 H5         -1.1230   -0.2698    2.6096 H         1 <0>         0.1363
     36 H6         -0.0266   -1.0983    4.6524 H         1 <0>         0.1284
     37 H7          3.5288   -1.8806    2.4228 H         1 <0>         0.1281
     38 H8          2.4258   -1.0608    0.3801 H         1 <0>         0.1270
     39 H9         -5.2599    1.8942   -3.5616 H         1 <0>         0.0725
     40 H10        -6.2181    0.8535   -2.4812 H         1 <0>         0.0641
     41 H11        -4.9958    1.9551   -1.8023 H         1 <0>         0.0655
     42 H12        -6.2571    0.3234   -4.4858 H         1 <0>         0.1335
     43 H13        -6.8442   -1.2753   -6.2604 H         1 <0>         0.1333
     44 H14        -3.4544   -3.6757   -5.1923 H         1 <0>         0.1556
     45 H15        -2.8792   -2.0593   -3.4298 H         1 <0>         0.1275
     46 H16        -2.7723   -4.0180   -6.5188 H         1 <0>         0.0833
     47 H17        -3.6766   -5.1344   -5.4583 H         1 <0>         0.0817
     48 H18        -1.7181   -5.9617   -7.2533 H         1 <0>         0.0853
     49 H19        -3.0700   -7.0099   -6.7123 H         1 <0>         0.0784
     50 H20        -2.8854   -5.2980   -9.2553 H         1 <0>         0.0773
     51 H21        -3.4424   -6.9972   -9.0913 H         1 <0>         0.0844
     52 H22        -5.4882   -6.3457   -8.0015 H         1 <0>         0.0682
     53 H23        -5.2854   -5.0205   -9.1879 H         1 <0>         0.0781
@<TRIPOS>BOND
     1    1    2 1
     2    1   32 1
     3    1   33 1
     4    1   34 1
     5    2    3 1
     6    2    4 1
     7    2   11 1
     8    4    9 ar
     9    4    5 ar
    10    5    6 ar
    11    5   35 1
    12    6    7 ar
    13    6   36 1
    14    7    8 ar
    15    7   10 1
    16    8    9 ar
    17    8   37 1
    18    9   38 1
    19   11   12 1
    20   12   17 1
    21   12   13 2
    22   13   14 1
    23   14   15 2
    24   14   16 1
    25   16   17 1
    26   16   18 1
    27   16   19 1
    28   18   39 1
    29   18   40 1
    30   18   41 1
    31   19   24 ar
    32   19   20 ar
    33   20   21 ar
    34   20   42 1
    35   21   22 ar
    36   21   43 1
    37   22   23 ar
    38   22   25 1
    39   23   24 ar
    40   23   44 1
    41   24   45 1
    42   25   26 2
    43   25   27 am
    44   27   31 1
    45   27   28 1
    46   28   29 1
    47   28   46 1
    48   28   47 1
    49   29   30 1
    50   29   48 1
    51   29   49 1
    52   30   31 1
    53   30   50 1
    54   30   51 1
    55   31   52 1
    56   31   53 1
@<TRIPOS>MOLECULE
CHEMBL237799
   47    50     0     0     0
SMALL
USER_CHARGES

@<TRIPOS>ATOM
      1 C1         -0.0187    1.5258    0.0104 C.3       1 <0>        -0.1554
      2 C2          0.0021   -0.0041    0.0020 C.3       1 <0>        -0.0795
      3 C3          0.7421   -0.5109    1.2415 C.3       1 <0>        -0.1470
      4 C4         -1.4333   -0.5336    0.0129 C.3       1 <0>         0.0192
      5 C5         -2.2278    0.0548   -1.1363 C.2       1 <0>         0.5066
      6 O1         -2.0059   -0.0706   -2.3244 O.2       1 <0>        -0.4613
      7 N1         -3.2214    0.7389   -0.5684 N.2       1 <0>        -0.6470
      8 C6         -3.1680    0.6674    0.7428 C.2       1 <0>         0.6062
      9 O2         -2.1345   -0.0707    1.1787 O.3       1 <0>        -0.3133
     10 N2         -4.0619    1.2748    1.5681 N.pl3     1 <0>        -0.6499
     11 C7         -5.1615    2.0620    1.0047 C.3       1 <0>         0.1687
     12 C8         -4.6772    3.4856    0.7223 C.3       1 <0>        -0.0967
     13 C9         -4.2036    4.1311    2.0261 C.3       1 <0>        -0.1096
     14 C10        -5.3628    4.1752    3.0238 C.3       1 <0>        -0.0878
     15 C11        -6.5112    4.9973    2.4354 C.3       1 <0>        -0.1086
     16 C12        -6.9847    4.3517    1.1316 C.3       1 <0>        -0.0899
     17 C13        -5.8256    4.3077    0.1339 C.3       1 <0>        -0.1058
     18 C14        -7.4690    2.9281    1.4139 C.3       1 <0>        -0.1044
     19 C15        -6.3206    2.1060    2.0023 C.3       1 <0>        -0.0945
     20 C16        -5.8471    2.7516    3.3061 C.3       1 <0>        -0.1120
     21 C17        -1.4420   -2.0624   -0.0491 C.3       1 <0>        -0.1398
     22 H1          1.0039    1.9031    0.0027 H         1 <0>         0.0697
     23 H2         -0.5459    1.8868   -0.8726 H         1 <0>         0.0576
     24 H3         -0.5289    1.8773    0.9072 H         1 <0>         0.0557
     25 H4          0.5123   -0.3556   -0.8948 H         1 <0>         0.1001
     26 H5          0.2319   -0.1594    2.1383 H         1 <0>         0.0610
     27 H6          0.7568   -1.6008    1.2356 H         1 <0>         0.0620
     28 H7          1.7647   -0.1336    1.2338 H         1 <0>         0.0636
     29 H8         -3.9715    1.1868    2.5299 H         1 <0>         0.4181
     30 H9         -5.4989    1.6020    0.0758 H         1 <0>         0.1050
     31 H10        -3.8514    3.4542    0.0116 H         1 <0>         0.0816
     32 H11        -3.3855    3.5455    2.4453 H         1 <0>         0.0586
     33 H12        -3.8586    5.1453    1.8250 H         1 <0>         0.0668
     34 H13        -5.0254    4.6351    3.9527 H         1 <0>         0.0725
     35 H14        -7.3369    5.0287    3.1461 H         1 <0>         0.0636
     36 H15        -6.1661    6.0115    2.2342 H         1 <0>         0.0640
     37 H16        -7.8029    4.9374    0.7124 H         1 <0>         0.0753
     38 H17        -5.4806    5.3218   -0.0672 H         1 <0>         0.0690
     39 H18        -6.1630    3.8477   -0.7949 H         1 <0>         0.0687
     40 H19        -8.2948    2.9595    2.1247 H         1 <0>         0.0720
     41 H20        -7.8064    2.4682    0.4851 H         1 <0>         0.0690
     42 H21        -6.6657    1.0918    2.2035 H         1 <0>         0.0807
     43 H22        -5.0289    2.1659    3.7253 H         1 <0>         0.0578
     44 H23        -6.6729    2.7830    4.0169 H         1 <0>         0.0723
     45 H24        -0.9104   -2.4640    0.8136 H         1 <0>         0.0808
     46 H25        -2.4715   -2.4205   -0.0404 H         1 <0>         0.0663
     47 H26        -0.9505   -2.3917   -0.9645 H         1 <0>         0.0904
@<TRIPOS>BOND
     1    1    2 1
     2    1   22 1
     3    1   23 1
     4    1   24 1
     5    2    3 1
     6    2    4 1
     7    2   25 1
     8    3   26 1
     9    3   27 1
    10    3   28 1
    11    4    9 1
    12    4    5 1
    13    4   21 1
    14    5    6 2
    15    5    7 1
    16    7    8 2
    17    8    9 1
    18    8   10 1
    19   10   11 1
    20   10   29 1
    21   11   19 1
    22   11   12 1
    23   11   30 1
    24   12   17 1
    25   12   13 1
    26   12   31 1
    27   13   14 1
    28   13   32 1
    29   13   33 1
    30   14   20 1
    31   14   15 1
    32   14   34 1
    33   15   16 1
    34   15   35 1
    35   15   36 1
    36   16   17 1
    37   16   18 1
    38   16   37 1
    39   17   38 1
    40   17   39 1
    41   18   19 1
    42   18   40 1
    43   18   41 1
    44   19   20 1
    45   19   42 1
    46   20   43 1
    47   20   44 1
    48   21   45 1
    49   21   46 1
    50   21   47 1
@<TRIPOS>MOLECULE
CHEMBL237799__1
   47    50     0     0     0
SMALL
USER_CHARGES

@<TRIPOS>ATOM
      1 C1         -0.0187    1.5258    0.0104 C.3       1 <0>        -0.1569
      2 C2          0.0021   -0.0041    0.0020 C.3       1 <0>        -0.0768
      3 C3          0.7421   -0.5109    1.2415 C.3       1 <0>        -0.1554
      4 C4         -1.4333   -0.5336    0.0129 C.3       1 <0>         0.0172
      5 C5         -2.2403    0.1346    1.1084 C.2       1 <0>         0.5086
      6 O1         -2.0317    0.0941    2.3049 O.2       1 <0>        -0.4589
      7 N1         -3.2273    0.7762    0.4824 N.2       1 <0>        -0.6470
      8 C6         -3.1593    0.6118   -0.8198 C.2       1 <0>         0.6062
      9 O2         -2.1213   -0.1550   -1.1906 O.3       1 <0>        -0.3167
     10 N2         -4.0438    1.1586   -1.6960 N.pl3     1 <0>        -0.6499
     11 C7         -5.1486    1.9843   -1.2023 C.3       1 <0>         0.1688
     12 C8         -6.3211    1.0842   -0.8073 C.3       1 <0>        -0.0970
     13 C9         -6.7858    0.2872   -2.0279 C.3       1 <0>        -0.1100
     14 C10        -7.2321    1.2527   -3.1277 C.3       1 <0>        -0.0878
     15 C11        -8.3859    2.1150   -2.6121 C.3       1 <0>        -0.1086
     16 C12        -7.9211    2.9120   -1.3915 C.3       1 <0>        -0.0899
     17 C13        -7.4749    1.9465   -0.2917 C.3       1 <0>        -0.1057
     18 C14        -6.7487    3.8121   -1.7865 C.3       1 <0>        -0.1043
     19 C15        -5.5948    2.9498   -2.3021 C.3       1 <0>        -0.0945
     20 C16        -6.0596    2.1528   -3.5227 C.3       1 <0>        -0.1121
     21 C17        -1.4433   -2.0541    0.1832 C.3       1 <0>        -0.1405
     22 H1          1.0039    1.9031    0.0027 H         1 <0>         0.0702
     23 H2         -0.5459    1.8868   -0.8726 H         1 <0>         0.0534
     24 H3         -0.5289    1.8773    0.9072 H         1 <0>         0.0599
     25 H4          0.5123   -0.3556   -0.8948 H         1 <0>         0.0889
     26 H5          0.2319   -0.1594    2.1383 H         1 <0>         0.0749
     27 H6          0.7568   -1.6008    1.2356 H         1 <0>         0.0639
     28 H7          1.7647   -0.1336    1.2338 H         1 <0>         0.0666
     29 H8         -3.9431    1.0020   -2.6480 H         1 <0>         0.4181
     30 H9         -4.8175    2.5521   -0.3328 H         1 <0>         0.1051
     31 H10        -6.0032    0.3963   -0.0238 H         1 <0>         0.0815
     32 H11        -5.9638   -0.3271   -2.3952 H         1 <0>         0.0587
     33 H12        -7.6211   -0.3541   -1.7465 H         1 <0>         0.0670
     34 H13        -7.5632    0.6849   -3.9972 H         1 <0>         0.0726
     35 H14        -8.7038    2.8028   -3.3956 H         1 <0>         0.0637
     36 H15        -9.2212    1.4737   -2.3307 H         1 <0>         0.0641
     37 H16        -8.7432    3.5263   -1.0242 H         1 <0>         0.0754
     38 H17        -8.3102    1.3052   -0.0103 H         1 <0>         0.0690
     39 H18        -7.1438    2.5143    0.5778 H         1 <0>         0.0687
     40 H19        -7.0666    4.4999   -2.5700 H         1 <0>         0.0720
     41 H20        -6.4176    4.3799   -0.9170 H         1 <0>         0.0690
     42 H21        -4.7596    3.5911   -2.5835 H         1 <0>         0.0807
     43 H22        -5.2376    1.5385   -3.8900 H         1 <0>         0.0579
     44 H23        -6.3775    2.8406   -4.3062 H         1 <0>         0.0723
     45 H24        -0.9621   -2.3174    1.1251 H         1 <0>         0.0941
     46 H25        -2.4728   -2.4123    0.1886 H         1 <0>         0.0657
     47 H26        -0.9023   -2.5158   -0.6427 H         1 <0>         0.0780
@<TRIPOS>BOND
     1    1    2 1
     2    1   22 1
     3    1   23 1
     4    1   24 1
     5    2    3 1
     6    2    4 1
     7    2   25 1
     8    3   26 1
     9    3   27 1
    10    3   28 1
    11    4    9 1
    12    4    5 1
    13    4   21 1
    14    5    6 2
    15    5    7 1
    16    7    8 2
    17    8    9 1
    18    8   10 1
    19   10   11 1
    20   10   29 1
    21   11   19 1
    22   11   12 1
    23   11   30 1
    24   12   17 1
    25   12   13 1
    26   12   31 1
    27   13   14 1
    28   13   32 1
    29   13   33 1
    30   14   20 1
    31   14   15 1
    32   14   34 1
    33   15   16 1
    34   15   35 1
    35   15   36 1
    36   16   17 1
    37   16   18 1
    38   16   37 1
    39   17   38 1
    40   17   39 1
    41   18   19 1
    42   18   40 1
    43   18   41 1
    44   19   20 1
    45   19   42 1
    46   20   43 1
    47   20   44 1
    48   21   45 1
    49   21   46 1
    50   21   47 1
@<TRIPOS>MOLECULE
CHEMBL396187
   43    45     0     0     0
SMALL
USER_CHARGES

@<TRIPOS>ATOM
      1 C1         -0.0187    1.5257    0.0104 C.3       1 <0>        -0.1198
      2 C2          1.4170    2.0550   -0.0004 C.3       1 <0>        -0.1459
      3 C3          2.0034    1.9105   -1.4063 C.3       1 <0>        -0.1163
      4 C4          2.3703    0.4465   -1.6575 C.3       1 <0>        -0.1378
      5 C5          3.0768   -0.1217   -0.4253 C.3       1 <0>         0.1464
      6 C6          2.1914   -1.1869    0.2248 C.3       1 <0>        -0.1299
      7 C7          1.0555   -0.5062    0.9912 C.3       1 <0>        -0.1246
      8 C8          0.0021   -0.0041    0.0020 C.3       1 <0>        -0.1308
      9 N1          4.3503   -0.7241   -0.8271 N.pl3     1 <0>        -0.6520
     10 C9          5.3648   -0.8326    0.0719 C.2       1 <0>         0.6024
     11 N2          5.2804   -0.4267    1.3205 N.2       1 <0>        -0.6466
     12 C10         6.4177   -0.6506    1.9850 C.2       1 <0>         0.5072
     13 O1          6.6577   -0.3915    3.1478 O.2       1 <0>        -0.4564
     14 C11         7.3390   -1.2944    0.9800 C.3       1 <0>         0.0087
     15 O2          6.5635   -1.3721   -0.2162 O.3       1 <0>        -0.3120
     16 C12         8.6041   -0.4505    0.7747 C.3       1 <0>        -0.1074
     17 C13         9.6653   -1.1421    1.6694 C.3       1 <0>        -0.1218
     18 C14         9.3271   -2.6455    1.5058 C.3       1 <0>        -0.1198
     19 C15         7.7839   -2.6829    1.4456 C.3       1 <0>        -0.1104
     20 H1         -0.5288    1.8773    0.9073 H         1 <0>         0.0618
     21 H2         -0.5458    1.8868   -0.8727 H         1 <0>         0.0626
     22 H3          1.4189    3.1062    0.2877 H         1 <0>         0.0635
     23 H4          2.0201    1.4838    0.7053 H         1 <0>         0.0859
     24 H5          1.2664    2.2318   -2.1422 H         1 <0>         0.0702
     25 H6          2.8968    2.5289   -1.4927 H         1 <0>         0.0630
     26 H7          1.4640   -0.1266   -1.8531 H         1 <0>         0.0900
     27 H8          3.0343    0.3812   -2.5193 H         1 <0>         0.0712
     28 H9          3.2636    0.6805    0.2886 H         1 <0>         0.1159
     29 H10         1.7731   -1.8325   -0.5474 H         1 <0>         0.0683
     30 H11         2.7881   -1.7843    0.9141 H         1 <0>         0.0704
     31 H12         0.5994   -1.2214    1.6758 H         1 <0>         0.0658
     32 H13         1.4529    0.3361    1.5575 H         1 <0>         0.0794
     33 H14        -0.9782   -0.3822    0.2922 H         1 <0>         0.0610
     34 H15         0.2461   -0.3585   -0.9995 H         1 <0>         0.0710
     35 H16         4.4699   -1.0456   -1.7344 H         1 <0>         0.4185
     36 H17         8.9127   -0.4723   -0.2705 H         1 <0>         0.0886
     37 H18         8.4369    0.5752    1.1035 H         1 <0>         0.0786
     38 H19        10.6717   -0.9313    1.3078 H         1 <0>         0.0804
     39 H20         9.5548   -0.8325    2.7087 H         1 <0>         0.0801
     40 H21         9.7544   -3.0341    0.5814 H         1 <0>         0.0737
     41 H22         9.6893   -3.2134    2.3628 H         1 <0>         0.0781
     42 H23         7.3756   -2.8951    2.4338 H         1 <0>         0.0842
     43 H24         7.4551   -3.4398    0.7336 H         1 <0>         0.0851
@<TRIPOS>BOND
     1    1    8 1
     2    1    2 1
     3    1   20 1
     4    1   21 1
     5    2    3 1
     6    2   22 1
     7    2   23 1
     8    3    4 1
     9    3   24 1
    10    3   25 1
    11    4    5 1
    12    4   26 1
    13    4   27 1
    14    5    6 1
    15    5    9 1
    16    5   28 1
    17    6    7 1
    18    6   29 1
    19    6   30 1
    20    7    8 1
    21    7   31 1
    22    7   32 1
    23    8   33 1
    24    8   34 1
    25    9   10 1
    26    9   35 1
    27   10   15 1
    28   10   11 2
    29   11   12 1
    30   12   13 2
    31   12   14 1
    32   14   19 1
    33   14   15 1
    34   14   16 1
    35   16   17 1
    36   16   36 1
    37   16   37 1
    38   17   18 1
    39   17   38 1
    40   17   39 1
    41   18   19 1
    42   18   40 1
    43   18   41 1
    44   19   42 1
    45   19   43 1
@<TRIPOS>MOLECULE
CHEMBL399455
   51    54     0     0     0
SMALL
USER_CHARGES

@<TRIPOS>ATOM
      1 C1          0.2076   -7.1750    4.9334 C.3       1 <0>        -0.1104
      2 C2          0.1682   -6.4098    3.6358 C.ar      1 <0>        -0.0927
      3 C3          1.0314   -6.7483    2.6098 C.ar      1 <0>        -0.0890
      4 C4          1.0007   -6.0525    1.4189 C.ar      1 <0>        -0.1247
      5 C5          0.0960   -5.0031    1.2474 C.ar      1 <0>        -0.0970
      6 C6         -0.7740   -4.6628    2.2831 C.ar      1 <0>        -0.1514
      7 C7         -0.7384   -5.3714    3.4726 C.ar      1 <0>         0.1235
      8 O1         -1.5882   -5.0467    4.4824 O.3       1 <0>        -0.3107
      9 C8         -2.4946   -3.9676    4.2458 C.3       1 <0>         0.0234
     10 C9          0.0606   -4.2549   -0.0274 C.2       1 <0>         0.5651
     11 O2         -0.0630   -3.0457   -0.0191 O.2       1 <0>        -0.5294
     12 N1          0.1654   -4.9136   -1.1985 N.am      1 <0>        -0.6080
     13 C10         0.2665   -4.1765   -2.4655 C.3       1 <0>         0.1177
     14 C11        -0.8198   -4.6837   -3.4191 C.3       1 <0>        -0.1491
     15 C12        -0.6974   -6.2023   -3.5639 C.3       1 <0>         0.1450
     16 C13        -0.9042   -6.8648   -2.1999 C.3       1 <0>        -0.1504
     17 C14         0.1868   -6.3823   -1.2320 C.3       1 <0>         0.1032
     18 N2         -1.7140   -6.6867   -4.5010 N.am      1 <0>        -0.5474
     19 C15        -1.4206   -7.3663   -5.6838 C.ar      1 <0>         0.1446
     20 C16        -0.1988   -7.7343   -6.2441 C.ar      1 <0>        -0.1387
     21 C17        -0.1638   -8.4129   -7.4445 C.ar      1 <0>        -0.0833
     22 C18        -1.3381   -8.7333   -8.1011 C.ar      1 <0>        -0.1399
     23 C19        -2.5553   -8.3713   -7.5509 C.ar      1 <0>        -0.0651
     24 C20        -2.5929   -7.6939   -6.3529 C.ar      1 <0>        -0.1434
     25 C21        -3.7279   -7.1674   -5.5050 C.3       1 <0>        -0.1160
     26 C22        -3.0361   -6.5327   -4.3173 C.2       1 <0>         0.5262
     27 O3         -3.5741   -5.9864   -3.3775 O.2       1 <0>        -0.4948
     28 H1         -0.4756   -8.0224    4.8764 H         1 <0>         0.0728
     29 H2          1.2205   -7.5363    5.1115 H         1 <0>         0.0689
     30 H3         -0.0935   -6.5199    5.7509 H         1 <0>         0.0733
     31 H4          1.7320   -7.5596    2.7413 H         1 <0>         0.1377
     32 H5          1.6765   -6.3192    0.6198 H         1 <0>         0.1326
     33 H6         -1.4761   -3.8520    2.1564 H         1 <0>         0.1372
     34 H7         -3.1141   -3.8131    5.1292 H         1 <0>         0.1041
     35 H8         -1.9306   -3.0591    4.0341 H         1 <0>         0.0586
     36 H9         -3.1304   -4.2073    3.3935 H         1 <0>         0.0570
     37 H10         0.1230   -3.1118   -2.2813 H         1 <0>         0.1012
     38 H11         1.2485   -4.3437   -2.9081 H         1 <0>         0.0738
     39 H12        -1.8019   -4.4346   -3.0172 H         1 <0>         0.0864
     40 H13        -0.6956   -4.2140   -4.3948 H         1 <0>         0.0815
     41 H14         0.2937   -6.4523   -3.9425 H         1 <0>         0.0967
     42 H15        -1.8855   -6.5952   -1.8095 H         1 <0>         0.0868
     43 H16        -0.8401   -7.9476   -2.3079 H         1 <0>         0.0820
     44 H17         1.1624   -6.7257   -1.5762 H         1 <0>         0.0763
     45 H18        -0.0093   -6.7735   -0.2337 H         1 <0>         0.1039
     46 H19         0.7226   -7.4874   -5.7376 H         1 <0>         0.1242
     47 H20         0.7859   -8.6952   -7.8743 H         1 <0>         0.1312
     48 H21        -1.3053   -9.2644   -9.0410 H         1 <0>         0.1305
     49 H22        -3.4744   -8.6200   -8.0605 H         1 <0>         0.1298
     50 H23        -4.3042   -6.4248   -6.0567 H         1 <0>         0.1234
     51 H24        -4.3705   -7.9845   -5.1770 H         1 <0>         0.1228
@<TRIPOS>BOND
     1    1    2 1
     2    1   28 1
     3    1   29 1
     4    1   30 1
     5    2    7 ar
     6    2    3 ar
     7    3    4 ar
     8    3   31 1
     9    4    5 ar
    10    4   32 1
    11    5    6 ar
    12    5   10 1
    13    6    7 ar
    14    6   33 1
    15    7    8 1
    16    8    9 1
    17    9   34 1
    18    9   35 1
    19    9   36 1
    20   10   11 2
    21   10   12 am
    22   12   17 1
    23   12   13 1
    24   13   14 1
    25   13   37 1
    26   13   38 1
    27   14   15 1
    28   14   39 1
    29   14   40 1
    30   15   16 1
    31   15   18 1
    32   15   41 1
    33   16   17 1
    34   16   42 1
    35   16   43 1
    36   17   44 1
    37   17   45 1
    38   18   26 am
    39   18   19 1
    40   19   24 ar
    41   19   20 ar
    42   20   21 ar
    43   20   46 1
    44   21   22 ar
    45   21   47 1
    46   22   23 ar
    47   22   48 1
    48   23   24 ar
    49   23   49 1
    50   24   25 1
    51   25   26 1
    52   25   50 1
    53   25   51 1
    54   26   27 2
@<TRIPOS>MOLECULE
CHEMBL260090
   52    55     0     0     0
SMALL
USER_CHARGES

@<TRIPOS>ATOM
      1 C1          0.0714    1.4014   -0.3040 C.ar      1 <0>        -0.0755
      2 C2          1.2031    2.0558    0.1574 C.ar      1 <0>        -0.1223
      3 C3          2.3081    1.3132    0.5412 C.ar      1 <0>         0.1212
      4 N1          2.2960   -0.0002    0.4732 N.ar      1 <0>        -0.4476
      5 C4          1.2332   -0.6651    0.0375 C.ar      1 <0>         0.0856
      6 C5          0.0871    0.0169   -0.3649 C.ar      1 <0>        -0.1105
      7 C6          1.2661   -2.1453   -0.0216 C.2       1 <0>         0.5741
      8 O1          0.2306   -2.7787    0.0350 O.2       1 <0>        -0.5232
      9 N2          2.4444   -2.7891   -0.1380 N.am      1 <0>        -0.5870
     10 C7          3.7141   -2.0463   -0.1422 C.3       1 <0>         0.0760
     11 C8          4.5197   -2.4374   -1.3841 C.3       1 <0>        -0.1365
     12 C9          4.6747   -3.9602   -1.4406 C.3       1 <0>        -0.1166
     13 C10         3.2911   -4.6028   -1.5247 C.3       1 <0>        -0.0979
     14 C11         2.4961   -4.2501   -0.2578 C.3       1 <0>         0.1497
     15 C12         1.0870   -4.8297   -0.3724 C.3       1 <0>        -0.1094
     16 C13         1.1823   -6.3538   -0.4888 C.3       1 <0>        -0.1259
     17 C14         2.0007   -6.7303   -1.7244 C.3       1 <0>        -0.1219
     18 C15         3.4070   -6.1225   -1.6328 C.3       1 <0>        -0.1110
     19 C16         3.5408    2.0201    1.0430 C.3       1 <0>         0.1196
     20 O2          3.3200    3.4319    1.0269 O.3       1 <0>        -0.3148
     21 C17         4.3418    4.2212    1.4526 C.ar      1 <0>         0.1124
     22 C18         4.4417    4.5664    2.7931 C.ar      1 <0>        -0.0439
     23 C19         5.4819    5.3694    3.2232 C.ar      1 <0>        -0.0943
     24 C20         6.4220    5.8283    2.3192 C.ar      1 <0>        -0.0947
     25 C21         6.3250    5.4860    0.9832 C.ar      1 <0>        -0.0945
     26 C22         5.2902    4.6786    0.5484 C.ar      1 <0>        -0.0436
     27 Cl1         5.1736    4.2430   -1.1280 Cl        1 <0>        -0.0404
     28 Cl2         3.2614    3.9911    3.9288 Cl        1 <0>        -0.0397
     29 H1         -0.8041    1.9576   -0.6049 H         1 <0>         0.1469
     30 H2          1.2233    3.1340    0.2168 H         1 <0>         0.1511
     31 H3         -0.7771   -0.5255   -0.7189 H         1 <0>         0.1490
     32 H4          3.5100   -0.9758   -0.1625 H         1 <0>         0.1379
     33 H5          4.2834   -2.2928    0.7540 H         1 <0>         0.0669
     34 H6          3.9992   -2.0924   -2.2775 H         1 <0>         0.0623
     35 H7          5.5053   -1.9741   -1.3378 H         1 <0>         0.0750
     36 H8          5.2577   -4.2346   -2.3198 H         1 <0>         0.0659
     37 H9          5.1838   -4.3081   -0.5418 H         1 <0>         0.0647
     38 H10         2.7654   -4.2169   -2.3981 H         1 <0>         0.0727
     39 H11         2.9942   -4.6696    0.6162 H         1 <0>         0.0737
     40 H12         0.5113   -4.5670    0.5151 H         1 <0>         0.0909
     41 H13         0.5977   -4.4262   -1.2589 H         1 <0>         0.0695
     42 H14         1.6655   -6.7556    0.4019 H         1 <0>         0.0595
     43 H15         0.1802   -6.7737   -0.5764 H         1 <0>         0.0654
     44 H16         2.0761   -7.8155   -1.7920 H         1 <0>         0.0624
     45 H17         1.5065   -6.3465   -2.6168 H         1 <0>         0.0600
     46 H18         3.9841   -6.3820   -2.5203 H         1 <0>         0.0667
     47 H19         3.9042   -6.5144   -0.7454 H         1 <0>         0.0632
     48 H20         3.7552    1.6975    2.0618 H         1 <0>         0.0841
     49 H21         4.3862    1.7772    0.3994 H         1 <0>         0.0832
     50 H22         5.5600    5.6386    4.2662 H         1 <0>         0.1469
     51 H23         7.2335    6.4557    2.6573 H         1 <0>         0.1480
     52 H24         7.0606    5.8462    0.2793 H         1 <0>         0.1469
@<TRIPOS>BOND
     1    1    6 ar
     2    1    2 ar
     3    1   29 1
     4    2    3 ar
     5    2   30 1
     6    3    4 ar
     7    3   19 1
     8    4    5 ar
     9    5    6 ar
    10    5    7 1
    11    6   31 1
    12    7    8 2
    13    7    9 am
    14    9   14 1
    15    9   10 1
    16   10   11 1
    17   10   32 1
    18   10   33 1
    19   11   12 1
    20   11   34 1
    21   11   35 1
    22   12   13 1
    23   12   36 1
    24   12   37 1
    25   13   18 1
    26   13   14 1
    27   13   38 1
    28   14   15 1
    29   14   39 1
    30   15   16 1
    31   15   40 1
    32   15   41 1
    33   16   17 1
    34   16   42 1
    35   16   43 1
    36   17   18 1
    37   17   44 1
    38   17   45 1
    39   18   46 1
    40   18   47 1
    41   19   20 1
    42   19   48 1
    43   19   49 1
    44   20   21 1
    45   21   26 ar
    46   21   22 ar
    47   22   23 ar
    48   22   28 1
    49   23   24 ar
    50   23   50 1
    51   24   25 ar
    52   24   51 1
    53   25   26 ar
    54   25   52 1
    55   26   27 1
@<TRIPOS>MOLECULE
CHEMBL260090__1
   52    55     0     0     0
SMALL
USER_CHARGES

@<TRIPOS>ATOM
      1 C1          0.0682    1.4096   -0.1386 C.ar      1 <0>        -0.0754
      2 C2          1.2139    2.0465    0.3123 C.ar      1 <0>        -0.1214
      3 C3          2.3289    1.2901    0.6355 C.ar      1 <0>         0.1209
      4 N1          2.3131   -0.0199    0.5201 N.ar      1 <0>        -0.4459
      5 C4          1.2370   -0.6682    0.0924 C.ar      1 <0>         0.0869
      6 C5          0.0802    0.0283   -0.2504 C.ar      1 <0>        -0.1096
      7 C6          1.2661   -2.1453   -0.0216 C.2       1 <0>         0.5738
      8 O1          0.2276   -2.7761   -0.0100 O.2       1 <0>        -0.5325
      9 N2          2.4444   -2.7891   -0.1380 N.am      1 <0>        -0.5866
     10 C7          3.7112   -2.0445   -0.1419 C.3       1 <0>         0.0740
     11 C8          4.5087   -2.4265   -1.3924 C.3       1 <0>        -0.1369
     12 C9          4.6696   -3.9478   -1.4488 C.3       1 <0>        -0.1180
     13 C10         3.2900   -4.6025   -1.5236 C.3       1 <0>        -0.0941
     14 C11         2.4932   -4.2554   -0.2581 C.3       1 <0>         0.1459
     15 C12         3.2058   -4.8228    0.9720 C.3       1 <0>        -0.1274
     16 C13         3.3297   -6.3415    0.8411 C.3       1 <0>        -0.1164
     17 C14         4.1462   -6.6775   -0.4089 C.3       1 <0>        -0.1223
     18 C15         3.4339   -6.1167   -1.6535 C.3       1 <0>        -0.1124
     19 C16         3.5770    1.9780    1.1257 C.3       1 <0>         0.1197
     20 O2          3.3578    3.3894    1.1677 O.3       1 <0>        -0.3149
     21 C17         4.3928    4.1625    1.5911 C.ar      1 <0>         0.1125
     22 C18         4.5332    4.4586    2.9397 C.ar      1 <0>        -0.0439
     23 C19         5.5868    5.2451    3.3675 C.ar      1 <0>        -0.0944
     24 C20         6.5001    5.7365    2.4531 C.ar      1 <0>        -0.0947
     25 C21         6.3628    5.4432    1.1090 C.ar      1 <0>        -0.0944
     26 C22         5.3143    4.6524    0.6762 C.ar      1 <0>        -0.0436
     27 Cl1         5.1471    4.2782   -1.0107 Cl        1 <0>        -0.0403
     28 Cl2         3.3866    3.8425    4.0884 Cl        1 <0>        -0.0397
     29 H1         -0.8152    1.9766   -0.3927 H         1 <0>         0.1473
     30 H2          1.2373    3.1218    0.4103 H         1 <0>         0.1514
     31 H3         -0.7949   -0.5007   -0.5980 H         1 <0>         0.1495
     32 H4          3.5053   -0.9741   -0.1533 H         1 <0>         0.1391
     33 H5          4.2860   -2.2976    0.7489 H         1 <0>         0.0667
     34 H6          3.9778   -2.0840   -2.2807 H         1 <0>         0.0620
     35 H7          5.4921   -1.9581   -1.3534 H         1 <0>         0.0742
     36 H8          5.2492   -4.2196   -2.3311 H         1 <0>         0.0644
     37 H9          5.1873   -4.2921   -0.5535 H         1 <0>         0.0703
     38 H10         2.7554   -4.2163   -2.3915 H         1 <0>         0.0709
     39 H11         1.4824   -4.6566   -0.3314 H         1 <0>         0.1014
     40 H12         4.2002   -4.3833    1.0500 H         1 <0>         0.0697
     41 H13         2.6322   -4.5816    1.8669 H         1 <0>         0.0642
     42 H14         3.8311   -6.7428    1.7218 H         1 <0>         0.0660
     43 H15         2.3361   -6.7814    0.7556 H         1 <0>         0.0646
     44 H16         5.1361   -6.2283   -0.3286 H         1 <0>         0.0647
     45 H17         4.2430   -7.7593   -0.5005 H         1 <0>         0.0639
     46 H18         2.4456   -6.5687   -1.7382 H         1 <0>         0.0648
     47 H19         4.0157   -6.3504   -2.5450 H         1 <0>         0.0670
     48 H20         3.8214    1.6184    2.1252 H         1 <0>         0.0841
     49 H21         4.4025    1.7585    0.4486 H         1 <0>         0.0833
     50 H22         5.6964    5.4761    4.4168 H         1 <0>         0.1469
     51 H23         7.3221    6.3509    2.7895 H         1 <0>         0.1479
     52 H24         7.0774    5.8287    0.3970 H         1 <0>         0.1469
@<TRIPOS>BOND
     1    1    6 ar
     2    1    2 ar
     3    1   29 1
     4    2    3 ar
     5    2   30 1
     6    3    4 ar
     7    3   19 1
     8    4    5 ar
     9    5    6 ar
    10    5    7 1
    11    6   31 1
    12    7    8 2
    13    7    9 am
    14    9   14 1
    15    9   10 1
    16   10   11 1
    17   10   32 1
    18   10   33 1
    19   11   12 1
    20   11   34 1
    21   11   35 1
    22   12   13 1
    23   12   36 1
    24   12   37 1
    25   13   18 1
    26   13   14 1
    27   13   38 1
    28   14   15 1
    29   14   39 1
    30   15   16 1
    31   15   40 1
    32   15   41 1
    33   16   17 1
    34   16   42 1
    35   16   43 1
    36   17   18 1
    37   17   44 1
    38   17   45 1
    39   18   46 1
    40   18   47 1
    41   19   20 1
    42   19   48 1
    43   19   49 1
    44   20   21 1
    45   21   26 ar
    46   21   22 ar
    47   22   23 ar
    48   22   28 1
    49   23   24 ar
    50   23   50 1
    51   24   25 ar
    52   24   51 1
    53   25   26 ar
    54   25   52 1
    55   26   27 1
@<TRIPOS>MOLECULE
CHEMBL260090__2
   52    55     0     0     0
SMALL
USER_CHARGES

@<TRIPOS>ATOM
      1 C1         -0.0062    1.3856   -0.0140 C.ar      1 <0>        -0.0752
      2 C2          1.1323    2.0344   -0.4663 C.ar      1 <0>        -0.1217
      3 C3          2.2670    1.2933   -0.7547 C.ar      1 <0>         0.1213
      4 N1          2.2765   -0.0133   -0.6050 N.ar      1 <0>        -0.4437
      5 C4          1.2082   -0.6726   -0.1747 C.ar      1 <0>         0.0834
      6 C5          0.0327    0.0082    0.1343 C.ar      1 <0>        -0.1094
      7 C6          1.2661   -2.1453   -0.0216 C.2       1 <0>         0.5704
      8 O1          0.2512   -2.7725    0.2090 O.2       1 <0>        -0.5118
      9 N2          2.4444   -2.7891   -0.1380 N.am      1 <0>        -0.5814
     10 C7          3.7115   -2.0434   -0.1418 C.3       1 <0>         0.0606
     11 C8          4.5161   -2.4406   -1.3830 C.3       1 <0>        -0.1300
     12 C9          4.6767   -3.9622   -1.4233 C.3       1 <0>        -0.1194
     13 C10         3.2920   -4.6146   -1.5163 C.3       1 <0>        -0.0967
     14 C11         2.4923   -4.2508   -0.2577 C.3       1 <0>         0.1525
     15 C12         1.0786   -4.8181   -0.3425 C.3       1 <0>        -0.1218
     16 C13         0.3735   -4.2761   -1.5870 C.3       1 <0>        -0.1175
     17 C14         1.1652   -4.6832   -2.8320 C.3       1 <0>        -0.1260
     18 C15         2.5764   -4.0769   -2.7579 C.3       1 <0>        -0.1129
     19 C16         3.5070    1.9940   -1.2472 C.3       1 <0>         0.1191
     20 O2          3.2591    3.3989   -1.3300 O.3       1 <0>        -0.3148
     21 C17         4.2835    4.1821   -1.7608 C.ar      1 <0>         0.1124
     22 C18         5.1857    4.7109   -0.8483 C.ar      1 <0>        -0.0437
     23 C19         6.2265    5.5071   -1.2893 C.ar      1 <0>        -0.0944
     24 C20         6.3690    5.7766   -2.6379 C.ar      1 <0>        -0.0946
     25 C21         5.4718    5.2511   -3.5492 C.ar      1 <0>        -0.0944
     26 C22         4.4324    4.4496   -3.1145 C.ar      1 <0>        -0.0436
     27 Cl1         3.3109    3.7839   -4.2602 Cl        1 <0>        -0.0399
     28 Cl2         5.0072    4.3735    0.8452 Cl        1 <0>        -0.0401
     29 H1         -0.9017    1.9414    0.2218 H         1 <0>         0.1467
     30 H2          1.1348    3.1069   -0.5929 H         1 <0>         0.1509
     31 H3         -0.8358   -0.5296    0.4847 H         1 <0>         0.1511
     32 H4          3.5054   -0.9734   -0.1673 H         1 <0>         0.1535
     33 H5          4.2808   -2.2862    0.7554 H         1 <0>         0.0553
     34 H6          3.9912   -2.1070   -2.2782 H         1 <0>         0.0705
     35 H7          5.4997   -1.9725   -1.3434 H         1 <0>         0.0698
     36 H8          5.2704   -4.2426   -2.2934 H         1 <0>         0.0644
     37 H9          5.1778   -4.2994   -0.5159 H         1 <0>         0.0624
     38 H10         3.4005   -5.6964   -1.5947 H         1 <0>         0.0815
     39 H11         2.9864   -4.6682    0.6197 H         1 <0>         0.0704
     40 H12         1.1277   -5.9055   -0.3989 H         1 <0>         0.0562
     41 H13         0.5183   -4.5280    0.5463 H         1 <0>         0.0996
     42 H14        -0.6333   -4.6898   -1.6443 H         1 <0>         0.0565
     43 H15         0.3185   -3.1889   -1.5299 H         1 <0>         0.0767
     44 H16         1.2329   -5.7700   -2.8810 H         1 <0>         0.0583
     45 H17         0.6606   -4.3089   -3.7227 H         1 <0>         0.0557
     46 H18         2.5071   -2.9910   -2.6946 H         1 <0>         0.0664
     47 H19         3.1405   -4.3520   -3.6491 H         1 <0>         0.0587
     48 H20         4.3278    1.8102   -0.5540 H         1 <0>         0.0833
     49 H21         3.7721    1.6131   -2.2334 H         1 <0>         0.0841
     50 H22         6.9286    5.9191   -0.5797 H         1 <0>         0.1469
     51 H23         7.1826    6.3990   -2.9801 H         1 <0>         0.1479
     52 H24         5.5854    5.4636   -4.6020 H         1 <0>         0.1468
@<TRIPOS>BOND
     1    1    6 ar
     2    1    2 ar
     3    1   29 1
     4    2    3 ar
     5    2   30 1
     6    3    4 ar
     7    3   19 1
     8    4    5 ar
     9    5    6 ar
    10    5    7 1
    11    6   31 1
    12    7    8 2
    13    7    9 am
    14    9   14 1
    15    9   10 1
    16   10   11 1
    17   10   32 1
    18   10   33 1
    19   11   12 1
    20   11   34 1
    21   11   35 1
    22   12   13 1
    23   12   36 1
    24   12   37 1
    25   13   18 1
    26   13   14 1
    27   13   38 1
    28   14   15 1
    29   14   39 1
    30   15   16 1
    31   15   40 1
    32   15   41 1
    33   16   17 1
    34   16   42 1
    35   16   43 1
    36   17   18 1
    37   17   44 1
    38   17   45 1
    39   18   46 1
    40   18   47 1
    41   19   20 1
    42   19   48 1
    43   19   49 1
    44   20   21 1
    45   21   26 ar
    46   21   22 ar
    47   22   23 ar
    48   22   28 1
    49   23   24 ar
    50   23   50 1
    51   24   25 ar
    52   24   51 1
    53   25   26 ar
    54   25   52 1
    55   26   27 1
@<TRIPOS>MOLECULE
CHEMBL260090__3
   52    55     0     0     0
SMALL
USER_CHARGES

@<TRIPOS>ATOM
      1 C1          0.0132    1.3867    0.1817 C.ar      1 <0>        -0.0758
      2 C2          1.1729    2.0562   -0.1769 C.ar      1 <0>        -0.1214
      3 C3          2.3146    1.3279   -0.4699 C.ar      1 <0>         0.1208
      4 N1          2.3111    0.0140   -0.4120 N.ar      1 <0>        -0.4464
      5 C4          1.2223   -0.6651   -0.0732 C.ar      1 <0>         0.0837
      6 C5          0.0387    0.0020    0.2343 C.ar      1 <0>        -0.1083
      7 C6          1.2661   -2.1453   -0.0216 C.2       1 <0>         0.5725
      8 O1          0.2396   -2.7787    0.1258 O.2       1 <0>        -0.5235
      9 N2          2.4444   -2.7891   -0.1380 N.am      1 <0>        -0.5868
     10 C7          3.7141   -2.0463   -0.1422 C.3       1 <0>         0.0727
     11 C8          4.6410   -2.6317    0.9267 C.3       1 <0>        -0.1365
     12 C9          4.7877   -4.1412    0.7124 C.3       1 <0>        -0.1168
     13 C10         3.4148   -4.8009    0.8316 C.3       1 <0>        -0.0986
     14 C11         2.4961   -4.2501   -0.2578 C.3       1 <0>         0.1495
     15 C12         1.1028   -4.8528   -0.0848 C.3       1 <0>        -0.1056
     16 C13         1.1968   -6.3751   -0.2228 C.3       1 <0>        -0.1271
     17 C14         2.1410   -6.9358    0.8414 C.3       1 <0>        -0.1215
     18 C15         3.5280   -6.3164    0.6726 C.3       1 <0>        -0.1104
     19 C16         3.5776    2.0512   -0.8606 C.3       1 <0>         0.1192
     20 O2          3.3408    3.4604   -0.8547 O.3       1 <0>        -0.3149
     21 C17         4.3863    4.2634   -1.1871 C.ar      1 <0>         0.1124
     22 C18         5.2526    4.7198   -0.2035 C.ar      1 <0>        -0.0437
     23 C19         6.3150    5.5363   -0.5445 C.ar      1 <0>        -0.0944
     24 C20         6.5148    5.8982   -1.8638 C.ar      1 <0>        -0.0947
     25 C21         5.6534    5.4451   -2.8458 C.ar      1 <0>        -0.0944
     26 C22         4.5926    4.6237   -2.5115 C.ar      1 <0>        -0.0437
     27 Cl1         3.5161    4.0489   -3.7461 Cl        1 <0>        -0.0398
     28 Cl2         5.0022    4.2663    1.4534 Cl        1 <0>        -0.0402
     29 H1         -0.8884    1.9319    0.4189 H         1 <0>         0.1470
     30 H2          1.1862    3.1349   -0.2277 H         1 <0>         0.1511
     31 H3         -0.8465   -0.5519    0.5102 H         1 <0>         0.1511
     32 H4          4.1850   -2.1352   -1.1212 H         1 <0>         0.0639
     33 H5          3.5225   -0.9959    0.0772 H         1 <0>         0.1455
     34 H6          5.6204   -2.1585    0.8560 H         1 <0>         0.0746
     35 H7          4.2192   -2.4448    1.9143 H         1 <0>         0.0623
     36 H8          5.1976   -4.3301   -0.2797 H         1 <0>         0.0641
     37 H9          5.4565   -4.5531    1.4682 H         1 <0>         0.0654
     38 H10         2.9862   -4.5705    1.8070 H         1 <0>         0.0728
     39 H11         2.8929   -4.5212   -1.2362 H         1 <0>         0.0723
     40 H12         0.7158   -4.5993    0.9022 H         1 <0>         0.0772
     41 H13         0.4366   -4.4575   -0.8517 H         1 <0>         0.0798
     42 H14         0.2065   -6.8123   -0.0950 H         1 <0>         0.0648
     43 H15         1.5772   -6.6262   -1.2130 H         1 <0>         0.0586
     44 H16         1.7496   -6.7028    1.8317 H         1 <0>         0.0621
     45 H17         2.2138   -8.0173    0.7273 H         1 <0>         0.0618
     46 H18         3.9268   -6.5506   -0.3145 H         1 <0>         0.0649
     47 H19         4.1919   -6.7150    1.4396 H         1 <0>         0.0651
     48 H20         4.3680    1.8126   -0.1489 H         1 <0>         0.0833
     49 H21         3.8815    1.7380   -1.8595 H         1 <0>         0.0842
     50 H22         6.9892    5.8920    0.2205 H         1 <0>         0.1469
     51 H23         7.3451    6.5364   -2.1278 H         1 <0>         0.1480
     52 H24         5.8117    5.7297   -3.8755 H         1 <0>         0.1469
@<TRIPOS>BOND
     1    1    6 ar
     2    1    2 ar
     3    1   29 1
     4    2    3 ar
     5    2   30 1
     6    3    4 ar
     7    3   19 1
     8    4    5 ar
     9    5    6 ar
    10    5    7 1
    11    6   31 1
    12    7    8 2
    13    7    9 am
    14    9   14 1
    15    9   10 1
    16   10   11 1
    17   10   32 1
    18   10   33 1
    19   11   12 1
    20   11   34 1
    21   11   35 1
    22   12   13 1
    23   12   36 1
    24   12   37 1
    25   13   18 1
    26   13   14 1
    27   13   38 1
    28   14   15 1
    29   14   39 1
    30   15   16 1
    31   15   40 1
    32   15   41 1
    33   16   17 1
    34   16   42 1
    35   16   43 1
    36   17   18 1
    37   17   44 1
    38   17   45 1
    39   18   46 1
    40   18   47 1
    41   19   20 1
    42   19   48 1
    43   19   49 1
    44   20   21 1
    45   21   26 ar
    46   21   22 ar
    47   22   23 ar
    48   22   28 1
    49   23   24 ar
    50   23   50 1
    51   24   25 ar
    52   24   51 1
    53   25   26 ar
    54   25   52 1
    55   26   27 1
@<TRIPOS>MOLECULE
CHEMBL391533
   81    85     0     0     0
SMALL
USER_CHARGES

@<TRIPOS>ATOM
      1 C1         -1.0417   -2.0221   -1.8139 C.3       1 <0>        -0.1463
      2 C2         -0.5399   -3.3469   -1.2230 C.3       1 <0>        -0.0780
      3 H1          0.1666   -3.7961   -1.9334 H         1 <0>         0.0520
      4 C3         -1.7199   -4.2886   -1.0251 C.3       1 <0>        -0.1045
      5 C4         -1.2473   -5.5764   -0.3563 C.3       1 <0>        -0.0896
      6 C5         -0.6553   -5.2497    1.0180 C.3       1 <0>        -0.1213
      7 C6         -0.2234   -6.5460    1.6928 C.3       1 <0>        -0.0974
      8 C7          1.1371   -6.4501    2.3730 C.3       1 <0>        -0.1027
      9 C8          1.2447   -5.1731    3.1968 C.3       1 <0>        -0.0110
     10 C9          1.0745   -3.9934    2.2523 C.2       1 <0>        -0.0263
     11 C10         1.4862   -2.8264    2.6178 C.2       1 <0>        -0.1935
     12 C11         2.2921   -2.5227    3.8411 C.3       1 <0>        -0.0680
     13 C12         2.6141   -3.7489    4.6770 C.3       1 <0>        -0.0666
     14 H2          1.7694   -3.8266    5.4032 H         1 <0>         0.0702
     15 C13         2.6324   -5.0228    3.8494 C.3       1 <0>        -0.0189
     16 C14         2.9260   -6.2379    4.7212 C.3       1 <0>        -0.1117
     17 C15         4.1289   -6.0255    5.6279 C.3       1 <0>        -0.1013
     18 C16         4.0736   -4.7476    6.4590 C.3       1 <0>        -0.0551
     19 H3          5.1366   -4.6096    6.8211 H         1 <0>         0.0516
     20 C17         3.8269   -3.5392    5.5687 C.3       1 <0>        -0.0296
     21 C18         3.6147   -2.2641    6.3995 C.3       1 <0>        -0.1072
     22 C19         2.5368   -2.4870    7.4562 C.3       1 <0>         0.0724
     23 H4          1.6106   -2.8189    6.9948 H         1 <0>         0.0738
     24 C20         3.0551   -3.5360    8.4395 C.3       1 <0>         0.0882
     25 H5          4.0041   -3.2043    8.8606 H         1 <0>         0.0579
     26 C21         3.2521   -4.8739    7.7179 C.3       1 <0>        -0.0352
     27 C22         4.0122   -5.7936    8.7064 C.3       1 <0>        -0.1439
     28 C23         1.8762   -5.5004    7.4980 C.3       1 <0>        -0.1434
     29 O1          2.1027   -3.7083    9.4918 O.3       1 <0>        -0.5585
     30 O2          2.3015   -1.2605    8.1548 O.3       1 <0>        -0.5672
     31 C24         5.1110   -3.2805    4.7566 C.3       1 <0>        -0.1519
     32 C25         3.6611   -4.9628    2.7121 C.3       1 <0>        -0.1497
     33 C26         0.5316   -4.3038    0.8733 C.3       1 <0>         0.0032
     34 H6          1.3279   -4.8538    0.3276 H         1 <0>         0.0446
     35 C27         0.2069   -3.0533    0.0788 C.3       1 <0>        -0.0679
     36 H7         -0.3630   -2.3490    0.6790 H         1 <0>         0.0930
     37 C28         1.5288   -2.3749   -0.3500 C.3       1 <0>        -0.1596
     38 C29         0.1502   -5.1620    4.2667 C.3       1 <0>        -0.1365
     39 C30        -1.7369   -4.5964    1.8408 C.2       1 <0>         0.5150
     40 O3         -2.7711   -5.1978    2.0760 O.co2     1 <0>        -0.7104
     41 O4         -1.5773   -3.4669    2.2710 O.co2     1 <0>        -0.6791
     42 H8         -0.1967   -1.3526   -1.9743 H         1 <0>         0.0506
     43 H9         -1.5391   -2.2136   -2.7647 H         1 <0>         0.0442
     44 H10        -1.7457   -1.5593   -1.1224 H         1 <0>         0.0546
     45 H11        -2.5102   -3.8043   -0.4599 H         1 <0>         0.0680
     46 H12        -2.1287   -4.5475   -2.0147 H         1 <0>         0.0391
     47 H13        -2.0902   -6.2580   -0.2333 H         1 <0>         0.0596
     48 H14        -0.4854   -6.0544   -0.9755 H         1 <0>         0.0406
     49 H15        -0.9754   -6.8369    2.4210 H         1 <0>         0.0637
     50 H16        -0.1680   -7.3263    0.9305 H         1 <0>         0.0400
     51 H17         1.2573   -7.3152    3.0298 H         1 <0>         0.0505
     52 H18         1.9045   -6.4796    1.6030 H         1 <0>         0.0563
     53 H19         1.1836   -1.9676    2.0442 H         1 <0>         0.1001
     54 H20         3.2037   -2.0214    3.5303 H         1 <0>         0.0604
     55 H21         1.7100   -1.8300    4.4573 H         1 <0>         0.0540
     56 H22         2.0594   -6.5600    5.2794 H         1 <0>         0.0716
     57 H23         3.1735   -7.0823    4.0437 H         1 <0>         0.0501
     58 H24         4.2357   -6.8947    6.2888 H         1 <0>         0.0563
     59 H25         5.0405   -6.0081    5.0108 H         1 <0>         0.0572
     60 H26         4.5560   -2.0027    6.8877 H         1 <0>         0.0642
     61 H27         3.3192   -1.4528    5.7349 H         1 <0>         0.0792
     62 H28         4.9833   -5.3554    8.9368 H         1 <0>         0.0473
     63 H29         3.4335   -5.8974    9.6243 H         1 <0>         0.0610
     64 H30         4.1545   -6.7748    8.2536 H         1 <0>         0.0558
     65 H31         1.9950   -6.5034    7.0880 H         1 <0>         0.0569
     66 H32         1.3465   -5.5571    8.4489 H         1 <0>         0.0637
     67 H33         1.3054   -4.8879    6.8001 H         1 <0>         0.0612
     68 H34         1.9256   -2.9034    9.9977 H         1 <0>         0.3704
     69 H35         1.6266   -1.3239    8.8444 H         1 <0>         0.3722
     70 H36         4.9268   -2.4916    4.0273 H         1 <0>         0.0603
     71 H37         5.9111   -2.9732    5.4300 H         1 <0>         0.0479
     72 H38         5.4031   -4.1937    4.2380 H         1 <0>         0.0674
     73 H39         3.5559   -4.0194    2.1764 H         1 <0>         0.0630
     74 H40         4.6663   -5.0347    3.1273 H         1 <0>         0.0520
     75 H41         3.4917   -5.7917    2.0249 H         1 <0>         0.0521
     76 H42         1.3063   -1.4590   -0.8975 H         1 <0>         0.0457
     77 H43         2.1179   -2.1350    0.5351 H         1 <0>         0.0609
     78 H44         2.0940   -3.0524   -0.9900 H         1 <0>         0.0414
     79 H45         0.2713   -6.0265    4.9194 H         1 <0>         0.0389
     80 H46         0.2274   -4.2482    4.8560 H         1 <0>         0.0499
     81 H47        -0.8276   -5.2033    3.7868 H         1 <0>         0.0820
@<TRIPOS>BOND
     1    1    2 1
     2    1   42 1
     3    1   43 1
     4    1   44 1
     5    2    3 1
     6    2   35 1
     7    2    4 1
     8    4    5 1
     9    4   45 1
    10    4   46 1
    11    5    6 1
    12    5   47 1
    13    5   48 1
    14    6   33 1
    15    6    7 1
    16    6   39 1
    17    7    8 1
    18    7   49 1
    19    7   50 1
    20    8    9 1
    21    8   51 1
    22    8   52 1
    23    9   15 1
    24    9   10 1
    25    9   38 1
    26   10   11 2
    27   10   33 1
    28   11   12 1
    29   11   53 1
    30   12   13 1
    31   12   54 1
    32   12   55 1
    33   13   14 1
    34   13   20 1
    35   13   15 1
    36   15   16 1
    37   15   32 1
    38   16   17 1
    39   16   56 1
    40   16   57 1
    41   17   18 1
    42   17   58 1
    43   17   59 1
    44   18   19 1
    45   18   26 1
    46   18   20 1
    47   20   21 1
    48   20   31 1
    49   21   22 1
    50   21   60 1
    51   21   61 1
    52   22   23 1
    53   22   24 1
    54   22   30 1
    55   24   25 1
    56   24   26 1
    57   24   29 1
    58   26   27 1
    59   26   28 1
    60   27   62 1
    61   27   63 1
    62   27   64 1
    63   28   65 1
    64   28   66 1
    65   28   67 1
    66   29   68 1
    67   30   69 1
    68   31   70 1
    69   31   71 1
    70   31   72 1
    71   32   73 1
    72   32   74 1
    73   32   75 1
    74   33   34 1
    75   33   35 1
    76   35   36 1
    77   35   37 1
    78   37   76 1
    79   37   77 1
    80   37   78 1
    81   38   79 1
    82   38   80 1
    83   38   81 1
    84   39   40 2
    85   39   41 1
@<TRIPOS>MOLECULE
CHEMBL469157
   45    46     0     0     0
SMALL
USER_CHARGES

@<TRIPOS>ATOM
      1 C1         -0.0187    1.5258    0.0104 C.3       1 <0>        -0.1646
      2 C2          0.0021   -0.0041    0.0020 C.3       1 <0>        -0.0893
      3 C3         -1.4333   -0.5336    0.0129 C.3       1 <0>        -0.0977
      4 C4         -2.3096    0.2108   -0.9883 C.2       1 <0>         0.5530
      5 O1         -2.1148    0.2045   -2.1881 O.2       1 <0>        -0.4631
      6 N1         -3.2943    0.8573   -0.4175 N.2       1 <0>        -0.6889
      7 C5         -3.5167    0.8717    0.8838 C.2       1 <0>         0.4782
      8 S1         -2.3067   -0.0779    1.5671 S.3       1 <0>        -0.1029
      9 N2         -4.5201    1.5226    1.5394 N.pl3     1 <0>        -0.6401
     10 C6         -5.4969    2.3118    0.7849 C.3       1 <0>         0.1194
     11 C7         -4.9410    3.7170    0.5449 C.3       1 <0>        -0.1271
     12 C8         -5.7516    4.4048   -0.5554 C.3       1 <0>        -0.1221
     13 C9         -5.9889    3.4229   -1.7043 C.3       1 <0>        -0.1362
     14 C10        -7.4793    3.0877   -1.7894 C.3       1 <0>        -0.1206
     15 C11        -7.8469    2.1140   -0.6678 C.3       1 <0>        -0.1324
     16 C12        -7.9284    2.8714    0.6589 C.3       1 <0>        -0.1234
     17 C13        -6.7996    2.4080    1.5817 C.3       1 <0>        -0.1287
     18 C14        -1.4687   -2.0444   -0.2262 C.3       1 <0>        -0.0897
     19 C15        -2.9223   -2.5102   -0.3315 C.3       1 <0>        -0.1651
     20 H1          1.0039    1.9031    0.0027 H         1 <0>         0.0691
     21 H2         -0.5459    1.8868   -0.8726 H         1 <0>         0.0579
     22 H3         -0.5289    1.8773    0.9072 H         1 <0>         0.0598
     23 H4          0.5123   -0.3556   -0.8948 H         1 <0>         0.0925
     24 H5          0.5293   -0.3651    0.8851 H         1 <0>         0.0827
     25 H6         -4.5870    1.4629    2.5053 H         1 <0>         0.4220
     26 H7         -5.6916    1.8296   -0.1730 H         1 <0>         0.1284
     27 H8         -5.0113    4.2976    1.4648 H         1 <0>         0.0656
     28 H9         -3.8975    3.6475    0.2379 H         1 <0>         0.0687
     29 H10        -6.7104    4.7295   -0.1512 H         1 <0>         0.0748
     30 H11        -5.2014    5.2702   -0.9248 H         1 <0>         0.0636
     31 H12        -5.6641    3.8750   -2.6415 H         1 <0>         0.0613
     32 H13        -5.4208    2.5101   -1.5253 H         1 <0>         0.0829
     33 H14        -8.0640    4.0015   -1.6835 H         1 <0>         0.0645
     34 H15        -7.6940    2.6284   -2.7543 H         1 <0>         0.0617
     35 H16        -8.8124    1.6571   -0.8852 H         1 <0>         0.0630
     36 H17        -7.0853    1.3375   -0.5967 H         1 <0>         0.0698
     37 H18        -7.8298    3.9410    0.4732 H         1 <0>         0.0794
     38 H19        -8.8897    2.6722    1.1324 H         1 <0>         0.0678
     39 H20        -7.0462    1.4297    1.9944 H         1 <0>         0.0710
     40 H21        -6.6768    3.1246    2.3938 H         1 <0>         0.0728
     41 H22        -0.9443   -2.2781   -1.1527 H         1 <0>         0.0925
     42 H23        -0.9828   -2.5553    0.6051 H         1 <0>         0.0827
     43 H24        -3.4467   -2.2765    0.5951 H         1 <0>         0.0622
     44 H25        -3.4082   -1.9993   -1.1628 H         1 <0>         0.0561
     45 H26        -2.9475   -3.5865   -0.5018 H         1 <0>         0.0691
@<TRIPOS>BOND
     1    1    2 1
     2    1   20 1
     3    1   21 1
     4    1   22 1
     5    2    3 1
     6    2   23 1
     7    2   24 1
     8    3    8 1
     9    3    4 1
    10    3   18 1
    11    4    5 2
    12    4    6 1
    13    6    7 2
    14    7    8 1
    15    7    9 1
    16    9   10 1
    17    9   25 1
    18   10   17 1
    19   10   11 1
    20   10   26 1
    21   11   12 1
    22   11   27 1
    23   11   28 1
    24   12   13 1
    25   12   29 1
    26   12   30 1
    27   13   14 1
    28   13   31 1
    29   13   32 1
    30   14   15 1
    31   14   33 1
    32   14   34 1
    33   15   16 1
    34   15   35 1
    35   15   36 1
    36   16   17 1
    37   16   37 1
    38   16   38 1
    39   17   39 1
    40   17   40 1
    41   18   19 1
    42   18   41 1
    43   18   42 1
    44   19   43 1
    45   19   44 1
    46   19   45 1
@<TRIPOS>MOLECULE
CHEMBL218247
   65    68     0     0     0
SMALL
USER_CHARGES

@<TRIPOS>ATOM
      1 C1          0.1056    1.8017   -0.2273 C.3       1 <0>        -0.1384
      2 C2          0.2067    0.2889   -0.0225 C.3       1 <0>         0.0907
      3 C3          1.0934   -0.0036    1.1896 C.3       1 <0>        -0.1680
      4 C4         -1.1691   -0.2793    0.2128 C.2       1 <0>         0.5322
      5 O1         -1.5714   -0.4446    1.3450 O.2       1 <0>        -0.5289
      6 N1         -1.9525   -0.6036   -0.8348 N.am      1 <0>        -0.7144
      7 C5         -3.2900   -1.1559   -0.6061 C.3       1 <0>         0.1805
      8 C6         -3.1748   -2.4593    0.1868 C.3       1 <0>        -0.1273
      9 C7         -4.5716   -3.0361    0.4257 C.3       1 <0>        -0.0892
     10 C8         -5.6181   -2.1172   -0.2079 C.3       1 <0>        -0.0764
     11 C9         -5.3603   -2.0118   -1.7123 C.3       1 <0>        -0.0999
     12 C10        -3.9635   -1.4350   -1.9512 C.3       1 <0>        -0.1168
     13 C11        -5.5254   -0.7269    0.4241 C.3       1 <0>        -0.1009
     14 C12        -4.1286   -0.1501    0.1852 C.3       1 <0>        -0.1257
     15 C13        -6.9939   -2.6853    0.0275 C.2       1 <0>         0.5270
     16 O2         -7.1246   -3.7230    0.6415 O.2       1 <0>        -0.5381
     17 N2         -8.0791   -2.0402   -0.4444 N.am      1 <0>        -0.8549
     18 N3          0.7936   -0.3291   -1.2191 N.3       1 <0>        -0.5243
     19 C14         0.8125   -1.7931   -1.1000 C.3       1 <0>         0.0275
     20 C15         1.2604   -2.4048   -2.4317 C.3       1 <0>         0.1278
     21 N4          2.5421   -1.7956   -2.8181 N.pl3     1 <0>        -0.6009
     22 C16         2.6403   -0.3282   -2.8274 C.3       1 <0>         0.1269
     23 C17         2.1382    0.2018   -1.4801 C.3       1 <0>         0.0346
     24 C18         3.6315   -2.5858   -3.1659 C.ar      1 <0>         0.4324
     25 C19         3.4573   -3.9521   -3.3632 C.ar      1 <0>        -0.2414
     26 C20         4.5498   -4.7264   -3.7088 C.ar      1 <0>         0.0179
     27 C21         5.7849   -4.1062   -3.8462 C.ar      1 <0>        -0.3051
     28 C22         5.8855   -2.7459   -3.6354 C.ar      1 <0>         0.2109
     29 N5          4.8246   -2.0308   -3.3117 N.ar      1 <0>        -0.5397
     30 C23         7.0029   -4.9105   -4.2211 C.3       1 <0>         0.5209
     31 F1          7.1294   -4.9435   -5.6139 F         1 <0>        -0.1777
     32 F2          8.1417   -4.3196   -3.6632 F         1 <0>        -0.1776
     33 F3          6.8683   -6.2151   -3.7340 F         1 <0>        -0.1787
     34 H1          1.1007    2.2126   -0.3975 H         1 <0>         0.0716
     35 H2         -0.5261    2.0101   -1.0908 H         1 <0>         0.0698
     36 H3         -0.3298    2.2602    0.6606 H         1 <0>         0.0696
     37 H4          0.6580    0.4549    2.0774 H         1 <0>         0.0767
     38 H5          1.1654   -1.0814    1.3354 H         1 <0>         0.0595
     39 H6          2.0885    0.4073    1.0193 H         1 <0>         0.0658
     40 H7         -1.6308   -0.4713   -1.7403 H         1 <0>         0.4083
     41 H8         -2.5773   -3.1759   -0.3769 H         1 <0>         0.0627
     42 H9         -2.6950   -2.2605    1.1451 H         1 <0>         0.0874
     43 H10        -4.6376   -4.0266   -0.0245 H         1 <0>         0.0715
     44 H11        -4.7553   -3.1112    1.4975 H         1 <0>         0.0727
     45 H12        -5.4263   -3.0023   -2.1625 H         1 <0>         0.0738
     46 H13        -6.1058   -1.3571   -2.1637 H         1 <0>         0.0715
     47 H14        -4.0455   -0.5064   -2.5161 H         1 <0>         0.0742
     48 H15        -3.3660   -2.1515   -2.5149 H         1 <0>         0.0738
     49 H16        -6.2709   -0.0722   -0.0273 H         1 <0>         0.0679
     50 H17        -5.7091   -0.8020    1.4959 H         1 <0>         0.0715
     51 H18        -3.6488    0.0488    1.1435 H         1 <0>         0.0892
     52 H19        -4.2107    0.7785   -0.3797 H         1 <0>         0.0654
     53 H20        -7.9746   -1.2103   -0.9355 H         1 <0>         0.4005
     54 H21        -8.9647   -2.4059   -0.2929 H         1 <0>         0.4021
     55 H22         1.5083   -2.0851   -0.3134 H         1 <0>         0.0477
     56 H23        -0.1870   -2.1510   -0.8532 H         1 <0>         0.0935
     57 H24         1.3867   -3.4813   -2.3161 H         1 <0>         0.0901
     58 H25         0.5124   -2.2013   -3.1980 H         1 <0>         0.0805
     59 H26         3.6790   -0.0316   -2.9733 H         1 <0>         0.1033
     60 H27         2.0250    0.0750   -3.6317 H         1 <0>         0.0742
     61 H28         2.1000    1.2908   -1.5089 H         1 <0>         0.0959
     62 H29         2.8155   -0.1179   -0.6882 H         1 <0>         0.0480
     63 H30         2.4822   -4.4018   -3.2476 H         1 <0>         0.1433
     64 H31         4.4450   -5.7894   -3.8680 H         1 <0>         0.1457
     65 H32         6.8441   -2.2597   -3.7408 H         1 <0>         0.1674
@<TRIPOS>BOND
     1    1    2 1
     2    1   34 1
     3    1   35 1
     4    1   36 1
     5    2    3 1
     6    2    4 1
     7    2   18 1
     8    3   37 1
     9    3   38 1
    10    3   39 1
    11    4    5 2
    12    4    6 am
    13    6    7 1
    14    6   40 1
    15    7   12 1
    16    7   14 1
    17    7    8 1
    18    8    9 1
    19    8   41 1
    20    8   42 1
    21    9   10 1
    22    9   43 1
    23    9   44 1
    24   10   11 1
    25   10   13 1
    26   10   15 1
    27   11   12 1
    28   11   45 1
    29   11   46 1
    30   12   47 1
    31   12   48 1
    32   13   14 1
    33   13   49 1
    34   13   50 1
    35   14   51 1
    36   14   52 1
    37   15   16 2
    38   15   17 am
    39   17   53 1
    40   17   54 1
    41   18   23 1
    42   18   19 1
    43   19   20 1
    44   19   55 1
    45   19   56 1
    46   20   21 1
    47   20   57 1
    48   20   58 1
    49   21   22 1
    50   21   24 1
    51   22   23 1
    52   22   59 1
    53   22   60 1
    54   23   61 1
    55   23   62 1
    56   24   29 ar
    57   24   25 ar
    58   25   26 ar
    59   25   63 1
    60   26   27 ar
    61   26   64 1
    62   27   28 ar
    63   27   30 1
    64   28   29 ar
    65   28   65 1
    66   30   31 1
    67   30   32 1
    68   30   33 1
@<TRIPOS>MOLECULE
CHEMBL222317
   48    49     0     0     0
SMALL
USER_CHARGES

@<TRIPOS>ATOM
      1 C1         -3.4311    2.0707   -5.2431 C.3       1 <0>        -0.1531
      2 C2         -2.7391    0.8469   -4.6395 C.3       1 <0>         0.0618
      3 O1         -2.4716   -0.1058   -5.6704 O.3       1 <0>        -0.3559
      4 C3         -1.8630   -1.2449   -5.3045 C.2       1 <0>         0.4602
      5 O2         -1.5670   -1.4269   -4.1473 O.2       1 <0>        -0.4864
      6 C4         -1.5487   -2.2966   -6.3371 C.3       1 <0>         0.0639
      7 N1         -0.8881   -3.4373   -5.6888 N.3       1 <0>        -0.5269
      8 C5         -1.8002   -4.1138   -4.7569 C.3       1 <0>         0.0371
      9 C6         -1.0260   -5.1777   -3.9714 C.3       1 <0>         0.1531
     10 H1         -0.2876   -4.6950   -3.3312 H         1 <0>         0.0854
     11 N2         -0.3462   -6.0630   -4.9292 N.am      1 <0>        -0.6043
     12 C7          0.4783   -5.4485   -5.9807 C.3       1 <0>         0.1481
     13 H2          1.3613   -4.9919   -5.5336 H         1 <0>         0.0890
     14 C8         -0.3552   -4.3740   -6.6871 C.3       1 <0>         0.0480
     15 C9          0.9067   -6.5173   -6.9883 C.3       1 <0>        -0.2025
     16 C10        -0.4751   -7.4020   -4.8451 C.2       1 <0>         0.5712
     17 O3         -1.3085   -7.8873   -4.1045 O.2       1 <0>        -0.5146
     18 C11         0.3949   -8.2788   -5.6517 C.ar      1 <0>        -0.1440
     19 C12         1.7636   -8.3518   -5.3769 C.ar      1 <0>        -0.0227
     20 C13         2.5734   -9.1712   -6.1316 C.ar      1 <0>        -0.1189
     21 C14         2.0300   -9.9266   -7.1677 C.ar      1 <0>         0.2596
     22 C15         0.6669   -9.8556   -7.4441 C.ar      1 <0>        -0.1126
     23 C16        -0.1488   -9.0426   -6.6886 C.ar      1 <0>        -0.0235
     24 Cl1        -0.0060  -10.7982   -8.7373 Cl        1 <0>        -0.0517
     25 N3          2.8508  -10.7538   -7.9287 N.pl3     1 <0>        -0.8533
     26 Cl2         4.2733   -9.2620   -5.7914 Cl        1 <0>        -0.0512
     27 C17        -1.9970   -5.9910   -3.1132 C.3       1 <0>        -0.1398
     28 H3         -2.7826    2.5210   -5.9947 H         1 <0>         0.0672
     29 H4         -4.3686    1.7656   -5.7080 H         1 <0>         0.0667
     30 H5         -3.6351    2.7975   -4.4568 H         1 <0>         0.0807
     31 H6         -1.8016    1.1521   -4.1747 H         1 <0>         0.0689
     32 H7         -3.3876    0.3967   -3.8880 H         1 <0>         0.0677
     33 H8         -2.4731   -2.6314   -6.8077 H         1 <0>         0.0797
     34 H9         -0.8871   -1.8760   -7.0944 H         1 <0>         0.1209
     35 H10        -2.2198   -3.3840   -4.0645 H         1 <0>         0.1028
     36 H11        -2.6055   -4.5893   -5.3169 H         1 <0>         0.0407
     37 H12        -1.1805   -4.8459   -7.2202 H         1 <0>         0.0467
     38 H13         0.2732   -3.8329   -7.3945 H         1 <0>         0.0942
     39 H14         0.0830   -7.2118   -7.1535 H         1 <0>         0.0874
     40 H15         1.1750   -6.0409   -7.9312 H         1 <0>         0.0688
     41 H16         1.7672   -7.0605   -6.5978 H         1 <0>         0.0888
     42 H17         2.1856   -7.7659   -4.5738 H         1 <0>         0.1450
     43 H18        -1.2066   -8.9915   -6.9003 H         1 <0>         0.1447
     44 H19         3.8004  -10.8037   -7.7372 H         1 <0>         0.4079
     45 H20         2.4733  -11.2804   -8.6506 H         1 <0>         0.4079
     46 H21        -2.6976   -6.5199   -3.7594 H         1 <0>         0.0722
     47 H22        -1.4382   -6.7117   -2.5162 H         1 <0>         0.0750
     48 H23        -2.5471   -5.3208   -2.4527 H         1 <0>         0.0503
@<TRIPOS>BOND
     1    1    2 1
     2    1   28 1
     3    1   29 1
     4    1   30 1
     5    2    3 1
     6    2   31 1
     7    2   32 1
     8    3    4 1
     9    4    5 2
    10    4    6 1
    11    6    7 1
    12    6   33 1
    13    6   34 1
    14    7   14 1
    15    7    8 1
    16    8    9 1
    17    8   35 1
    18    8   36 1
    19    9   10 1
    20    9   11 1
    21    9   27 1
    22   11   12 1
    23   11   16 am
    24   12   13 1
    25   12   14 1
    26   12   15 1
    27   14   37 1
    28   14   38 1
    29   15   39 1
    30   15   40 1
    31   15   41 1
    32   16   17 2
    33   16   18 1
    34   18   23 ar
    35   18   19 ar
    36   19   20 ar
    37   19   42 1
    38   20   21 ar
    39   20   26 1
    40   21   22 ar
    41   21   25 1
    42   22   23 ar
    43   22   24 1
    44   23   43 1
    45   25   44 1
    46   25   45 1
    47   27   46 1
    48   27   47 1
    49   27   48 1
@<TRIPOS>MOLECULE
CHEMBL1085720
   41    43     0     0     0
SMALL
USER_CHARGES

@<TRIPOS>ATOM
      1 C1         -0.6159    1.9315    2.3684 C.ar      1 <0>        -0.1231
      2 C2          0.5556    2.5815    2.0279 C.ar      1 <0>        -0.1178
      3 C3          1.6837    1.8500    1.7066 C.ar      1 <0>        -0.1175
      4 C4          1.6404    0.4685    1.7263 C.ar      1 <0>        -0.0857
      5 C5          0.4692   -0.1816    2.0678 C.ar      1 <0>        -0.1170
      6 C6         -0.6593    0.5499    2.3877 C.ar      1 <0>        -0.1173
      7 C7          2.8700   -0.3290    1.3752 C.3       1 <0>        -0.0723
      8 C8          3.6866   -0.5916    2.6421 C.3       1 <0>        -0.1648
      9 C9          4.9161   -1.3890    2.2909 C.2       1 <0>         0.3630
     10 O1          5.1184   -1.7138    1.1455 O.2       1 <0>        -0.4446
     11 C10         5.8933   -1.7812    3.3691 C.3       1 <0>        -0.1701
     12 C11         7.0429   -2.5786    2.7500 C.3       1 <0>        -0.0414
     13 C12         8.0175   -2.9750    3.8289 C.2       1 <0>         0.2547
     14 N1          8.0458   -4.1158    4.4669 N.2       1 <0>        -0.3234
     15 N2          9.0018   -4.1316    5.3242 N.2       1 <0>        -0.0322
     16 N3          9.6448   -3.0143    5.2949 N.2       1 <0>        -0.0736
     17 N4          9.0277   -2.2200    4.3124 N.pl3     1 <0>        -0.3303
     18 C13         9.3832   -0.9209    3.9204 C.ar      1 <0>         0.1193
     19 C14         9.4167   -0.5855    2.5738 C.ar      1 <0>        -0.1134
     20 C15         9.7671    0.6945    2.1908 C.ar      1 <0>        -0.0980
     21 C16        10.0848    1.6412    3.1472 C.ar      1 <0>        -0.1012
     22 C17        10.0523    1.3100    4.4893 C.ar      1 <0>        -0.1004
     23 C18         9.6966    0.0333    4.8786 C.ar      1 <0>        -0.0940
     24 H1         -1.4960    2.5030    2.6237 H         1 <0>         0.1217
     25 H2          0.5894    3.6609    2.0124 H         1 <0>         0.1222
     26 H3          2.5987    2.3579    1.4399 H         1 <0>         0.1211
     27 H4          0.4353   -1.2609    2.0828 H         1 <0>         0.1219
     28 H5         -1.5744    0.0420    2.6540 H         1 <0>         0.1225
     29 H6          2.5724   -1.2790    0.9313 H         1 <0>         0.0799
     30 H7          3.4751    0.2313    0.6625 H         1 <0>         0.0791
     31 H8          3.9842    0.3584    3.0860 H         1 <0>         0.1018
     32 H9          3.0814   -1.1519    3.3548 H         1 <0>         0.1032
     33 H10         6.2885   -0.8838    3.8451 H         1 <0>         0.1020
     34 H11         5.3857   -2.3941    4.1140 H         1 <0>         0.1123
     35 H12         6.6473   -3.4741    2.2708 H         1 <0>         0.1203
     36 H13         7.5527   -1.9644    2.0077 H         1 <0>         0.1044
     37 H14         9.1693   -1.3248    1.8263 H         1 <0>         0.1358
     38 H15         9.7934    0.9560    1.1433 H         1 <0>         0.1403
     39 H16        10.3593    2.6412    2.8454 H         1 <0>         0.1365
     40 H17        10.3013    2.0514    5.2341 H         1 <0>         0.1395
     41 H18         9.6667   -0.2234    5.9272 H         1 <0>         0.1367
@<TRIPOS>BOND
     1    1    6 ar
     2    1    2 ar
     3    1   24 1
     4    2    3 ar
     5    2   25 1
     6    3    4 ar
     7    3   26 1
     8    4    5 ar
     9    4    7 1
    10    5    6 ar
    11    5   27 1
    12    6   28 1
    13    7    8 1
    14    7   29 1
    15    7   30 1
    16    8    9 1
    17    8   31 1
    18    8   32 1
    19    9   10 2
    20    9   11 1
    21   11   12 1
    22   11   33 1
    23   11   34 1
    24   12   13 1
    25   12   35 1
    26   12   36 1
    27   13   17 1
    28   13   14 2
    29   14   15 1
    30   15   16 2
    31   16   17 1
    32   17   18 1
    33   18   23 ar
    34   18   19 ar
    35   19   20 ar
    36   19   37 1
    37   20   21 ar
    38   20   38 1
    39   21   22 ar
    40   21   39 1
    41   22   23 ar
    42   22   40 1
    43   23   41 1
@<TRIPOS>MOLECULE
CHEMBL468987
   44    47     0     0     0
SMALL
USER_CHARGES

@<TRIPOS>ATOM
      1 C1         -0.0187    1.5258    0.0104 C.3       1 <0>        -0.1477
      2 C2          0.0021   -0.0041    0.0020 C.3       1 <0>        -0.1354
      3 C3          0.7182   -0.4975   -1.2568 C.3       1 <0>        -0.0850
      4 C4          0.7390   -2.0273   -1.2652 C.3       1 <0>        -0.0985
      5 C5         -0.6243   -2.6052   -0.9017 C.2       1 <0>         0.5478
      6 O1         -1.6288   -2.4261   -1.5624 O.2       1 <0>        -0.4624
      7 N1         -0.5971   -3.3151    0.1977 N.2       1 <0>        -0.6837
      8 C6          0.4870   -3.5172    0.9236 C.2       1 <0>         0.4827
      9 S1          1.7266   -2.6943    0.1368 S.3       1 <0>        -0.1072
     10 N2          0.5826   -4.2431    2.0744 N.pl3     1 <0>        -0.6259
     11 C7         -0.6046   -4.9001    2.6267 C.3       1 <0>         0.1584
     12 C8         -1.2996   -5.8781    1.6342 C.3       1 <0>        -0.1154
     13 C9         -2.0524   -6.8158    2.6199 C.3       1 <0>        -0.0931
     14 C10        -3.1016   -5.9860    3.3650 C.3       1 <0>        -0.1081
     15 C11        -2.5237   -4.7515    4.0625 C.3       1 <0>        -0.0921
     16 C12        -1.7480   -3.9138    3.0069 C.3       1 <0>        -0.1187
     17 C13        -1.3456   -5.1985    4.9703 C.3       1 <0>        -0.1162
     18 C14        -0.3210   -5.7205    3.9188 C.3       1 <0>        -0.0975
     19 C15        -0.8985   -7.1569    3.6017 C.3       1 <0>        -0.1169
     20 C16         1.2370   -2.5677   -2.6072 C.3       1 <0>        -0.1193
     21 H1          1.0039    1.9031    0.0027 H         1 <0>         0.0566
     22 H2         -0.5459    1.8868   -0.8726 H         1 <0>         0.0569
     23 H3         -0.5289    1.8773    0.9072 H         1 <0>         0.0566
     24 H4          0.5293   -0.3651    0.8851 H         1 <0>         0.0660
     25 H5         -1.0205   -0.3814    0.0098 H         1 <0>         0.0643
     26 H6          0.1910   -0.1364   -2.1398 H         1 <0>         0.0927
     27 H7          1.7408   -0.1202   -1.2645 H         1 <0>         0.0827
     28 H8          1.4366   -4.3242    2.5270 H         1 <0>         0.4243
     29 H9         -1.9974   -5.3488    0.9853 H         1 <0>         0.0899
     30 H10        -0.5650   -6.4316    1.0493 H         1 <0>         0.0642
     31 H11        -2.4689   -7.6973    2.1325 H         1 <0>         0.0931
     32 H12        -3.8597   -5.6612    2.6524 H         1 <0>         0.0653
     33 H13        -3.5788   -6.6182    4.1138 H         1 <0>         0.0640
     34 H14        -3.2834   -4.1731    4.5882 H         1 <0>         0.0930
     35 H15        -1.3483   -3.0003    3.4471 H         1 <0>         0.0647
     36 H16        -2.3761   -3.6898    2.1447 H         1 <0>         0.0877
     37 H17        -0.9273   -4.3522    5.5152 H         1 <0>         0.0661
     38 H18        -1.6555   -5.9886    5.6542 H         1 <0>         0.0768
     39 H19         0.7212   -5.6943    4.2370 H         1 <0>         0.0959
     40 H20        -1.2800   -7.6336    4.5047 H         1 <0>         0.0752
     41 H21        -0.1449   -7.7798    3.1200 H         1 <0>         0.0668
     42 H22         2.2484   -2.2057   -2.7918 H         1 <0>         0.0767
     43 H23         1.2401   -3.6574   -2.5814 H         1 <0>         0.0678
     44 H24         0.5772   -2.2250   -3.4043 H         1 <0>         0.0867
@<TRIPOS>BOND
     1    1    2 1
     2    1   21 1
     3    1   22 1
     4    1   23 1
     5    2    3 1
     6    2   24 1
     7    2   25 1
     8    3    4 1
     9    3   26 1
    10    3   27 1
    11    4    9 1
    12    4    5 1
    13    4   20 1
    14    5    6 2
    15    5    7 1
    16    7    8 2
    17    8    9 1
    18    8   10 1
    19   10   11 1
    20   10   28 1
    21   11   16 1
    22   11   18 1
    23   11   12 1
    24   12   13 1
    25   12   29 1
    26   12   30 1
    27   13   19 1
    28   13   14 1
    29   13   31 1
    30   14   15 1
    31   14   32 1
    32   14   33 1
    33   15   16 1
    34   15   17 1
    35   15   34 1
    36   16   35 1
    37   16   36 1
    38   17   18 1
    39   17   37 1
    40   17   38 1
    41   18   19 1
    42   18   39 1
    43   19   40 1
    44   19   41 1
    45   20   42 1
    46   20   43 1
    47   20   44 1
@<TRIPOS>MOLECULE
CHEMBL468987__1
   44    47     0     0     0
SMALL
USER_CHARGES

@<TRIPOS>ATOM
      1 C1         -0.0187    1.5258    0.0104 C.3       1 <0>        -0.1477
      2 C2          0.0021   -0.0041    0.0020 C.3       1 <0>        -0.1354
      3 C3          0.7182   -0.4975   -1.2568 C.3       1 <0>        -0.0850
      4 C4          0.7390   -2.0273   -1.2652 C.3       1 <0>        -0.0984
      5 C5          1.1405   -2.5867    0.0950 C.2       1 <0>         0.5478
      6 O1          2.2217   -2.3852    0.6129 O.2       1 <0>        -0.4625
      7 N1          0.1963   -3.3068    0.6458 N.2       1 <0>        -0.6837
      8 C6         -0.9817   -3.5326    0.0941 C.2       1 <0>         0.4828
      9 S1         -0.9609   -2.7224   -1.3811 S.3       1 <0>        -0.1074
     10 N2         -2.0047   -4.2708    0.6125 N.pl3     1 <0>        -0.6259
     11 C7         -1.8545   -4.9137    1.9203 C.3       1 <0>         0.1584
     12 C8         -1.4988   -3.9244    3.0689 C.3       1 <0>        -0.1151
     13 C9         -2.0034   -4.7154    4.3088 C.3       1 <0>        -0.0932
     14 C10        -1.1689   -5.9930    4.4351 C.3       1 <0>        -0.1082
     15 C11        -1.1597   -6.8467    3.1640 C.3       1 <0>        -0.0920
     16 C12        -0.6960   -5.9524    1.9797 C.3       1 <0>        -0.1190
     17 C13        -2.6277   -7.1195    2.7371 C.3       1 <0>        -0.1162
     18 C14        -3.1237   -5.6843    2.3876 C.3       1 <0>        -0.0975
     19 C15        -3.4281   -5.0976    3.8231 C.3       1 <0>        -0.1168
     20 C16         1.6397   -2.5635   -2.3797 C.3       1 <0>        -0.1193
     21 H1          1.0039    1.9031    0.0027 H         1 <0>         0.0569
     22 H2         -0.5459    1.8868   -0.8726 H         1 <0>         0.0566
     23 H3         -0.5289    1.8773    0.9072 H         1 <0>         0.0566
     24 H4          0.5293   -0.3651    0.8851 H         1 <0>         0.0644
     25 H5         -1.0205   -0.3814    0.0098 H         1 <0>         0.0660
     26 H6          0.1910   -0.1364   -2.1398 H         1 <0>         0.0827
     27 H7          1.7408   -0.1202   -1.2645 H         1 <0>         0.0927
     28 H8         -2.8317   -4.3700    0.1154 H         1 <0>         0.4243
     29 H9         -0.4233   -3.7550    3.1222 H         1 <0>         0.0898
     30 H10        -2.0376   -2.9834    2.9575 H         1 <0>         0.0643
     31 H11        -2.0123   -4.1164    5.2194 H         1 <0>         0.0931
     32 H12        -0.1426   -5.7168    4.6772 H         1 <0>         0.0653
     33 H13        -1.5685   -6.5910    5.2541 H         1 <0>         0.0640
     34 H14        -0.5621   -7.7519    3.2716 H         1 <0>         0.0930
     35 H15        -0.6352   -6.5260    1.0548 H         1 <0>         0.0647
     36 H16         0.2547   -5.4679    2.2022 H         1 <0>         0.0877
     37 H17        -2.6673   -7.7567    1.8536 H         1 <0>         0.0661
     38 H18        -3.2006   -7.5528    3.5570 H         1 <0>         0.0769
     39 H19        -3.9508   -5.6413    1.6789 H         1 <0>         0.0959
     40 H20        -3.8728   -5.8544    4.4692 H         1 <0>         0.0752
     41 H21        -4.0681   -4.2179    3.7543 H         1 <0>         0.0668
     42 H22         2.6574   -2.2033   -2.2294 H         1 <0>         0.0867
     43 H23         1.6333   -3.6533   -2.3594 H         1 <0>         0.0678
     44 H24         1.2700   -2.2159   -3.3444 H         1 <0>         0.0767
@<TRIPOS>BOND
     1    1    2 1
     2    1   21 1
     3    1   22 1
     4    1   23 1
     5    2    3 1
     6    2   24 1
     7    2   25 1
     8    3    4 1
     9    3   26 1
    10    3   27 1
    11    4    9 1
    12    4    5 1
    13    4   20 1
    14    5    6 2
    15    5    7 1
    16    7    8 2
    17    8    9 1
    18    8   10 1
    19   10   11 1
    20   10   28 1
    21   11   16 1
    22   11   18 1
    23   11   12 1
    24   12   13 1
    25   12   29 1
    26   12   30 1
    27   13   19 1
    28   13   14 1
    29   13   31 1
    30   14   15 1
    31   14   32 1
    32   14   33 1
    33   15   16 1
    34   15   17 1
    35   15   34 1
    36   16   35 1
    37   16   36 1
    38   17   18 1
    39   17   37 1
    40   17   38 1
    41   18   19 1
    42   18   39 1
    43   19   40 1
    44   19   41 1
    45   20   42 1
    46   20   43 1
    47   20   44 1
@<TRIPOS>MOLECULE
CHEMBL376272
   51    53     0     0     0
SMALL
USER_CHARGES

@<TRIPOS>ATOM
      1 C1          0.4531    1.4737    0.0515 C.3       1 <0>        -0.1385
      2 C2          0.2392   -0.0413    0.0486 C.3       1 <0>         0.0981
      3 C3          1.2624   -0.7026    0.9742 C.3       1 <0>        -0.1961
      4 C4         -1.1529   -0.3529    0.5345 C.2       1 <0>         0.4908
      5 O1         -1.9278   -0.9464   -0.1854 O.2       1 <0>        -0.5085
      6 N1         -1.5367    0.0278    1.7691 N.am      1 <0>        -0.7141
      7 C5         -2.8872   -0.2746    2.2405 C.3       1 <0>         0.1530
      8 C6         -3.8620    0.8239    1.8070 C.3       1 <0>        -0.1280
      9 C7         -3.3572    2.1740    2.2952 C.3       1 <0>        -0.0926
     10 C8         -3.0684    2.2271    3.7825 C.3       1 <0>        -0.0973
     11 C9         -2.4510    0.9779    4.3740 C.3       1 <0>        -0.0996
     12 C10        -2.9163   -0.3333    3.7688 C.3       1 <0>        -0.1284
     13 C11        -4.3343   -0.6853    4.2215 C.3       1 <0>         0.0703
     14 O2         -5.2703    0.2586    3.7198 O.3       1 <0>        -0.3663
     15 C12        -5.2610    0.5102    2.3226 C.3       1 <0>         0.0811
     16 C13        -4.2553    2.7035    4.5721 C.2       1 <0>         0.5325
     17 O3         -5.2867    2.9912    4.0026 O.2       1 <0>        -0.5276
     18 N2         -4.1734    2.8111    5.9131 N.am      1 <0>        -0.8609
     19 O4          0.4037   -0.5431   -1.2792 O.3       1 <0>        -0.2819
     20 C14         0.2659   -1.8840   -1.4536 C.ar      1 <0>         0.1440
     21 C15        -0.1468   -2.6830   -0.3973 C.ar      1 <0>        -0.1720
     22 C16        -0.2863   -4.0456   -0.5765 C.ar      1 <0>        -0.0764
     23 C17        -0.0141   -4.6137   -1.8084 C.ar      1 <0>        -0.0695
     24 C18         0.3982   -3.8186   -2.8631 C.ar      1 <0>        -0.0739
     25 C19         0.5324   -2.4547   -2.6896 C.ar      1 <0>        -0.1381
     26 Cl1        -0.1895   -6.3265   -2.0310 Cl        1 <0>        -0.0722
     27 H1          1.4853    1.6954   -0.2197 H         1 <0>         0.0840
     28 H2         -0.2197    1.9370   -0.6702 H         1 <0>         0.0767
     29 H3          0.2461    1.8680    1.0463 H         1 <0>         0.0822
     30 H4          1.0094   -0.4829    2.0114 H         1 <0>         0.0777
     31 H5          1.2501   -1.7812    0.8178 H         1 <0>         0.0856
     32 H6          2.2567   -0.3147    0.7528 H         1 <0>         0.0852
     33 H7         -0.9170    0.5024    2.3449 H         1 <0>         0.3998
     34 H8         -3.2119   -1.2325    1.8307 H         1 <0>         0.0942
     35 H9         -3.8919    0.8386    0.7051 H         1 <0>         0.0866
     36 H10        -2.4517    2.4467    1.7376 H         1 <0>         0.0654
     37 H11        -4.1133    2.9381    2.0529 H         1 <0>         0.0821
     38 H12        -2.2957    3.0339    3.9085 H         1 <0>         0.0857
     39 H13        -1.3547    1.0435    4.2855 H         1 <0>         0.0682
     40 H14        -2.6633    0.9585    5.4571 H         1 <0>         0.0725
     41 H15        -2.2405   -1.1388    4.0964 H         1 <0>         0.0897
     42 H16        -4.5902   -1.6839    3.8570 H         1 <0>         0.0504
     43 H17        -4.3717   -0.6943    5.3139 H         1 <0>         0.0958
     44 H18        -5.9257    1.3526    2.1012 H         1 <0>         0.1026
     45 H19        -5.6499   -0.3692    1.7957 H         1 <0>         0.0440
     46 H20        -3.3485    2.5810    6.3686 H         1 <0>         0.3964
     47 H21        -4.9393    3.1186    6.4227 H         1 <0>         0.4018
     48 H22        -0.3587   -2.2400    0.5646 H         1 <0>         0.1332
     49 H23        -0.6076   -4.6679    0.2456 H         1 <0>         0.1324
     50 H24         0.6105   -4.2639   -3.8238 H         1 <0>         0.1401
     51 H25         0.8496   -1.8337   -3.5144 H         1 <0>         0.1400
@<TRIPOS>BOND
     1    1    2 1
     2    1   27 1
     3    1   28 1
     4    1   29 1
     5    2    3 1
     6    2    4 1
     7    2   19 1
     8    3   30 1
     9    3   31 1
    10    3   32 1
    11    4    5 2
    12    4    6 am
    13    6    7 1
    14    6   33 1
    15    7   12 1
    16    7    8 1
    17    7   34 1
    18    8   15 1
    19    8    9 1
    20    8   35 1
    21    9   10 1
    22    9   36 1
    23    9   37 1
    24   10   11 1
    25   10   16 1
    26   10   38 1
    27   11   12 1
    28   11   39 1
    29   11   40 1
    30   12   13 1
    31   12   41 1
    32   13   14 1
    33   13   42 1
    34   13   43 1
    35   14   15 1
    36   15   44 1
    37   15   45 1
    38   16   17 2
    39   16   18 am
    40   18   46 1
    41   18   47 1
    42   19   20 1
    43   20   25 ar
    44   20   21 ar
    45   21   22 ar
    46   21   48 1
    47   22   23 ar
    48   22   49 1
    49   23   24 ar
    50   23   26 1
    51   24   25 ar
    52   24   50 1
    53   25   51 1
@<TRIPOS>MOLECULE
CHEMBL237000
   40    42     0     0     0
SMALL
USER_CHARGES

@<TRIPOS>ATOM
      1 C1         -3.2855    1.0504   -1.0390 C.3       1 <0>        -0.1446
      2 C2         -3.5058   -0.4540   -0.8683 C.3       1 <0>        -0.0592
      3 C3         -3.7125   -1.0981   -2.2407 C.3       1 <0>        -0.1467
      4 C4         -2.2819   -1.0752   -0.1925 C.3       1 <0>        -0.1077
      5 C5         -2.4899   -2.5603    0.0793 C.2       1 <0>         0.5211
      6 O1         -2.6614   -3.3670   -0.8138 O.2       1 <0>        -0.5456
      7 N1         -2.4706   -2.9055    1.3376 N.2       1 <0>        -0.7285
      8 C6         -2.2867   -2.0621    2.3449 C.2       1 <0>         0.4716
      9 S1         -2.0938   -0.4774    1.5400 S.3       1 <0>        -0.2612
     10 N2         -2.2530   -2.3389    3.6812 N.2       1 <0>        -0.5751
     11 C7         -2.2028   -3.6679    4.1199 C.ar      1 <0>         0.1381
     12 C8         -1.6453   -4.6468    3.3080 C.ar      1 <0>        -0.1144
     13 C9         -1.5956   -5.9569    3.7413 C.ar      1 <0>        -0.1714
     14 C10        -2.1031   -6.2954    4.9875 C.ar      1 <0>         0.0648
     15 C11        -2.6603   -5.3177    5.7993 C.ar      1 <0>        -0.1289
     16 C12        -2.7054   -4.0064    5.3694 C.ar      1 <0>        -0.1088
     17 O2         -2.0547   -7.5856    5.4133 O.3       1 <0>        -0.2704
     18 C13        -1.4333   -8.4965    4.6193 C.ar      1 <0>         0.1002
     19 C14        -0.0506   -8.6107    4.6431 C.ar      1 <0>        -0.1333
     20 C15         0.5787   -9.5375    3.8349 C.ar      1 <0>        -0.1080
     21 C16        -0.1680  -10.3510    3.0026 C.ar      1 <0>        -0.1269
     22 C17        -1.5459  -10.2389    2.9766 C.ar      1 <0>        -0.1069
     23 C18        -2.1806   -9.3180    3.7873 C.ar      1 <0>        -0.1271
     24 H1         -2.4038    1.2207   -1.6568 H         1 <0>         0.0520
     25 H2         -4.1575    1.4930   -1.5205 H         1 <0>         0.0543
     26 H3         -3.1383    1.5093   -0.0613 H         1 <0>         0.0613
     27 H4         -4.3876   -0.6243   -0.2506 H         1 <0>         0.0727
     28 H5         -2.8308   -0.9278   -2.8585 H         1 <0>         0.0508
     29 H6         -3.8695   -2.1698   -2.1191 H         1 <0>         0.0779
     30 H7         -4.5845   -0.6555   -2.7222 H         1 <0>         0.0499
     31 H8         -1.3774   -0.8991   -0.7748 H         1 <0>         0.1169
     32 H9         -1.2509   -4.3836    2.3377 H         1 <0>         0.1358
     33 H10        -1.1620   -6.7183    3.1100 H         1 <0>         0.1138
     34 H11        -3.0555   -5.5819    6.7690 H         1 <0>         0.1221
     35 H12        -3.1354   -3.2448    6.0031 H         1 <0>         0.1246
     36 H13         0.5331   -7.9754    5.2928 H         1 <0>         0.1288
     37 H14         1.6549   -9.6266    3.8529 H         1 <0>         0.1264
     38 H15         0.3260  -11.0749    2.3715 H         1 <0>         0.1242
     39 H16        -2.1268  -10.8752    2.3253 H         1 <0>         0.1274
     40 H17        -3.2572   -9.2344    3.7704 H         1 <0>         0.1298
@<TRIPOS>BOND
     1    1    2 1
     2    1   24 1
     3    1   25 1
     4    1   26 1
     5    2    3 1
     6    2    4 1
     7    2   27 1
     8    3   28 1
     9    3   29 1
    10    3   30 1
    11    4    9 1
    12    4    5 1
    13    4   31 1
    14    5    6 2
    15    5    7 1
    16    7    8 2
    17    8    9 1
    18    8   10 1
    19   10   11 1
    20   11   16 ar
    21   11   12 ar
    22   12   13 ar
    23   12   32 1
    24   13   14 ar
    25   13   33 1
    26   14   15 ar
    27   14   17 1
    28   15   16 ar
    29   15   34 1
    30   16   35 1
    31   17   18 1
    32   18   23 ar
    33   18   19 ar
    34   19   20 ar
    35   19   36 1
    36   20   21 ar
    37   20   37 1
    38   21   22 ar
    39   21   38 1
    40   22   23 ar
    41   22   39 1
    42   23   40 1
@<TRIPOS>MOLECULE
CHEMBL237000__1
   41    43     0     0     0
SMALL
USER_CHARGES

@<TRIPOS>ATOM
      1 C1         -3.8273    0.9049   -1.0412 C.3       1 <0>        -0.1503
      2 C2         -3.9131   -0.6115   -0.8570 C.3       1 <0>        -0.0638
      3 C3         -4.1199   -1.2797   -2.2177 C.3       1 <0>        -0.1526
      4 C4         -2.6149   -1.1233   -0.2295 C.3       1 <0>        -0.1090
      5 C5         -2.6861   -2.6187    0.0552 C.2       1 <0>         0.5344
      6 O1         -2.8249   -3.4429   -0.8275 O.2       1 <0>        -0.4517
      7 N1         -2.5871   -2.9529    1.3128 N.2       1 <0>        -0.6702
      8 C6         -2.4344   -2.0904    2.3091 C.2       1 <0>         0.5133
      9 S1         -2.4082   -0.5004    1.4920 S.3       1 <0>        -0.1628
     10 N2         -2.3238   -2.3546    3.6438 N.pl3     1 <0>        -0.5722
     11 C7         -2.2556   -3.6796    4.0920 C.ar      1 <0>         0.0910
     12 C8         -1.6901   -4.6578    3.2846 C.ar      1 <0>        -0.0649
     13 C9         -1.6228   -5.9639    3.7273 C.ar      1 <0>        -0.1722
     14 C10        -2.1205   -6.2992    4.9783 C.ar      1 <0>         0.1237
     15 C11        -2.6856   -5.3223    5.7855 C.ar      1 <0>        -0.1265
     16 C12        -2.7484   -4.0148    5.3463 C.ar      1 <0>        -0.0910
     17 O2         -2.0547   -7.5856    5.4133 O.3       1 <0>        -0.2563
     18 C13        -1.4333   -8.4965    4.6193 C.ar      1 <0>         0.0778
     19 C14        -0.0506   -8.6107    4.6431 C.ar      1 <0>        -0.1287
     20 C15         0.5787   -9.5375    3.8349 C.ar      1 <0>        -0.1062
     21 C16        -0.1680  -10.3510    3.0026 C.ar      1 <0>        -0.1150
     22 C17        -1.5459  -10.2389    2.9766 C.ar      1 <0>        -0.1049
     23 C18        -2.1806   -9.3180    3.7873 C.ar      1 <0>        -0.1211
     24 H1         -2.9886    1.1446   -1.6949 H         1 <0>         0.0607
     25 H2         -4.7521    1.2696   -1.4882 H         1 <0>         0.0677
     26 H3         -3.6799    1.3810   -0.0718 H         1 <0>         0.0607
     27 H4         -4.7518   -0.8512   -0.2033 H         1 <0>         0.0812
     28 H5         -3.2813   -1.0400   -2.8714 H         1 <0>         0.0601
     29 H6         -4.1811   -2.3600   -2.0865 H         1 <0>         0.0754
     30 H7         -5.0448   -0.9151   -2.6647 H         1 <0>         0.0647
     31 H8         -1.7527   -0.8757   -0.8487 H         1 <0>         0.1485
     32 H9         -2.2924   -1.6246    4.2817 H         1 <0>         0.4368
     33 H10        -1.3034   -4.3970    2.3106 H         1 <0>         0.1470
     34 H11        -1.1830   -6.7247    3.0995 H         1 <0>         0.1356
     35 H12        -3.0732   -5.5841    6.7590 H         1 <0>         0.1428
     36 H13        -3.1845   -3.2537    5.9763 H         1 <0>         0.1402
     37 H14         0.5331   -7.9754    5.2928 H         1 <0>         0.1310
     38 H15         1.6549   -9.6266    3.8529 H         1 <0>         0.1315
     39 H16         0.3260  -11.0749    2.3715 H         1 <0>         0.1298
     40 H17        -2.1268  -10.8752    2.3253 H         1 <0>         0.1326
     41 H18        -3.2572   -9.2344    3.7704 H         1 <0>         0.1326
@<TRIPOS>BOND
     1    1    2 1
     2    1   24 1
     3    1   25 1
     4    1   26 1
     5    2    3 1
     6    2    4 1
     7    2   27 1
     8    3   28 1
     9    3   29 1
    10    3   30 1
    11    4    9 1
    12    4    5 1
    13    4   31 1
    14    5    6 2
    15    5    7 1
    16    7    8 2
    17    8    9 1
    18    8   10 1
    19   10   11 1
    20   10   32 1
    21   11   16 ar
    22   11   12 ar
    23   12   13 ar
    24   12   33 1
    25   13   14 ar
    26   13   34 1
    27   14   15 ar
    28   14   17 1
    29   15   16 ar
    30   15   35 1
    31   16   36 1
    32   17   18 1
    33   18   23 ar
    34   18   19 ar
    35   19   20 ar
    36   19   37 1
    37   20   21 ar
    38   20   38 1
    39   21   22 ar
    40   21   39 1
    41   22   23 ar
    42   22   40 1
    43   23   41 1
@<TRIPOS>MOLECULE
CHEMBL237000__2
   40    42     0     0     0
SMALL
USER_CHARGES

@<TRIPOS>ATOM
      1 C1         -0.6017    0.4677    3.7257 C.3       1 <0>        -0.1456
      2 C2         -0.2578   -1.0145    3.8859 C.3       1 <0>        -0.0584
      3 C3         -0.2223   -1.6815    2.5094 C.3       1 <0>        -0.1523
      4 C4          1.1118   -1.1510    4.5542 C.3       1 <0>        -0.1119
      5 C5          1.5935   -2.5968    4.5463 C.2       1 <0>         0.5243
      6 O1          0.9953   -3.4847    5.1221 O.2       1 <0>        -0.5512
      7 N1          2.6927   -2.8153    3.8778 N.2       1 <0>        -0.7279
      8 C6          3.3788   -1.8798    3.2344 C.2       1 <0>         0.4713
      9 S1          2.4394   -0.3876    3.5300 S.3       1 <0>        -0.2530
     10 N2          4.5308   -2.0227    2.5162 N.2       1 <0>        -0.5761
     11 C7          5.0085   -3.3021    2.2063 C.ar      1 <0>         0.1387
     12 C8          4.1247   -4.3687    2.1081 C.ar      1 <0>        -0.1144
     13 C9          4.5963   -5.6298    1.8020 C.ar      1 <0>        -0.1714
     14 C10         5.9531   -5.8316    1.5930 C.ar      1 <0>         0.0645
     15 C11         6.8367   -4.7663    1.6910 C.ar      1 <0>        -0.1290
     16 C12         6.3656   -3.5036    1.9914 C.ar      1 <0>        -0.1093
     17 O2          6.4170   -7.0737    1.2926 O.3       1 <0>        -0.2705
     18 C13         5.5093   -8.0721    1.1326 C.ar      1 <0>         0.1003
     19 C14         4.8360   -8.2128   -0.0726 C.ar      1 <0>        -0.1332
     20 C15         3.9138   -9.2287   -0.2326 C.ar      1 <0>        -0.1080
     21 C16         3.6613  -10.1049    0.8068 C.ar      1 <0>        -0.1270
     22 C17         4.3305   -9.9667    2.0088 C.ar      1 <0>        -0.1069
     23 C18         5.2582   -8.9564    2.1721 C.ar      1 <0>        -0.1271
     24 H1          0.1543    0.9512    3.1070 H         1 <0>         0.0644
     25 H2         -1.5773    0.5649    3.2496 H         1 <0>         0.0543
     26 H3         -0.6269    0.9429    4.7063 H         1 <0>         0.0514
     27 H4         -1.0138   -1.4981    4.5046 H         1 <0>         0.0817
     28 H5          0.5337   -1.1980    1.8908 H         1 <0>         0.0675
     29 H6          0.0227   -2.7375    2.6236 H         1 <0>         0.0547
     30 H7         -1.1980   -1.5843    2.0333 H         1 <0>         0.0524
     31 H8          1.1013   -0.7395    5.5635 H         1 <0>         0.1153
     32 H9          3.0687   -4.2119    2.2714 H         1 <0>         0.1361
     33 H10         3.9091   -6.4594    1.7256 H         1 <0>         0.1136
     34 H11         7.8927   -4.9241    1.5286 H         1 <0>         0.1219
     35 H12         7.0530   -2.6737    2.0635 H         1 <0>         0.1244
     36 H13         5.0326   -7.5284   -0.8846 H         1 <0>         0.1288
     37 H14         3.3892   -9.3384   -1.1703 H         1 <0>         0.1263
     38 H15         2.9399  -10.8985    0.6796 H         1 <0>         0.1241
     39 H16         4.1312  -10.6523    2.8192 H         1 <0>         0.1273
     40 H17         5.7844   -8.8520    3.1094 H         1 <0>         0.1298
@<TRIPOS>BOND
     1    1    2 1
     2    1   24 1
     3    1   25 1
     4    1   26 1
     5    2    3 1
     6    2    4 1
     7    2   27 1
     8    3   28 1
     9    3   29 1
    10    3   30 1
    11    4    9 1
    12    4    5 1
    13    4   31 1
    14    5    6 2
    15    5    7 1
    16    7    8 2
    17    8    9 1
    18    8   10 1
    19   10   11 1
    20   11   16 ar
    21   11   12 ar
    22   12   13 ar
    23   12   32 1
    24   13   14 ar
    25   13   33 1
    26   14   15 ar
    27   14   17 1
    28   15   16 ar
    29   15   34 1
    30   16   35 1
    31   17   18 1
    32   18   23 ar
    33   18   19 ar
    34   19   20 ar
    35   19   36 1
    36   20   21 ar
    37   20   37 1
    38   21   22 ar
    39   21   38 1
    40   22   23 ar
    41   22   39 1
    42   23   40 1
@<TRIPOS>MOLECULE
CHEMBL237000__3
   41    43     0     0     0
SMALL
USER_CHARGES

@<TRIPOS>ATOM
      1 C1         -0.4319    0.5381    4.2308 C.3       1 <0>        -0.1509
      2 C2         -0.1389   -0.9630    4.2702 C.3       1 <0>        -0.0657
      3 C3         -0.1947   -1.5310    2.8506 C.3       1 <0>        -0.1613
      4 C4          1.2545   -1.1954    4.8579 C.3       1 <0>        -0.1114
      5 C5          1.6785   -2.6532    4.7254 C.2       1 <0>         0.5377
      6 O1          1.0741   -3.5581    5.2673 O.2       1 <0>        -0.4569
      7 N1          2.7355   -2.8624    3.9891 N.2       1 <0>        -0.6697
      8 C6          3.4262   -1.9083    3.3787 C.2       1 <0>         0.5119
      9 S1          2.5608   -0.4086    3.8241 S.3       1 <0>        -0.1559
     10 N2          4.5363   -2.0405    2.5955 N.pl3     1 <0>        -0.5726
     11 C7          5.0127   -3.3154    2.2655 C.ar      1 <0>         0.0914
     12 C8          4.1287   -4.3809    2.1582 C.ar      1 <0>        -0.0649
     13 C9          4.5989   -5.6376    1.8323 C.ar      1 <0>        -0.1722
     14 C10         5.9545   -5.8359    1.6126 C.ar      1 <0>         0.1235
     15 C11         6.8383   -4.7717    1.7197 C.ar      1 <0>        -0.1266
     16 C12         6.3685   -3.5134    2.0398 C.ar      1 <0>        -0.0913
     17 O2          6.4170   -7.0737    1.2926 O.3       1 <0>        -0.2563
     18 C13         5.5093   -8.0721    1.1326 C.ar      1 <0>         0.0779
     19 C14         4.8360   -8.2128   -0.0726 C.ar      1 <0>        -0.1286
     20 C15         3.9138   -9.2287   -0.2326 C.ar      1 <0>        -0.1062
     21 C16         3.6613  -10.1049    0.8068 C.ar      1 <0>        -0.1150
     22 C17         4.3305   -9.9667    2.0088 C.ar      1 <0>        -0.1049
     23 C18         5.2582   -8.9564    2.1721 C.ar      1 <0>        -0.1211
     24 H1          0.3122    1.0374    3.6101 H         1 <0>         0.0631
     25 H2         -1.4245    0.7037    3.8120 H         1 <0>         0.0680
     26 H3         -0.3921    0.9427    5.2421 H         1 <0>         0.0605
     27 H4         -0.8829   -1.4623    4.8908 H         1 <0>         0.1001
     28 H5          0.5493   -1.0317    2.2299 H         1 <0>         0.0655
     29 H6          0.0140   -2.6004    2.8786 H         1 <0>         0.0552
     30 H7         -1.1874   -1.3654    2.4318 H         1 <0>         0.0693
     31 H8          1.3079   -0.8569    5.8927 H         1 <0>         0.1480
     32 H9          4.9953   -1.2514    2.2676 H         1 <0>         0.4366
     33 H10         3.0736   -4.2268    2.3299 H         1 <0>         0.1472
     34 H11         3.9115   -6.4664    1.7488 H         1 <0>         0.1355
     35 H12         7.8933   -4.9268    1.5488 H         1 <0>         0.1427
     36 H13         7.0560   -2.6842    2.1191 H         1 <0>         0.1400
     37 H14         5.0326   -7.5284   -0.8846 H         1 <0>         0.1310
     38 H15         3.3892   -9.3384   -1.1703 H         1 <0>         0.1315
     39 H16         2.9399  -10.8985    0.6796 H         1 <0>         0.1298
     40 H17         4.1312  -10.6523    2.8192 H         1 <0>         0.1326
     41 H18         5.7844   -8.8520    3.1094 H         1 <0>         0.1325
@<TRIPOS>BOND
     1    1    2 1
     2    1   24 1
     3    1   25 1
     4    1   26 1
     5    2    3 1
     6    2    4 1
     7    2   27 1
     8    3   28 1
     9    3   29 1
    10    3   30 1
    11    4    9 1
    12    4    5 1
    13    4   31 1
    14    5    6 2
    15    5    7 1
    16    7    8 2
    17    8    9 1
    18    8   10 1
    19   10   11 1
    20   10   32 1
    21   11   16 ar
    22   11   12 ar
    23   12   13 ar
    24   12   33 1
    25   13   14 ar
    26   13   34 1
    27   14   15 ar
    28   14   17 1
    29   15   16 ar
    30   15   35 1
    31   16   36 1
    32   17   18 1
    33   18   23 ar
    34   18   19 ar
    35   19   20 ar
    36   19   37 1
    37   20   21 ar
    38   20   38 1
    39   21   22 ar
    40   21   39 1
    41   22   23 ar
    42   22   40 1
    43   23   41 1
@<TRIPOS>MOLECULE
CHEMBL219448
   53    55     0     0     0
SMALL
USER_CHARGES

@<TRIPOS>ATOM
      1 C1          0.4531    1.4737    0.0515 C.3       1 <0>        -0.1381
      2 C2          0.2392   -0.0413    0.0486 C.3       1 <0>         0.0974
      3 C3          1.2624   -0.7026    0.9742 C.3       1 <0>        -0.1967
      4 C4         -1.1529   -0.3529    0.5345 C.2       1 <0>         0.4913
      5 O1         -1.9278   -0.9463   -0.1854 O.2       1 <0>        -0.5111
      6 N1         -1.5367    0.0278    1.7691 N.am      1 <0>        -0.7158
      7 C5         -2.8875   -0.2746    2.2406 C.3       1 <0>         0.1550
      8 C6         -3.8618    0.8148    1.7893 C.3       1 <0>        -0.0934
      9 C7         -3.4011    2.1687    2.3390 C.3       1 <0>        -0.1124
     10 C8         -3.4576    2.1325    3.8662 C.3       1 <0>        -0.1230
     11 C9         -2.5778    1.0070    4.4008 C.3       1 <0>        -0.1111
     12 C10        -2.9102   -0.3319    3.7681 C.3       1 <0>        -0.0901
     13 C11        -4.2653   -0.8654    4.2274 C.3       1 <0>        -0.0932
     14 C12        -5.2940   -0.7960    3.1019 C.3       1 <0>        -0.1046
     15 C13        -5.2567    0.5202    2.3416 C.3       1 <0>        -0.1051
     16 C14        -6.6746   -0.9929    3.6880 C.2       1 <0>         0.5187
     17 O2         -6.8076   -1.1690    4.8806 O.2       1 <0>        -0.5410
     18 N2         -7.7568   -0.9727    2.8850 N.am      1 <0>        -0.8559
     19 O3          0.4037   -0.5431   -1.2792 O.3       1 <0>        -0.2824
     20 C15         0.2659   -1.8841   -1.4536 C.ar      1 <0>         0.1445
     21 C16        -0.1469   -2.6830   -0.3973 C.ar      1 <0>        -0.1714
     22 C17        -0.2863   -4.0456   -0.5765 C.ar      1 <0>        -0.0764
     23 C18        -0.0141   -4.6137   -1.8084 C.ar      1 <0>        -0.0698
     24 C19         0.3981   -3.8186   -2.8631 C.ar      1 <0>        -0.0742
     25 C20         0.5324   -2.4547   -2.6896 C.ar      1 <0>        -0.1387
     26 Cl1        -0.1895   -6.3265   -2.0310 Cl        1 <0>        -0.0727
     27 H1          1.4853    1.6953   -0.2197 H         1 <0>         0.0833
     28 H2         -0.2196    1.9369   -0.6702 H         1 <0>         0.0760
     29 H3          0.2461    1.8680    1.0463 H         1 <0>         0.0826
     30 H4          1.0093   -0.4830    2.0114 H         1 <0>         0.0785
     31 H5          1.2500   -1.7812    0.8178 H         1 <0>         0.0853
     32 H6          2.2567   -0.3147    0.7528 H         1 <0>         0.0848
     33 H7         -0.9170    0.5024    2.3449 H         1 <0>         0.4001
     34 H8         -3.2037   -1.2366    1.8346 H         1 <0>         0.0938
     35 H9         -3.8952    0.8530    0.7027 H         1 <0>         0.0796
     36 H10        -2.3886    2.3833    2.0087 H         1 <0>         0.0638
     37 H11        -4.0724    2.9486    1.9719 H         1 <0>         0.0637
     38 H12        -3.0936    3.0887    4.2569 H         1 <0>         0.0623
     39 H13        -4.4831    1.9919    4.2021 H         1 <0>         0.0687
     40 H14        -1.5270    1.2539    4.2132 H         1 <0>         0.0585
     41 H15        -2.7120    0.9385    5.4877 H         1 <0>         0.0693
     42 H16        -2.1411   -1.0609    4.0831 H         1 <0>         0.0746
     43 H17        -4.1532   -1.9035    4.5509 H         1 <0>         0.0724
     44 H18        -4.6174   -0.2728    5.0757 H         1 <0>         0.0826
     45 H19        -5.1056   -1.6202    2.4019 H         1 <0>         0.0972
     46 H20        -5.5801    1.3362    2.9877 H         1 <0>         0.0780
     47 H21        -5.9593    0.4657    1.4991 H         1 <0>         0.0657
     48 H22        -7.6504   -0.8318    1.9312 H         1 <0>         0.4018
     49 H23        -8.6420   -1.0989    3.2609 H         1 <0>         0.4020
     50 H24        -0.3587   -2.2400    0.5646 H         1 <0>         0.1339
     51 H25        -0.6076   -4.6679    0.2456 H         1 <0>         0.1324
     52 H26         0.6105   -4.2639   -3.8238 H         1 <0>         0.1397
     53 H27         0.8496   -1.8337   -3.5144 H         1 <0>         0.1396
@<TRIPOS>BOND
     1    1    2 1
     2    1   27 1
     3    1   28 1
     4    1   29 1
     5    2    3 1
     6    2    4 1
     7    2   19 1
     8    3   30 1
     9    3   31 1
    10    3   32 1
    11    4    5 2
    12    4    6 am
    13    6    7 1
    14    6   33 1
    15    7   12 1
    16    7    8 1
    17    7   34 1
    18    8   15 1
    19    8    9 1
    20    8   35 1
    21    9   10 1
    22    9   36 1
    23    9   37 1
    24   10   11 1
    25   10   38 1
    26   10   39 1
    27   11   12 1
    28   11   40 1
    29   11   41 1
    30   12   13 1
    31   12   42 1
    32   13   14 1
    33   13   43 1
    34   13   44 1
    35   14   15 1
    36   14   16 1
    37   14   45 1
    38   15   46 1
    39   15   47 1
    40   16   17 2
    41   16   18 am
    42   18   48 1
    43   18   49 1
    44   19   20 1
    45   20   25 ar
    46   20   21 ar
    47   21   22 ar
    48   21   50 1
    49   22   23 ar
    50   22   51 1
    51   23   24 ar
    52   23   26 1
    53   24   25 ar
    54   24   52 1
    55   25   53 1
@<TRIPOS>MOLECULE
CHEMBL373601
   49    52     0     0     0
SMALL
USER_CHARGES

@<TRIPOS>ATOM
      1 C1          0.4531    1.4737    0.0515 C.3       1 <0>        -0.1384
      2 C2          0.2392   -0.0413    0.0486 C.3       1 <0>         0.0979
      3 C3          1.2624   -0.7026    0.9742 C.3       1 <0>        -0.1967
      4 C4         -1.1529   -0.3530    0.5345 C.2       1 <0>         0.4909
      5 O1         -1.9278   -0.9464   -0.1854 O.2       1 <0>        -0.5082
      6 N1         -1.5367    0.0278    1.7691 N.am      1 <0>        -0.7188
      7 C5         -2.8900   -0.2752    2.2414 C.3       1 <0>         0.1520
      8 C6         -3.8528    0.8091    1.7535 C.3       1 <0>        -0.0960
      9 C7         -3.4191    2.1652    2.3209 C.3       1 <0>        -0.1465
     10 C8         -3.4628    2.0954    3.8506 C.3       1 <0>         0.1053
     11 C9         -2.4671    1.0338    4.3273 C.3       1 <0>        -0.1501
     12 C10        -2.8941   -0.3286    3.7702 C.3       1 <0>        -0.0936
     13 C11        -4.3126   -0.6334    4.2641 C.3       1 <0>        -0.1218
     14 C12        -5.2499    0.4810    3.7894 C.3       1 <0>         0.2967
     15 C13        -5.2661    0.4968    2.2577 C.3       1 <0>        -0.1630
     16 O2         -4.7796    1.7395    4.2738 O.3       1 <0>        -0.3945
     17 O3         -6.5700    0.2366    4.2791 O.3       1 <0>        -0.5345
     18 O4          0.4037   -0.5431   -1.2792 O.3       1 <0>        -0.2820
     19 C14         0.2659   -1.8840   -1.4536 C.ar      1 <0>         0.1437
     20 C15        -0.1468   -2.6830   -0.3973 C.ar      1 <0>        -0.1721
     21 C16        -0.2863   -4.0456   -0.5765 C.ar      1 <0>        -0.0762
     22 C17        -0.0141   -4.6137   -1.8084 C.ar      1 <0>        -0.0694
     23 C18         0.3982   -3.8186   -2.8631 C.ar      1 <0>        -0.0739
     24 C19         0.5324   -2.4547   -2.6896 C.ar      1 <0>        -0.1381
     25 Cl1        -0.1895   -6.3265   -2.0310 Cl        1 <0>        -0.0720
     26 H1          1.4853    1.6954   -0.2197 H         1 <0>         0.0845
     27 H2         -0.2197    1.9369   -0.6702 H         1 <0>         0.0764
     28 H3          0.2461    1.8680    1.0463 H         1 <0>         0.0820
     29 H4          1.0094   -0.4829    2.0114 H         1 <0>         0.0780
     30 H5          1.2501   -1.7812    0.8178 H         1 <0>         0.0858
     31 H6          2.2567   -0.3147    0.7528 H         1 <0>         0.0856
     32 H7         -0.9170    0.5024    2.3449 H         1 <0>         0.3998
     33 H8         -3.2039   -1.2407    1.8448 H         1 <0>         0.0957
     34 H9         -3.8503    0.8383    0.6639 H         1 <0>         0.0873
     35 H10        -2.4039    2.3904    1.9942 H         1 <0>         0.0771
     36 H11        -4.0988    2.9421    1.9709 H         1 <0>         0.0766
     37 H12        -3.1955    3.0662    4.2679 H         1 <0>         0.1100
     38 H13        -1.4690    1.2801    3.9650 H         1 <0>         0.0753
     39 H14        -2.4642    0.9985    5.4167 H         1 <0>         0.0834
     40 H15        -2.2019   -1.0981    4.1122 H         1 <0>         0.0930
     41 H16        -4.6442   -1.5883    3.8563 H         1 <0>         0.0851
     42 H17        -4.3188   -0.6769    5.3532 H         1 <0>         0.0873
     43 H18        -5.9569    1.2636    1.9073 H         1 <0>         0.0792
     44 H19        -5.5797   -0.4785    1.8854 H         1 <0>         0.0850
     45 H20        -7.2172    0.9051    4.0159 H         1 <0>         0.3862
     46 H21        -0.3587   -2.2400    0.5646 H         1 <0>         0.1332
     47 H22        -0.6076   -4.6679    0.2456 H         1 <0>         0.1327
     48 H23         0.6105   -4.2639   -3.8238 H         1 <0>         0.1402
     49 H24         0.8496   -1.8337   -3.5144 H         1 <0>         0.1399
@<TRIPOS>BOND
     1    1    2 1
     2    1   26 1
     3    1   27 1
     4    1   28 1
     5    2    3 1
     6    2    4 1
     7    2   18 1
     8    3   29 1
     9    3   30 1
    10    3   31 1
    11    4    5 2
    12    4    6 am
    13    6    7 1
    14    6   32 1
    15    7   12 1
    16    7    8 1
    17    7   33 1
    18    8   15 1
    19    8    9 1
    20    8   34 1
    21    9   10 1
    22    9   35 1
    23    9   36 1
    24   10   16 1
    25   10   11 1
    26   10   37 1
    27   11   12 1
    28   11   38 1
    29   11   39 1
    30   12   13 1
    31   12   40 1
    32   13   14 1
    33   13   41 1
    34   13   42 1
    35   14   15 1
    36   14   16 1
    37   14   17 1
    38   15   43 1
    39   15   44 1
    40   17   45 1
    41   18   19 1
    42   19   24 ar
    43   19   20 ar
    44   20   21 ar
    45   20   46 1
    46   21   22 ar
    47   21   47 1
    48   22   23 ar
    49   22   25 1
    50   23   24 ar
    51   23   48 1
    52   24   49 1
@<TRIPOS>MOLECULE
CHEMBL260922
   48    50     0     0     0
SMALL
USER_CHARGES

@<TRIPOS>ATOM
      1 C1          0.7766    2.0010    0.1408 C.3       1 <0>        -0.1398
      2 C2          0.3642    0.5442   -0.0795 C.3       1 <0>        -0.0789
      3 C3         -1.1497    0.4681   -0.2901 C.3       1 <0>        -0.1104
      4 C4         -1.8662    1.0513    0.9301 C.3       1 <0>        -0.1402
      5 C5         -1.5085    0.2259    2.1700 C.3       1 <0>         0.0751
      6 N1         -0.0457    0.1733    2.2973 N.am      1 <0>        -0.5870
      7 C6          0.7472   -0.2869    1.1491 C.3       1 <0>         0.1185
      8 C7          0.5574    0.5406    3.4452 C.2       1 <0>         0.5730
      9 O1          1.7679    0.4897    3.5389 O.2       1 <0>        -0.5314
     10 C8         -0.2555    1.0064    4.5931 C.ar      1 <0>         0.0873
     11 C9          0.3291    1.8024    5.5756 C.ar      1 <0>        -0.1088
     12 C10        -0.4441    2.2304    6.6432 C.ar      1 <0>        -0.0748
     13 C11        -1.7755    1.8473    6.6910 C.ar      1 <0>        -0.1217
     14 C12        -2.2908    1.0541    5.6785 C.ar      1 <0>         0.1202
     15 N2         -1.5358    0.6664    4.6737 N.ar      1 <0>        -0.4458
     16 C13        -3.7375    0.6351    5.7260 C.3       1 <0>         0.1186
     17 O2         -4.3521    1.1768    6.8969 O.3       1 <0>        -0.3125
     18 C14        -5.6671    0.8911    7.0922 C.ar      1 <0>         0.1193
     19 C15        -6.6447    1.7270    6.5711 C.ar      1 <0>        -0.0329
     20 C16        -7.9812    1.4345    6.7710 C.ar      1 <0>        -0.0860
     21 C17        -8.3442    0.3098    7.4904 C.ar      1 <0>        -0.0169
     22 C18        -7.3713   -0.5247    8.0112 C.ar      1 <0>        -0.0858
     23 C19        -6.0336   -0.2398    7.8081 C.ar      1 <0>        -0.0330
     24 Cl1        -4.8135   -1.2919    8.4548 Cl        1 <0>        -0.0248
     25 Cl2       -10.0230   -0.0546    7.7403 Cl        1 <0>        -0.0344
     26 Cl3        -6.1899    3.1390    5.6694 Cl        1 <0>        -0.0255
     27 C20         1.0805   -0.0084   -1.3133 C.3       1 <0>        -0.1407
     28 H1          1.8545    2.0543    0.2936 H         1 <0>         0.0554
     29 H2          0.5039    2.5920   -0.7336 H         1 <0>         0.0555
     30 H3          0.2652    2.3946    1.0192 H         1 <0>         0.0554
     31 H4         -1.4219    1.0387   -1.1781 H         1 <0>         0.0653
     32 H5         -1.4462   -0.5724   -0.4223 H         1 <0>         0.0645
     33 H6         -1.5514    2.0844    1.0774 H         1 <0>         0.0670
     34 H7         -2.9438    1.0183    0.7694 H         1 <0>         0.0740
     35 H8         -1.9357    0.6945    3.0566 H         1 <0>         0.1393
     36 H9         -1.9025   -0.7846    2.0625 H         1 <0>         0.0668
     37 H10         0.5371   -1.3393    0.9583 H         1 <0>         0.0701
     38 H11         1.8082   -0.1568    1.3620 H         1 <0>         0.0937
     39 H12         1.3700    2.0816    5.5066 H         1 <0>         0.1499
     40 H13        -0.0188    2.8480    7.4205 H         1 <0>         0.1477
     41 H14        -2.4049    2.1637    7.5097 H         1 <0>         0.1517
     42 H15        -4.2527    1.0066    4.8402 H         1 <0>         0.0852
     43 H16        -3.8000   -0.4528    5.7531 H         1 <0>         0.0862
     44 H17        -8.7423    2.0847    6.3657 H         1 <0>         0.1578
     45 H18        -7.6570   -1.4020    8.5727 H         1 <0>         0.1579
     46 H19         2.1586    0.0449   -1.1618 H         1 <0>         0.0587
     47 H20         0.7864   -1.0462   -1.4698 H         1 <0>         0.0574
     48 H21         0.8068    0.5826   -2.1874 H         1 <0>         0.0601
@<TRIPOS>BOND
     1    1    2 1
     2    1   28 1
     3    1   29 1
     4    1   30 1
     5    2    7 1
     6    2    3 1
     7    2   27 1
     8    3    4 1
     9    3   31 1
    10    3   32 1
    11    4    5 1
    12    4   33 1
    13    4   34 1
    14    5    6 1
    15    5   35 1
    16    5   36 1
    17    6    7 1
    18    6    8 am
    19    7   37 1
    20    7   38 1
    21    8    9 2
    22    8   10 1
    23   10   15 ar
    24   10   11 ar
    25   11   12 ar
    26   11   39 1
    27   12   13 ar
    28   12   40 1
    29   13   14 ar
    30   13   41 1
    31   14   15 ar
    32   14   16 1
    33   16   17 1
    34   16   42 1
    35   16   43 1
    36   17   18 1
    37   18   23 ar
    38   18   19 ar
    39   19   20 ar
    40   19   26 1
    41   20   21 ar
    42   20   44 1
    43   21   22 ar
    44   21   25 1
    45   22   23 ar
    46   22   45 1
    47   23   24 1
    48   27   46 1
    49   27   47 1
    50   27   48 1
@<TRIPOS>MOLECULE
CHEMBL550036
   59    63     0     0     0
SMALL
USER_CHARGES

@<TRIPOS>ATOM
      1 C1         -0.0187    1.5258    0.0104 C.3       1 <0>        -0.1545
      2 C2          0.0021   -0.0041    0.0020 C.3       1 <0>        -0.0391
      3 C3          0.7421   -0.5109    1.2415 C.3       1 <0>        -0.1599
      4 C4         -1.4333   -0.5336    0.0129 C.3       1 <0>        -0.0345
      5 C5         -2.1387   -0.0476    1.2528 C.2       1 <0>         0.3018
      6 N1         -2.8211    1.0569    1.3568 N.2       1 <0>        -0.5095
      7 C6         -3.3144    1.1779    2.6021 C.2       1 <0>         0.3027
      8 N2         -2.9419    0.1361    3.3031 N.2       1 <0>        -0.3289
      9 O1         -2.1745   -0.6813    2.4321 O.3       1 <0>        -0.0944
     10 C7         -4.1431    2.3051    3.0995 C.ar      1 <0>         0.1797
     11 C8         -4.5851    2.3067    4.4200 C.ar      1 <0>        -0.1275
     12 C9         -5.3567    3.3648    4.8700 C.ar      1 <0>        -0.0753
     13 C10        -5.6604    4.3869    3.9825 C.ar      1 <0>        -0.1489
     14 C11        -5.1878    4.3204    2.6842 C.ar      1 <0>         0.1037
     15 N3         -4.4514    3.3043    2.2841 N.ar      1 <0>        -0.4384
     16 C12         0.7182   -0.4975   -1.2568 C.3       1 <0>        -0.1324
     17 C13         2.1320    0.0241   -1.2675 C.2       1 <0>         0.5162
     18 O2          2.5279    0.7218   -0.3579 O.2       1 <0>        -0.5260
     19 N4          2.9565   -0.2847   -2.2879 N.am      1 <0>        -0.7252
     20 C14         4.3309    0.2224   -2.2983 C.3       1 <0>         0.1584
     21 C15         4.3512    1.6287   -2.9006 C.3       1 <0>        -0.0945
     22 C16         3.8155    1.5778   -4.3329 C.3       1 <0>        -0.1061
     23 C17         4.6950    0.6502   -5.1737 C.3       1 <0>        -0.0873
     24 C18         6.1303    1.1798   -5.1845 C.3       1 <0>        -0.1085
     25 C19         6.6660    1.2307   -3.7523 C.3       1 <0>        -0.0885
     26 C20         5.7865    2.1583   -2.9115 C.3       1 <0>        -0.1071
     27 C21         6.6458   -0.1756   -3.1500 C.3       1 <0>        -0.1057
     28 C22         5.2104   -0.7052   -3.1391 C.3       1 <0>        -0.0929
     29 C23         4.6747   -0.7561   -4.5714 C.3       1 <0>        -0.1089
     30 H1          1.0039    1.9031    0.0027 H         1 <0>         0.0875
     31 H2         -0.5459    1.8868   -0.8726 H         1 <0>         0.0549
     32 H3         -0.5289    1.8773    0.9072 H         1 <0>         0.0527
     33 H4          0.2319   -0.1594    2.1383 H         1 <0>         0.0490
     34 H5          0.7568   -1.6008    1.2356 H         1 <0>         0.0542
     35 H6          1.7647   -0.1336    1.2338 H         1 <0>         0.0918
     36 H7         -1.9605   -0.1726   -0.8702 H         1 <0>         0.1169
     37 H8         -1.4185   -1.6235    0.0069 H         1 <0>         0.1068
     38 H9         -4.3299    1.4939    5.0839 H         1 <0>         0.1450
     39 H10        -5.7142    3.3936    5.8887 H         1 <0>         0.1466
     40 H11        -6.2604    5.2262    4.3020 H         1 <0>         0.1453
     41 H12        -5.4226    5.1141    1.9905 H         1 <0>         0.1680
     42 H13         0.7330   -1.5874   -1.2628 H         1 <0>         0.0987
     43 H14         0.1910   -0.1364   -2.1398 H         1 <0>         0.0995
     44 H15         2.6400   -0.8427   -3.0154 H         1 <0>         0.3985
     45 H16         4.7126    0.2586   -1.2779 H         1 <0>         0.0877
     46 H17         3.7246    2.2895   -2.3016 H         1 <0>         0.0746
     47 H18         2.7929    1.2006   -4.3251 H         1 <0>         0.0606
     48 H19         3.8299    2.5797   -4.7619 H         1 <0>         0.0622
     49 H20         4.3133    0.6140   -6.1940 H         1 <0>         0.0703
     50 H21         6.7569    0.5190   -5.7835 H         1 <0>         0.0621
     51 H22         6.1447    2.1817   -5.6136 H         1 <0>         0.0624
     52 H23         7.6886    1.6080   -3.7600 H         1 <0>         0.0719
     53 H24         5.8009    3.1602   -3.3406 H         1 <0>         0.0653
     54 H25         6.1682    2.1945   -1.8911 H         1 <0>         0.0640
     55 H26         7.2724   -0.8365   -3.7490 H         1 <0>         0.0679
     56 H27         7.0275   -0.1394   -2.1296 H         1 <0>         0.0651
     57 H28         5.1960   -1.7071   -2.7100 H         1 <0>         0.0756
     58 H29         3.6522   -1.1334   -4.5636 H         1 <0>         0.0592
     59 H30         5.3013   -1.4169   -5.1704 H         1 <0>         0.0671
@<TRIPOS>BOND
     1    1    2 1
     2    1   30 1
     3    1   31 1
     4    1   32 1
     5    2    3 1
     6    2    4 1
     7    2   16 1
     8    3   33 1
     9    3   34 1
    10    3   35 1
    11    4    5 1
    12    4   36 1
    13    4   37 1
    14    5    9 1
    15    5    6 2
    16    6    7 1
    17    7    8 2
    18    7   10 1
    19    8    9 1
    20   10   15 ar
    21   10   11 ar
    22   11   12 ar
    23   11   38 1
    24   12   13 ar
    25   12   39 1
    26   13   14 ar
    27   13   40 1
    28   14   15 ar
    29   14   41 1
    30   16   17 1
    31   16   42 1
    32   16   43 1
    33   17   18 2
    34   17   19 am
    35   19   20 1
    36   19   44 1
    37   20   28 1
    38   20   21 1
    39   20   45 1
    40   21   26 1
    41   21   22 1
    42   21   46 1
    43   22   23 1
    44   22   47 1
    45   22   48 1
    46   23   29 1
    47   23   24 1
    48   23   49 1
    49   24   25 1
    50   24   50 1
    51   24   51 1
    52   25   26 1
    53   25   27 1
    54   25   52 1
    55   26   53 1
    56   26   54 1
    57   27   28 1
    58   27   55 1
    59   27   56 1
    60   28   29 1
    61   28   57 1
    62   29   58 1
    63   29   59 1
@<TRIPOS>MOLECULE
CHEMBL461292
   48    49     0     0     0
SMALL
USER_CHARGES

@<TRIPOS>ATOM
      1 C1          0.2530    0.9679    0.5703 C.3       1 <0>        -0.1809
      2 C2         -0.1282   -0.4302    0.0797 C.3       1 <0>         0.0894
      3 N1          0.5170   -0.6879   -1.2101 N.am      1 <0>        -0.6039
      4 C3          1.9407   -1.0293   -1.2617 C.3       1 <0>         0.1550
      5 C4          2.6855    0.0142   -2.0967 C.3       1 <0>        -0.1350
      6 C5          4.1724   -0.3423   -2.1506 C.3       1 <0>        -0.1142
      7 C6          4.3432   -1.7224   -2.7885 C.3       1 <0>        -0.1220
      8 C7          3.5984   -2.7659   -1.9535 C.3       1 <0>        -0.1145
      9 C8          2.1115   -2.4094   -1.8996 C.3       1 <0>        -0.1381
     10 C9         -0.1992   -0.6110   -2.3492 C.2       1 <0>         0.5597
     11 O1          0.3159   -0.8996   -3.4117 O.2       1 <0>        -0.5212
     12 C10        -1.6114   -0.1755   -2.3065 C.ar      1 <0>        -0.1170
     13 C11        -2.0136    0.8115   -1.4052 C.ar      1 <0>        -0.1023
     14 C12        -3.3328    1.2136   -1.3708 C.ar      1 <0>        -0.1028
     15 C13        -4.2565    0.6405   -2.2268 C.ar      1 <0>        -0.1132
     16 C14        -3.8645   -0.3386   -3.1223 C.ar      1 <0>        -0.0977
     17 C15        -2.5471   -0.7454   -3.1713 C.ar      1 <0>        -0.0622
     18 C16        -5.6960    1.0845   -2.1833 C.3       1 <0>         0.1442
     19 C17        -6.3182    0.9344   -3.5730 C.3       1 <0>        -0.1502
     20 C18        -6.4663    0.2197   -1.1835 C.3       1 <0>         0.4263
     21 F1         -5.8974    0.3569    0.0872 F         1 <0>        -0.1807
     22 F2         -7.8026    0.6318   -1.1430 F         1 <0>        -0.1714
     23 F3         -6.4034   -1.1203   -1.5804 F         1 <0>        -0.1734
     24 O2         -5.7603    2.4532   -1.7779 O.3       1 <0>        -0.5191
     25 H1          1.2596    0.9446    0.9878 H         1 <0>         0.0655
     26 H2          0.2223    1.6671   -0.2654 H         1 <0>         0.0659
     27 H3         -0.4514    1.2882    1.3380 H         1 <0>         0.0732
     28 H4          0.2022   -1.1728    0.8060 H         1 <0>         0.0797
     29 H5         -1.2102   -0.4920   -0.0366 H         1 <0>         0.0927
     30 H6          2.3478   -1.0435   -0.2506 H         1 <0>         0.0860
     31 H7          2.2784    0.0284   -3.1078 H         1 <0>         0.0833
     32 H8          2.5638    0.9975   -1.6423 H         1 <0>         0.0599
     33 H9          4.7029    0.4011   -2.7455 H         1 <0>         0.0648
     34 H10         4.5795   -0.3564   -1.1396 H         1 <0>         0.0606
     35 H11         3.9361   -1.7082   -3.7996 H         1 <0>         0.0649
     36 H12         5.4025   -1.9764   -2.8269 H         1 <0>         0.0622
     37 H13         3.7201   -3.7492   -2.4079 H         1 <0>         0.0648
     38 H14         4.0055   -2.7801   -0.9424 H         1 <0>         0.0600
     39 H15         1.5810   -3.1529   -1.3047 H         1 <0>         0.0591
     40 H16         1.7044   -2.3953   -2.9106 H         1 <0>         0.0890
     41 H17        -1.2937    1.2590   -0.7360 H         1 <0>         0.1509
     42 H18        -3.6453    1.9772   -0.6739 H         1 <0>         0.1307
     43 H19        -4.5905   -0.7822   -3.7876 H         1 <0>         0.1392
     44 H20        -2.2414   -1.5063   -3.8741 H         1 <0>         0.1392
     45 H21        -6.2691   -0.1097   -3.8822 H         1 <0>         0.0897
     46 H22        -7.3593    1.2555   -3.5415 H         1 <0>         0.0845
     47 H23        -5.7694    1.5505   -4.2852 H         1 <0>         0.0929
     48 H24        -5.3828    2.6227   -0.9038 H         1 <0>         0.3863
@<TRIPOS>BOND
     1    1    2 1
     2    1   25 1
     3    1   26 1
     4    1   27 1
     5    2    3 1
     6    2   28 1
     7    2   29 1
     8    3    4 1
     9    3   10 am
    10    4    9 1
    11    4    5 1
    12    4   30 1
    13    5    6 1
    14    5   31 1
    15    5   32 1
    16    6    7 1
    17    6   33 1
    18    6   34 1
    19    7    8 1
    20    7   35 1
    21    7   36 1
    22    8    9 1
    23    8   37 1
    24    8   38 1
    25    9   39 1
    26    9   40 1
    27   10   11 2
    28   10   12 1
    29   12   17 ar
    30   12   13 ar
    31   13   14 ar
    32   13   41 1
    33   14   15 ar
    34   14   42 1
    35   15   16 ar
    36   15   18 1
    37   16   17 ar
    38   16   43 1
    39   17   44 1
    40   18   19 1
    41   18   20 1
    42   18   24 1
    43   19   45 1
    44   19   46 1
    45   19   47 1
    46   20   21 1
    47   20   22 1
    48   20   23 1
    49   24   48 1
@<TRIPOS>MOLECULE
CHEMBL564461
   45    47     0     0     0
SMALL
USER_CHARGES

@<TRIPOS>ATOM
      1 C1         -0.0173    1.4248    0.0099 C.3       1 <0>         0.0219
      2 O1          0.0021   -0.0041    0.0020 O.3       1 <0>        -0.3103
      3 C2         -1.2003   -0.6375    0.0101 C.ar      1 <0>         0.1836
      4 C3         -2.3746    0.1011    0.0195 C.ar      1 <0>        -0.2296
      5 C4         -3.5956   -0.5451    0.0272 C.ar      1 <0>         0.0218
      6 C5         -3.6478   -1.9268    0.0260 C.ar      1 <0>        -0.7164
      7 C6         -2.4788   -2.6651    0.0172 C.ar      1 <0>         0.0185
      8 C7         -1.2554   -2.0237    0.0032 C.ar      1 <0>        -0.1714
      9 S1         -5.2067   -2.7480    0.0365 S.o2      1 <0>         2.6944
     10 O2         -4.9816   -4.0397    0.5843 O.2       1 <0>        -0.9545
     11 O3         -6.1424   -1.8361    0.5952 O.2       1 <0>        -0.9555
     12 N1         -5.6514   -2.9744   -1.5425 N.pl3     1 <0>        -1.0005
     13 C8         -6.4338   -1.9623   -2.2552 C.3       1 <0>         0.1196
     14 C9         -7.3149   -2.7099   -3.2623 C.3       1 <0>        -0.1008
     15 C10        -6.5902   -2.9069   -4.5595 C.2       1 <0>        -0.1364
     16 C11        -5.3865   -3.4218   -4.6456 C.2       1 <0>        -0.0822
     17 C12        -4.4795   -3.7722   -3.5079 C.3       1 <0>        -0.0943
     18 C13        -5.2648   -4.1973   -2.2691 C.3       1 <0>         0.1191
     19 C14        -4.8734   -3.6834   -6.0069 C.ar      1 <0>        -0.0562
     20 C15        -4.6291   -4.9923   -6.4241 C.ar      1 <0>        -0.1098
     21 C16        -4.1501   -5.2297   -7.6961 C.ar      1 <0>        -0.1176
     22 C17        -3.9117   -4.1733   -8.5570 C.ar      1 <0>        -0.1218
     23 C18        -4.1515   -2.8732   -8.1493 C.ar      1 <0>        -0.1185
     24 C19        -4.6368   -2.6228   -6.8822 C.ar      1 <0>        -0.1118
     25 H1          1.0053    1.8021    0.0021 H         1 <0>         0.1065
     26 H2         -0.5445    1.7859   -0.8732 H         1 <0>         0.0607
     27 H3         -0.5275    1.7763    0.9067 H         1 <0>         0.0613
     28 H4         -2.3343    1.1803    0.0211 H         1 <0>         0.1388
     29 H5         -4.5101    0.0294    0.0345 H         1 <0>         0.1424
     30 H6         -2.5223   -3.7443    0.0166 H         1 <0>         0.1466
     31 H7         -0.3427   -2.6008   -0.0082 H         1 <0>         0.1420
     32 H8         -7.0577   -1.4106   -1.5520 H         1 <0>         0.0961
     33 H9         -5.7673   -1.2777   -2.7798 H         1 <0>         0.0687
     34 H10        -7.5843   -3.6825   -2.8506 H         1 <0>         0.0891
     35 H11        -8.2224   -2.1335   -3.4422 H         1 <0>         0.0832
     36 H12        -7.0854   -2.6094   -5.4720 H         1 <0>         0.1116
     37 H13        -3.8259   -4.5896   -3.8127 H         1 <0>         0.0834
     38 H14        -3.8691   -2.9041   -3.2592 H         1 <0>         0.0842
     39 H15        -4.6394   -4.8239   -1.6333 H         1 <0>         0.0985
     40 H16        -6.1567   -4.7471   -2.5700 H         1 <0>         0.0851
     41 H17        -4.8141   -5.8177   -5.7527 H         1 <0>         0.1232
     42 H18        -3.9606   -6.2423   -8.0202 H         1 <0>         0.1231
     43 H19        -3.5365   -4.3644   -9.5515 H         1 <0>         0.1213
     44 H20        -3.9627   -2.0529   -8.8259 H         1 <0>         0.1221
     45 H21        -4.8285   -1.6078   -6.5669 H         1 <0>         0.1210
@<TRIPOS>BOND
     1    1    2 1
     2    1   25 1
     3    1   26 1
     4    1   27 1
     5    2    3 1
     6    3    8 ar
     7    3    4 ar
     8    4    5 ar
     9    4   28 1
    10    5    6 ar
    11    5   29 1
    12    6    7 ar
    13    6    9 1
    14    7    8 ar
    15    7   30 1
    16    8   31 1
    17    9   10 2
    18    9   11 2
    19    9   12 1
    20   12   18 1
    21   12   13 1
    22   13   14 1
    23   13   32 1
    24   13   33 1
    25   14   15 1
    26   14   34 1
    27   14   35 1
    28   15   16 2
    29   15   36 1
    30   16   17 1
    31   16   19 1
    32   17   18 1
    33   17   37 1
    34   17   38 1
    35   18   39 1
    36   18   40 1
    37   19   24 ar
    38   19   20 ar
    39   20   21 ar
    40   20   41 1
    41   21   22 ar
    42   21   42 1
    43   22   23 ar
    44   22   43 1
    45   23   24 ar
    46   23   44 1
    47   24   45 1
@<TRIPOS>MOLECULE
CHEMBL496714
   51    55     0     0     0
SMALL
USER_CHARGES

@<TRIPOS>ATOM
      1 C1         -1.0268    1.3455    0.2192 C.3       1 <0>         0.0643
      2 N1         -0.3678    0.0411    0.1162 N.pl3     1 <0>        -0.4625
      3 C2          0.1276   -0.5467   -1.0163 C.2       1 <0>         0.1961
      4 N2          0.6319   -1.7068   -0.6575 N.2       1 <0>        -0.2445
      5 N3          0.4820   -1.8721    0.6084 N.2       1 <0>        -0.2783
      6 C3         -0.1164   -0.8344    1.1283 C.2       1 <0>         0.2113
      7 C4         -0.4669   -0.6423    2.5813 C.3       1 <0>         0.0346
      8 C5         -0.4073   -1.9390    3.4059 C.3       1 <0>        -0.1064
      9 C6         -1.6788   -1.4505    4.1198 C.3       1 <0>        -0.1379
     10 C7         -1.9804   -0.6315    2.8537 C.3       1 <0>        -0.1317
     11 C8          0.2685    0.5114    3.2131 C.ar      1 <0>        -0.0617
     12 C9          1.6435    0.4640    3.3471 C.ar      1 <0>        -0.0888
     13 C10         2.3185    1.5219    3.9265 C.ar      1 <0>        -0.1055
     14 C11         1.6177    2.6283    4.3724 C.ar      1 <0>        -0.0311
     15 C12         0.2416    2.6751    4.2379 C.ar      1 <0>        -0.1074
     16 C13        -0.4317    1.6191    3.6533 C.ar      1 <0>        -0.1037
     17 Cl1         2.4648    3.9571    5.1007 Cl        1 <0>        -0.0643
     18 C14         0.1005    0.0157   -2.3834 C.ar      1 <0>         0.0086
     19 C15         0.2617    1.3885   -2.5786 C.ar      1 <0>        -0.0765
     20 C16         0.2363    1.9095   -3.8540 C.ar      1 <0>        -0.0960
     21 C17         0.0500    1.0703   -4.9463 C.ar      1 <0>         0.1265
     22 C18        -0.1113   -0.2963   -4.7570 C.ar      1 <0>        -0.1097
     23 C19        -0.0808   -0.8260   -3.4833 C.ar      1 <0>         0.0172
     24 Cl2        -0.2753   -2.5349   -3.2476 Cl        1 <0>        -0.0112
     25 N4          0.0245    1.6042   -6.2413 N.pl3     1 <0>        -0.3897
     26 C20        -0.7194    2.6744   -6.6672 C.2       1 <0>        -0.0054
     27 C21        -0.4427    2.8463   -7.9737 C.2       1 <0>        -0.0118
     28 N5          0.4449    1.9100   -8.3408 N.2       1 <0>        -0.4170
     29 C22         0.7365    1.1631   -7.3109 C.2       1 <0>         0.1119
     30 C23         1.6988    0.0034   -7.3095 C.3       1 <0>         0.5618
     31 F1          2.4889    0.0516   -8.4630 F         1 <0>        -0.1454
     32 F2          2.5192    0.0796   -6.1789 F         1 <0>        -0.1636
     33 F3          0.9817   -1.1976   -7.2853 F         1 <0>        -0.1637
     34 H1         -0.2974    2.0985    0.5177 H         1 <0>         0.0870
     35 H2         -1.4523    1.6149   -0.7474 H         1 <0>         0.0946
     36 H3         -1.8210    1.2935    0.9640 H         1 <0>         0.0951
     37 H4         -0.5588   -2.8409    2.8129 H         1 <0>         0.1008
     38 H5          0.4633   -2.0016    4.0588 H         1 <0>         0.0801
     39 H6         -2.4036   -2.2418    4.3109 H         1 <0>         0.0792
     40 H7         -1.4780   -0.8377    4.9987 H         1 <0>         0.0872
     41 H8         -2.3796    0.3614    3.0606 H         1 <0>         0.0809
     42 H9         -2.5618   -1.1760    2.1097 H         1 <0>         0.0904
     43 H10         2.1905   -0.3999    2.9994 H         1 <0>         0.1341
     44 H11         3.3928    1.4846    4.0315 H         1 <0>         0.1367
     45 H12        -0.3061    3.5385    4.5861 H         1 <0>         0.1372
     46 H13        -1.5055    1.6576    3.5440 H         1 <0>         0.1375
     47 H14         0.4058    2.0418   -1.7307 H         1 <0>         0.1471
     48 H15         0.3611    2.9716   -4.0052 H         1 <0>         0.1495
     49 H16        -0.2566   -0.9453   -5.6079 H         1 <0>         0.1552
     50 H17        -1.3974    3.2657   -6.0696 H         1 <0>         0.1960
     51 H18        -0.8630    3.6066   -8.6154 H         1 <0>         0.1933
@<TRIPOS>BOND
     1    1    2 1
     2    1   34 1
     3    1   35 1
     4    1   36 1
     5    2    6 1
     6    2    3 1
     7    3    4 2
     8    3   18 1
     9    4    5 1
    10    5    6 2
    11    6    7 1
    12    7   10 1
    13    7    8 1
    14    7   11 1
    15    8    9 1
    16    8   37 1
    17    8   38 1
    18    9   10 1
    19    9   39 1
    20    9   40 1
    21   10   41 1
    22   10   42 1
    23   11   16 ar
    24   11   12 ar
    25   12   13 ar
    26   12   43 1
    27   13   14 ar
    28   13   44 1
    29   14   15 ar
    30   14   17 1
    31   15   16 ar
    32   15   45 1
    33   16   46 1
    34   18   23 ar
    35   18   19 ar
    36   19   20 ar
    37   19   47 1
    38   20   21 ar
    39   20   48 1
    40   21   22 ar
    41   21   25 1
    42   22   23 ar
    43   22   49 1
    44   23   24 1
    45   25   29 1
    46   25   26 1
    47   26   27 2
    48   26   50 1
    49   27   28 1
    50   27   51 1
    51   28   29 2
    52   29   30 1
    53   30   31 1
    54   30   32 1
    55   30   33 1
@<TRIPOS>MOLECULE
CHEMBL455894
   51    54     0     0     0
SMALL
USER_CHARGES

@<TRIPOS>ATOM
      1 C1         -0.0187    1.5258    0.0104 C.3       1 <0>        -0.1606
      2 C2          0.0021   -0.0041    0.0020 C.3       1 <0>         0.1866
      3 H1          0.5123   -0.3556   -0.8948 H         1 <0>         0.1141
      4 C3          0.7309   -0.5033    1.2229 C.ar      1 <0>        -0.1125
      5 C4          0.0802   -0.5583    2.4414 C.ar      1 <0>        -0.0870
      6 C5          0.7475   -1.0164    3.5616 C.ar      1 <0>        -0.1469
      7 C6          2.0682   -1.4203    3.4632 C.ar      1 <0>         0.1068
      8 C7          2.7189   -1.3647    2.2423 C.ar      1 <0>        -0.1465
      9 C8          2.0480   -0.9112    1.1224 C.ar      1 <0>        -0.0708
     10 F1          2.7216   -1.8678    4.5577 F         1 <0>        -0.1350
     11 N1         -1.3723   -0.5112    0.0124 N.pl3     1 <0>        -0.6367
     12 C9         -2.0590   -0.6443   -1.1585 C.2       1 <0>         0.4763
     13 N2         -1.6229   -0.3658   -2.3731 N.2       1 <0>        -0.6864
     14 C10        -2.3336   -0.5158   -3.4621 C.2       1 <0>         0.5500
     15 O1         -1.9211   -0.2563   -4.5757 O.2       1 <0>        -0.4470
     16 C11        -3.7337   -1.0512   -3.1842 C.3       1 <0>        -0.0637
     17 S1         -3.6342   -1.2044   -1.3532 S.3       1 <0>        -0.0807
     18 C12        -3.9521   -2.4146   -3.8433 C.3       1 <0>        -0.1249
     19 C13        -4.7937   -0.0652   -3.6028 C.ar      1 <0>        -0.0359
     20 C14        -5.7409   -0.4298   -4.5431 C.ar      1 <0>        -0.1018
     21 C15        -6.7139    0.4681   -4.9306 C.ar      1 <0>        -0.0521
     22 C16        -6.7415    1.7468   -4.3719 C.ar      1 <0>        -0.1253
     23 C17        -5.7830    2.1083   -3.4238 C.ar      1 <0>        -0.0801
     24 C18        -4.8188    1.1989   -3.0409 C.ar      1 <0>        -0.1051
     25 C19        -7.7811    2.7144   -4.7829 C.2       1 <0>         0.5639
     26 O2         -8.6142    2.3969   -5.6090 O.2       1 <0>        -0.5287
     27 N3         -7.8050    3.9484   -4.2414 N.am      1 <0>        -0.6987
     28 C20        -8.8351    4.9071   -4.6487 C.3       1 <0>         0.0769
     29 C21        -8.3938    6.3476   -4.9151 C.3       1 <0>        -0.1917
     30 C22        -9.2004    6.0147   -3.6584 C.3       1 <0>        -0.1876
     31 H2          1.0039    1.9031    0.0027 H         1 <0>         0.0786
     32 H3         -0.5459    1.8868   -0.8726 H         1 <0>         0.0719
     33 H4         -0.5289    1.8773    0.9072 H         1 <0>         0.0632
     34 H5         -0.9498   -0.2429    2.5180 H         1 <0>         0.1304
     35 H6          0.2390   -1.0590    4.5135 H         1 <0>         0.1406
     36 H7          3.7492   -1.6791    2.1644 H         1 <0>         0.1417
     37 H8          2.5540   -0.8720    0.1690 H         1 <0>         0.1395
     38 H9         -1.7940   -0.7522    0.8520 H         1 <0>         0.4241
     39 H10        -3.2179   -3.1243   -3.4620 H         1 <0>         0.0761
     40 H11        -4.9560   -2.7722   -3.6145 H         1 <0>         0.0835
     41 H12        -3.8380   -2.3187   -4.9231 H         1 <0>         0.0922
     42 H13        -5.7182   -1.4195   -4.9750 H         1 <0>         0.1417
     43 H14        -7.4524    0.1823   -5.6650 H         1 <0>         0.1448
     44 H15        -5.7989    3.0962   -2.9877 H         1 <0>         0.1297
     45 H16        -4.0793    1.4759   -2.3041 H         1 <0>         0.1250
     46 H17        -7.1401    4.2017   -3.5821 H         1 <0>         0.4013
     47 H18        -9.6350    4.5026   -5.2688 H         1 <0>         0.1406
     48 H19        -7.3369    6.5820   -4.7874 H         1 <0>         0.0977
     49 H20        -8.9032    6.8911   -5.7109 H         1 <0>         0.1049
     50 H21       -10.2405    6.3392   -3.6273 H         1 <0>         0.1061
     51 H22        -8.6742    6.0301   -2.7039 H         1 <0>         0.0978
@<TRIPOS>BOND
     1    1    2 1
     2    1   31 1
     3    1   32 1
     4    1   33 1
     5    2    3 1
     6    2    4 1
     7    2   11 1
     8    4    9 ar
     9    4    5 ar
    10    5    6 ar
    11    5   34 1
    12    6    7 ar
    13    6   35 1
    14    7    8 ar
    15    7   10 1
    16    8    9 ar
    17    8   36 1
    18    9   37 1
    19   11   12 1
    20   11   38 1
    21   12   17 1
    22   12   13 2
    23   13   14 1
    24   14   15 2
    25   14   16 1
    26   16   17 1
    27   16   18 1
    28   16   19 1
    29   18   39 1
    30   18   40 1
    31   18   41 1
    32   19   24 ar
    33   19   20 ar
    34   20   21 ar
    35   20   42 1
    36   21   22 ar
    37   21   43 1
    38   22   23 ar
    39   22   25 1
    40   23   24 ar
    41   23   44 1
    42   24   45 1
    43   25   26 2
    44   25   27 am
    45   27   28 1
    46   27   46 1
    47   28   30 1
    48   28   29 1
    49   28   47 1
    50   29   30 1
    51   29   48 1
    52   29   49 1
    53   30   50 1
    54   30   51 1
@<TRIPOS>MOLECULE
CHEMBL455894__1
   50    53     0     0     0
SMALL
USER_CHARGES

@<TRIPOS>ATOM
      1 C1         -0.0187    1.5258    0.0104 C.3       1 <0>        -0.1530
      2 C2          0.0021   -0.0041    0.0020 C.3       1 <0>         0.1423
      3 H1         -1.0205   -0.3814    0.0098 H         1 <0>         0.0524
      4 C3          0.7074   -0.4901   -1.2379 C.ar      1 <0>        -0.0508
      5 C4          2.0890   -0.5106   -1.2833 C.ar      1 <0>        -0.0599
      6 C5          2.7369   -0.9565   -2.4196 C.ar      1 <0>        -0.1593
      7 C6          2.0019   -1.3828   -3.5128 C.ar      1 <0>         0.0770
      8 C7          0.6182   -1.3618   -3.4661 C.ar      1 <0>        -0.1573
      9 C8         -0.0275   -0.9204   -2.3268 C.ar      1 <0>        -0.0951
     10 F1          2.6342   -1.8185   -4.6244 F         1 <0>        -0.1495
     11 N1          0.7106   -0.4894    1.1889 N.2       1 <0>        -0.5988
     12 C9          0.2521   -0.1729    2.4338 C.2       1 <0>         0.3980
     13 N2         -0.8115    0.5510    2.7302 N.2       1 <0>        -0.7431
     14 C10        -1.2010    0.8205    3.9504 C.2       1 <0>         0.5331
     15 O1         -2.1828    1.4882    4.2113 O.2       1 <0>        -0.5518
     16 C11        -0.2920    0.2069    5.0094 C.3       1 <0>        -0.0811
     17 S1          0.9214   -0.6309    3.9086 S.3       1 <0>        -0.1599
     18 C12        -1.0456   -0.8048    5.8752 C.3       1 <0>        -0.1111
     19 C13         0.3643    1.2684    5.8542 C.ar      1 <0>         0.0020
     20 C14         0.1640    1.2806    7.2231 C.ar      1 <0>        -0.1194
     21 C15         0.7618    2.2496    8.0022 C.ar      1 <0>        -0.0552
     22 C16         1.5702    3.2189    7.4064 C.ar      1 <0>        -0.1502
     23 C17         1.7682    3.2009    6.0249 C.ar      1 <0>        -0.0816
     24 C18         1.1690    2.2230    5.2580 C.ar      1 <0>        -0.1040
     25 C19         2.2137    4.2606    8.2351 C.2       1 <0>         0.5706
     26 O2          2.0392    4.2741    9.4379 O.2       1 <0>        -0.5399
     27 N3          2.9938    5.1953    7.6568 N.am      1 <0>        -0.7023
     28 C20         3.6314    6.2275    8.4779 C.3       1 <0>         0.0814
     29 C21         3.6015    7.6649    7.9546 C.3       1 <0>        -0.1945
     30 C22         4.9094    6.8713    7.9366 C.3       1 <0>        -0.1901
     31 H2          1.0039    1.9031    0.0027 H         1 <0>         0.0427
     32 H3         -0.5459    1.8868   -0.8726 H         1 <0>         0.0388
     33 H4         -0.5289    1.8773    0.9072 H         1 <0>         0.0834
     34 H5          2.6621   -0.1777   -0.4306 H         1 <0>         0.1362
     35 H6          3.8163   -0.9721   -2.4550 H         1 <0>         0.1284
     36 H7          0.0439   -1.6937   -4.3184 H         1 <0>         0.1282
     37 H8         -1.1068   -0.9081   -2.2885 H         1 <0>         0.1272
     38 H9         -1.4423   -1.5995    5.2434 H         1 <0>         0.0660
     39 H10        -0.3644   -1.2317    6.6113 H         1 <0>         0.0645
     40 H11        -1.8669   -0.3039    6.3877 H         1 <0>         0.0727
     41 H12        -0.4621    0.5302    7.6828 H         1 <0>         0.1348
     42 H13         0.6044    2.2582    9.0706 H         1 <0>         0.1354
     43 H14         2.3925    3.9482    5.5578 H         1 <0>         0.1222
     44 H15         1.3249    2.2053    4.1895 H         1 <0>         0.1289
     45 H16         3.1330    5.1845    6.6969 H         1 <0>         0.4025
     46 H17         3.5585    6.0823    9.5557 H         1 <0>         0.1384
     47 H18         3.1074    7.8426    6.9994 H         1 <0>         0.0976
     48 H19         3.5088    8.4657    8.6882 H         1 <0>         0.1020
     49 H20         5.6772    7.1500    8.6583 H         1 <0>         0.1033
     50 H21         5.2758    6.5268    6.9695 H         1 <0>         0.0978
@<TRIPOS>BOND
     1    1    2 1
     2    1   31 1
     3    1   32 1
     4    1   33 1
     5    2    3 1
     6    2    4 1
     7    2   11 1
     8    4    9 ar
     9    4    5 ar
    10    5    6 ar
    11    5   34 1
    12    6    7 ar
    13    6   35 1
    14    7    8 ar
    15    7   10 1
    16    8    9 ar
    17    8   36 1
    18    9   37 1
    19   11   12 1
    20   12   17 1
    21   12   13 2
    22   13   14 1
    23   14   15 2
    24   14   16 1
    25   16   17 1
    26   16   18 1
    27   16   19 1
    28   18   38 1
    29   18   39 1
    30   18   40 1
    31   19   24 ar
    32   19   20 ar
    33   20   21 ar
    34   20   41 1
    35   21   22 ar
    36   21   42 1
    37   22   23 ar
    38   22   25 1
    39   23   24 ar
    40   23   43 1
    41   24   44 1
    42   25   26 2
    43   25   27 am
    44   27   28 1
    45   27   45 1
    46   28   30 1
    47   28   29 1
    48   28   46 1
    49   29   30 1
    50   29   47 1
    51   29   48 1
    52   30   49 1
    53   30   50 1
@<TRIPOS>MOLECULE
CHEMBL455894__2
   51    54     0     0     0
SMALL
USER_CHARGES

@<TRIPOS>ATOM
      1 C1         -0.0187    1.5258    0.0104 C.3       1 <0>        -0.1609
      2 C2          0.0021   -0.0041    0.0020 C.3       1 <0>         0.1867
      3 H1          0.5123   -0.3556   -0.8948 H         1 <0>         0.1139
      4 C3          0.7309   -0.5033    1.2229 C.ar      1 <0>        -0.1124
      5 C4          0.0802   -0.5583    2.4414 C.ar      1 <0>        -0.0870
      6 C5          0.7475   -1.0164    3.5616 C.ar      1 <0>        -0.1468
      7 C6          2.0682   -1.4203    3.4632 C.ar      1 <0>         0.1067
      8 C7          2.7189   -1.3647    2.2423 C.ar      1 <0>        -0.1466
      9 C8          2.0480   -0.9112    1.1224 C.ar      1 <0>        -0.0710
     10 F1          2.7216   -1.8678    4.5577 F         1 <0>        -0.1350
     11 N1         -1.3723   -0.5112    0.0124 N.pl3     1 <0>        -0.6368
     12 C9         -2.0590   -0.6443   -1.1585 C.2       1 <0>         0.4763
     13 N2         -1.6229   -0.3658   -2.3731 N.2       1 <0>        -0.6865
     14 C10        -2.3336   -0.5158   -3.4621 C.2       1 <0>         0.5500
     15 O1         -1.9211   -0.2563   -4.5757 O.2       1 <0>        -0.4470
     16 C11        -3.7337   -1.0512   -3.1842 C.3       1 <0>        -0.0636
     17 S1         -3.6342   -1.2044   -1.3532 S.3       1 <0>        -0.0807
     18 C12        -4.8099   -0.0501   -3.6092 C.3       1 <0>        -0.1244
     19 C13        -3.9488   -2.3941   -3.8334 C.ar      1 <0>        -0.0366
     20 C14        -4.9614   -2.5558   -4.7623 C.ar      1 <0>        -0.1017
     21 C15        -5.1636   -3.7825   -5.3603 C.ar      1 <0>        -0.0523
     22 C16        -4.3440   -4.8618   -5.0264 C.ar      1 <0>        -0.1253
     23 C17        -3.3244   -4.6919   -4.0885 C.ar      1 <0>        -0.0801
     24 C18        -3.1292   -3.4585   -3.5021 C.ar      1 <0>        -0.1050
     25 C19        -4.5553   -6.1793   -5.6629 C.2       1 <0>         0.5639
     26 O2         -5.4444   -6.3244   -6.4790 O.2       1 <0>        -0.5289
     27 N3         -3.7622   -7.2195   -5.3383 N.am      1 <0>        -0.6987
     28 C20        -3.9716   -8.5251   -5.9690 C.3       1 <0>         0.0769
     29 C21        -3.9153   -9.7615   -5.0695 C.3       1 <0>        -0.1914
     30 C22        -2.7731   -9.4730   -6.0457 C.3       1 <0>        -0.1878
     31 H2          1.0039    1.9031    0.0027 H         1 <0>         0.0786
     32 H3         -0.5459    1.8868   -0.8726 H         1 <0>         0.0724
     33 H4         -0.5289    1.8773    0.9072 H         1 <0>         0.0633
     34 H5         -0.9498   -0.2429    2.5180 H         1 <0>         0.1305
     35 H6          0.2390   -1.0590    4.5135 H         1 <0>         0.1406
     36 H7          3.7492   -1.6791    2.1644 H         1 <0>         0.1416
     37 H8          2.5540   -0.8720    0.1690 H         1 <0>         0.1394
     38 H9         -1.7940   -0.7522    0.8520 H         1 <0>         0.4241
     39 H10        -4.7290    0.1376   -4.6798 H         1 <0>         0.0923
     40 H11        -5.7952   -0.4590   -3.3854 H         1 <0>         0.0834
     41 H12        -4.6721    0.8842   -3.0650 H         1 <0>         0.0760
     42 H13        -5.5951   -1.7199   -5.0196 H         1 <0>         0.1417
     43 H14        -5.9546   -3.9075   -6.0850 H         1 <0>         0.1449
     44 H15        -2.6868   -5.5230   -3.8257 H         1 <0>         0.1297
     45 H16        -2.3378   -3.3245   -2.7795 H         1 <0>         0.1251
     46 H17        -3.0528   -7.1037   -4.6870 H         1 <0>         0.4013
     47 H18        -4.6776   -8.5382   -6.7994 H         1 <0>         0.1406
     48 H19        -3.7224   -9.6034   -4.0084 H         1 <0>         0.0975
     49 H20        -4.5844  -10.5882   -5.3078 H         1 <0>         0.1048
     50 H21        -2.6907  -10.1100   -6.9264 H         1 <0>         0.1062
     51 H22        -1.8287   -9.1252   -5.6269 H         1 <0>         0.0979
@<TRIPOS>BOND
     1    1    2 1
     2    1   31 1
     3    1   32 1
     4    1   33 1
     5    2    3 1
     6    2    4 1
     7    2   11 1
     8    4    9 ar
     9    4    5 ar
    10    5    6 ar
    11    5   34 1
    12    6    7 ar
    13    6   35 1
    14    7    8 ar
    15    7   10 1
    16    8    9 ar
    17    8   36 1
    18    9   37 1
    19   11   12 1
    20   11   38 1
    21   12   17 1
    22   12   13 2
    23   13   14 1
    24   14   15 2
    25   14   16 1
    26   16   17 1
    27   16   18 1
    28   16   19 1
    29   18   39 1
    30   18   40 1
    31   18   41 1
    32   19   24 ar
    33   19   20 ar
    34   20   21 ar
    35   20   42 1
    36   21   22 ar
    37   21   43 1
    38   22   23 ar
    39   22   25 1
    40   23   24 ar
    41   23   44 1
    42   24   45 1
    43   25   26 2
    44   25   27 am
    45   27   28 1
    46   27   46 1
    47   28   30 1
    48   28   29 1
    49   28   47 1
    50   29   30 1
    51   29   48 1
    52   29   49 1
    53   30   50 1
    54   30   51 1
@<TRIPOS>MOLECULE
CHEMBL455894__3
   50    53     0     0     0
SMALL
USER_CHARGES

@<TRIPOS>ATOM
      1 C1         -0.0187    1.5258    0.0104 C.3       1 <0>        -0.1533
      2 C2          0.0021   -0.0041    0.0020 C.3       1 <0>         0.1426
      3 H1         -1.0205   -0.3814    0.0098 H         1 <0>         0.0522
      4 C3          0.7074   -0.4901   -1.2379 C.ar      1 <0>        -0.0508
      5 C4          2.0890   -0.5106   -1.2833 C.ar      1 <0>        -0.0598
      6 C5          2.7369   -0.9565   -2.4196 C.ar      1 <0>        -0.1592
      7 C6          2.0019   -1.3828   -3.5128 C.ar      1 <0>         0.0769
      8 C7          0.6182   -1.3618   -3.4661 C.ar      1 <0>        -0.1574
      9 C8         -0.0275   -0.9204   -2.3268 C.ar      1 <0>        -0.0952
     10 F1          2.6342   -1.8185   -4.6244 F         1 <0>        -0.1495
     11 N1          0.7106   -0.4894    1.1889 N.2       1 <0>        -0.5989
     12 C9          0.2521   -0.1729    2.4338 C.2       1 <0>         0.3981
     13 N2         -0.8115    0.5510    2.7302 N.2       1 <0>        -0.7431
     14 C10        -1.2010    0.8205    3.9504 C.2       1 <0>         0.5331
     15 O1         -2.1828    1.4882    4.2113 O.2       1 <0>        -0.5517
     16 C11        -0.2920    0.2069    5.0094 C.3       1 <0>        -0.0809
     17 S1          0.9214   -0.6309    3.9086 S.3       1 <0>        -0.1601
     18 C12         0.3743    1.2846    5.8670 C.3       1 <0>        -0.1107
     19 C13        -1.0342   -0.7896    5.8622 C.ar      1 <0>         0.0013
     20 C14        -1.1240   -0.5946    7.2290 C.ar      1 <0>        -0.1193
     21 C15        -1.8020   -1.5030    8.0154 C.ar      1 <0>        -0.0554
     22 C16        -2.3981   -2.6206    7.4292 C.ar      1 <0>        -0.1502
     23 C17        -2.3038   -2.8114    6.0498 C.ar      1 <0>        -0.0818
     24 C18        -1.6277   -1.8924    5.2741 C.ar      1 <0>        -0.1037
     25 C19        -3.1259   -3.5985    8.2659 C.2       1 <0>         0.5707
     26 O2         -3.2060   -3.4300    9.4670 O.2       1 <0>        -0.5399
     27 N3         -3.7004   -4.6767    7.6968 N.am      1 <0>        -0.7023
     28 C20        -4.4215   -5.6456    8.5259 C.3       1 <0>         0.0814
     29 C21        -4.1822   -7.1308    8.2466 C.3       1 <0>        -0.1942
     30 C22        -5.5099   -6.4820    7.8500 C.3       1 <0>        -0.1905
     31 H2          1.0039    1.9031    0.0027 H         1 <0>         0.0430
     32 H3         -0.5459    1.8868   -0.8726 H         1 <0>         0.0388
     33 H4         -0.5289    1.8773    0.9072 H         1 <0>         0.0836
     34 H5          2.6621   -0.1777   -0.4306 H         1 <0>         0.1364
     35 H6          3.8163   -0.9721   -2.4550 H         1 <0>         0.1284
     36 H7          0.0439   -1.6937   -4.3184 H         1 <0>         0.1281
     37 H8         -1.1068   -0.9081   -2.2885 H         1 <0>         0.1270
     38 H9         -0.3919    1.8666    6.3792 H         1 <0>         0.0729
     39 H10         1.0247    0.8124    6.6033 H         1 <0>         0.0644
     40 H11         0.9648    1.9426    5.2296 H         1 <0>         0.0659
     41 H12        -0.6620    0.2705    7.6814 H         1 <0>         0.1348
     42 H13        -1.8711   -1.3498    9.0822 H         1 <0>         0.1354
     43 H14        -2.7628   -3.6742    5.5901 H         1 <0>         0.1222
     44 H15        -1.5577   -2.0365    4.2060 H         1 <0>         0.1290
     45 H16        -3.6364   -4.8112    6.7383 H         1 <0>         0.4025
     46 H17        -4.5858   -5.3480    9.5615 H         1 <0>         0.1384
     47 H18        -3.4883   -7.3869    7.4460 H         1 <0>         0.0976
     48 H19        -4.1889   -7.8106    9.0986 H         1 <0>         0.1020
     49 H20        -6.3901   -6.7350    8.4412 H         1 <0>         0.1033
     50 H21        -5.6894   -6.3113    6.7886 H         1 <0>         0.0979
@<TRIPOS>BOND
     1    1    2 1
     2    1   31 1
     3    1   32 1
     4    1   33 1
     5    2    3 1
     6    2    4 1
     7    2   11 1
     8    4    9 ar
     9    4    5 ar
    10    5    6 ar
    11    5   34 1
    12    6    7 ar
    13    6   35 1
    14    7    8 ar
    15    7   10 1
    16    8    9 ar
    17    8   36 1
    18    9   37 1
    19   11   12 1
    20   12   17 1
    21   12   13 2
    22   13   14 1
    23   14   15 2
    24   14   16 1
    25   16   17 1
    26   16   18 1
    27   16   19 1
    28   18   38 1
    29   18   39 1
    30   18   40 1
    31   19   24 ar
    32   19   20 ar
    33   20   21 ar
    34   20   41 1
    35   21   22 ar
    36   21   42 1
    37   22   23 ar
    38   22   25 1
    39   23   24 ar
    40   23   43 1
    41   24   44 1
    42   25   26 2
    43   25   27 am
    44   27   28 1
    45   27   45 1
    46   28   30 1
    47   28   29 1
    48   28   46 1
    49   29   30 1
    50   29   47 1
    51   29   48 1
    52   30   49 1
    53   30   50 1
@<TRIPOS>MOLECULE
CHEMBL455444
   61    64     0     0     0
SMALL
USER_CHARGES

@<TRIPOS>ATOM
      1 C1         -1.1752    0.3231    0.2320 C.3       1 <0>        -0.1539
      2 C2          0.0470   -0.5282   -0.1179 C.3       1 <0>         0.1375
      3 C3          0.7717   -0.9105    1.1469 C.ar      1 <0>        -0.0834
      4 C4          0.7283   -0.0711    2.2460 C.ar      1 <0>        -0.0862
      5 C5          1.3893   -0.4149    3.4069 C.ar      1 <0>        -0.0653
      6 C6          2.1033   -1.6131    3.4713 C.ar      1 <0>        -0.1385
      7 C7          2.1428   -2.4555    2.3584 C.ar      1 <0>        -0.0629
      8 C8          1.4726   -2.1020    1.2056 C.ar      1 <0>        -0.0897
      9 C9          2.8135   -1.9874    4.7101 C.2       1 <0>         0.3759
     10 C10         3.9472   -1.1332    5.2161 C.3       1 <0>        -0.1769
     11 N1          2.4628   -3.0483    5.3611 N.pl3     1 <0>        -0.3783
     12 C11         3.1110   -3.3745    6.6337 C.3       1 <0>         0.0748
     13 C12         3.6878   -4.7899    6.5642 C.3       1 <0>        -0.1273
     14 C13         4.3647   -5.1306    7.8934 C.3       1 <0>        -0.1060
     15 C14         3.3366   -5.0538    9.0238 C.3       1 <0>        -0.0393
     16 C15         2.7598   -3.6384    9.0933 C.3       1 <0>        -0.1126
     17 C16         2.0829   -3.2977    7.7642 C.3       1 <0>        -0.1362
     18 C17         4.0034   -5.3893   10.3329 C.ar      1 <0>         0.1247
     19 C18         4.6561   -4.3978   11.0410 C.ar      1 <0>        -0.1729
     20 C19         5.2663   -4.7170   12.2442 C.ar      1 <0>        -0.0706
     21 C20         5.1967   -6.0275   12.6922 C.ar      1 <0>        -0.1694
     22 C21         4.5264   -6.9650   11.9300 C.ar      1 <0>         0.1065
     23 N2          3.9528   -6.6242   10.7923 N.ar      1 <0>        -0.4818
     24 C22         1.4173   -3.9239    4.8259 C.3       1 <0>        -0.0252
     25 C23         0.1266   -3.2650    4.3353 C.3       1 <0>        -0.1527
     26 C24         0.1292   -4.0651    5.6394 C.3       1 <0>        -0.1575
     27 C25         0.9859    0.2744   -1.0208 C.3       1 <0>         0.4270
     28 F1          1.3995    1.4317   -0.3523 F         1 <0>        -0.1729
     29 F2          2.1035   -0.5040   -1.3408 F         1 <0>        -0.1801
     30 F3          0.3132    0.6294   -2.1950 F         1 <0>        -0.1639
     31 O1         -0.3754   -1.7102   -0.8007 O.3       1 <0>        -0.5137
     32 H1         -0.8530    1.2247    0.7528 H         1 <0>         0.0915
     33 H2         -1.6993    0.5996   -0.6829 H         1 <0>         0.0919
     34 H3         -1.8441   -0.2487    0.8752 H         1 <0>         0.0944
     35 H4          0.1759    0.8556    2.1947 H         1 <0>         0.1528
     36 H5          1.3549    0.2414    4.2640 H         1 <0>         0.1462
     37 H6          2.6932   -3.3837    2.4015 H         1 <0>         0.1390
     38 H7          1.4987   -2.7547    0.3456 H         1 <0>         0.1436
     39 H8          3.5718   -0.4399    5.9688 H         1 <0>         0.1354
     40 H9          4.7127   -1.7705    5.6588 H         1 <0>         0.1169
     41 H10         3.9149   -2.6636    6.8248 H         1 <0>         0.1326
     42 H11         2.8839   -5.5008    6.3732 H         1 <0>         0.0879
     43 H12         4.4202   -4.8447    5.7589 H         1 <0>         0.0827
     44 H13         4.7756   -6.1390    7.8439 H         1 <0>         0.0883
     45 H14         5.1686   -4.4197    8.0844 H         1 <0>         0.0745
     46 H15         2.5327   -5.7647    8.8328 H         1 <0>         0.0968
     47 H16         2.0274   -3.5836    9.8986 H         1 <0>         0.0882
     48 H17         3.5637   -2.9274    9.2843 H         1 <0>         0.0783
     49 H18         1.6720   -2.2893    7.8137 H         1 <0>         0.0823
     50 H19         1.2790   -4.0086    7.5731 H         1 <0>         0.0956
     51 H20         4.6907   -3.3872   10.6615 H         1 <0>         0.1334
     52 H21         5.7838   -3.9630   12.8188 H         1 <0>         0.1376
     53 H22         5.6610   -6.3118   13.6250 H         1 <0>         0.1397
     54 H23         4.4677   -7.9878   12.2720 H         1 <0>         0.1604
     55 H24         1.7707   -4.8027    4.2864 H         1 <0>         0.1681
     56 H25         0.0553   -2.1799    4.4107 H         1 <0>         0.1143
     57 H26        -0.3694   -3.7101    3.4728 H         1 <0>         0.1296
     58 H27        -0.3650   -5.0366    5.6348 H         1 <0>         0.1305
     59 H28         0.0597   -3.5064    6.5728 H         1 <0>         0.1207
     60 H29         0.3491   -2.2985   -1.0537 H         1 <0>         0.3882
     61 H30         4.3770   -0.5714    4.3868 H         1 <0>         0.1296
@<TRIPOS>BOND
     1    1    2 1
     2    1   32 1
     3    1   33 1
     4    1   34 1
     5    2    3 1
     6    2   27 1
     7    2   31 1
     8    3    8 ar
     9    3    4 ar
    10    4    5 ar
    11    4   35 1
    12    5    6 ar
    13    5   36 1
    14    6    7 ar
    15    6    9 1
    16    7    8 ar
    17    7   37 1
    18    8   38 1
    19    9   10 1
    20    9   11 2
    21   10   39 1
    22   10   40 1
    23   10   61 1
    24   11   12 1
    25   11   24 1
    26   12   17 1
    27   12   13 1
    28   12   41 1
    29   13   14 1
    30   13   42 1
    31   13   43 1
    32   14   15 1
    33   14   44 1
    34   14   45 1
    35   15   16 1
    36   15   18 1
    37   15   46 1
    38   16   17 1
    39   16   47 1
    40   16   48 1
    41   17   49 1
    42   17   50 1
    43   18   23 ar
    44   18   19 ar
    45   19   20 ar
    46   19   51 1
    47   20   21 ar
    48   20   52 1
    49   21   22 ar
    50   21   53 1
    51   22   23 ar
    52   22   54 1
    53   24   26 1
    54   24   25 1
    55   24   55 1
    56   25   26 1
    57   25   56 1
    58   25   57 1
    59   26   58 1
    60   26   59 1
    61   27   28 1
    62   27   29 1
    63   27   30 1
    64   31   60 1
@<TRIPOS>MOLECULE
CHEMBL1085143
   41    42     0     0     0
SMALL
USER_CHARGES

@<TRIPOS>ATOM
      1 C1         -4.1993   -4.2055   -0.0921 C.3       1 <0>        -0.1622
      2 C2         -3.9963   -2.9569   -0.9527 C.3       1 <0>         0.1441
      3 C3         -5.3406   -2.2561   -1.1596 C.3       1 <0>        -0.1626
      4 N1         -3.0687   -2.0449   -0.2790 N.pl3     1 <0>        -0.3365
      5 C4         -1.8539   -1.6289   -0.7371 C.2       1 <0>         0.0185
      6 C5         -1.3465   -0.7947    0.2088 C.2       1 <0>        -0.0776
      7 N2         -2.2181   -0.7011    1.2126 N.2       1 <0>        -0.2290
      8 N3         -3.2561   -1.4207    0.9634 N.2       1 <0>        -0.0592
      9 S1         -1.0904   -2.0837   -2.2585 S.3       1 <0>         0.0221
     10 C6          0.6419   -1.5893   -2.0452 C.3       1 <0>        -0.1750
     11 C7          1.4432   -2.0384   -3.2399 C.2       1 <0>         0.4235
     12 O1          0.8992   -2.6335   -4.1461 O.2       1 <0>        -0.4325
     13 C8          2.8828   -1.7556   -3.3069 C.ar      1 <0>        -0.1688
     14 C9          3.5139   -1.0740   -2.2593 C.ar      1 <0>        -0.0618
     15 C10         4.8636   -0.8105   -2.3245 C.ar      1 <0>        -0.1883
     16 C11         5.6023   -1.2190   -3.4279 C.ar      1 <0>         0.1415
     17 C12         4.9810   -1.8985   -4.4756 C.ar      1 <0>         0.0887
     18 C13         3.6293   -2.1720   -4.4160 C.ar      1 <0>        -0.1106
     19 O2          5.7081   -2.2961   -5.5540 O.3       1 <0>        -0.3032
     20 C14         5.0073   -2.9871   -6.5900 C.3       1 <0>         0.0227
     21 O3          6.9327   -0.9555   -3.4868 O.3       1 <0>        -0.2989
     22 C15         7.5051   -0.2557   -2.3801 C.3       1 <0>         0.0217
     23 H1         -4.8894   -4.8841   -0.5933 H         1 <0>         0.0850
     24 H2         -3.2416   -4.7048    0.0553 H         1 <0>         0.0645
     25 H3         -4.6113   -3.9172    0.8750 H         1 <0>         0.0742
     26 H4         -3.5843   -3.2452   -1.9198 H         1 <0>         0.1083
     27 H5         -5.7526   -1.9678   -0.1925 H         1 <0>         0.0752
     28 H6         -5.1960   -1.3666   -1.7727 H         1 <0>         0.0644
     29 H7         -6.0308   -2.9347   -1.6608 H         1 <0>         0.0847
     30 H8         -0.3928   -0.2908    0.1558 H         1 <0>         0.1828
     31 H9          0.7016   -0.5047   -1.9545 H         1 <0>         0.1321
     32 H10         1.0434   -2.0520   -1.1436 H         1 <0>         0.1313
     33 H11         2.9420   -0.7546   -1.4006 H         1 <0>         0.1387
     34 H12         5.3494   -0.2847   -1.5159 H         1 <0>         0.1460
     35 H13         3.1479   -2.7017   -5.2248 H         1 <0>         0.1496
     36 H14         5.7025   -3.2467   -7.3883 H         1 <0>         0.1053
     37 H15         4.5637   -3.8965   -6.1845 H         1 <0>         0.0578
     38 H16         4.2210   -2.3453   -6.9874 H         1 <0>         0.0579
     39 H17         7.0190    0.7140   -2.2727 H         1 <0>         0.0600
     40 H18         7.3616   -0.8369   -1.4692 H         1 <0>         0.0599
     41 H19         8.5712   -0.1104   -2.5543 H         1 <0>         0.1058
@<TRIPOS>BOND
     1    1    2 1
     2    1   23 1
     3    1   24 1
     4    1   25 1
     5    2    3 1
     6    2    4 1
     7    2   26 1
     8    3   27 1
     9    3   28 1
    10    3   29 1
    11    4    8 1
    12    4    5 1
    13    5    6 2
    14    5    9 1
    15    6    7 1
    16    6   30 1
    17    7    8 2
    18    9   10 1
    19   10   11 1
    20   10   31 1
    21   10   32 1
    22   11   12 2
    23   11   13 1
    24   13   18 ar
    25   13   14 ar
    26   14   15 ar
    27   14   33 1
    28   15   16 ar
    29   15   34 1
    30   16   17 ar
    31   16   21 1
    32   17   18 ar
    33   17   19 1
    34   18   35 1
    35   19   20 1
    36   20   36 1
    37   20   37 1
    38   20   38 1
    39   21   22 1
    40   22   39 1
    41   22   40 1
    42   22   41 1
@<TRIPOS>MOLECULE
CHEMBL441553
   47    49     0     0     0
SMALL
USER_CHARGES

@<TRIPOS>ATOM
      1 C1         -0.8370    0.4457   -0.4985 C.3       1 <0>        -0.1474
      2 C2         -1.5537    0.2982    0.8452 C.3       1 <0>         0.1314
      3 H1         -2.2465   -0.5421    0.8000 H         1 <0>         0.0793
      4 C3         -2.3256    1.5854    1.1609 C.3       1 <0>         0.1382
      5 N1         -2.7865    1.5266    2.5551 N.pl3     1 <0>        -0.6530
      6 C4         -1.7983    1.2988    3.6188 C.3       1 <0>         0.1406
      7 C5         -1.0264    0.0116    3.3031 C.3       1 <0>         0.1293
      8 H2         -1.6812   -0.8496    3.4359 H         1 <0>         0.0848
      9 N2         -0.5657    0.0663    1.9082 N.am      1 <0>        -0.6027
     10 C6          0.7393   -0.0894    1.6097 C.2       1 <0>         0.5747
     11 O1          1.0708   -0.4261    0.4893 O.2       1 <0>        -0.5114
     12 C7          1.7656    0.1487    2.6423 C.ar      1 <0>        -0.1430
     13 C8          2.3677   -0.9318    3.2935 C.ar      1 <0>        -0.0167
     14 C9          3.3256   -0.7065    4.2571 C.ar      1 <0>        -0.1154
     15 C10         3.6944    0.5963    4.5830 C.ar      1 <0>         0.2587
     16 C11         3.0960    1.6747    3.9363 C.ar      1 <0>        -0.1154
     17 C12         2.1420    1.4552    2.9674 C.ar      1 <0>        -0.0309
     18 Cl1         3.5580    3.2970    4.3465 Cl        1 <0>        -0.0534
     19 N3          4.6627    0.8210    5.5572 N.pl3     1 <0>        -0.8539
     20 Cl2         4.0735   -2.0477    5.0668 Cl        1 <0>        -0.0515
     21 C13         0.1767   -0.1088    4.2407 C.3       1 <0>        -0.2015
     22 C14        -4.1356    1.6844    2.8630 C.ar      1 <0>         0.2978
     23 C15        -4.6632    2.9677    3.0301 C.ar      1 <0>         0.1744
     24 C16        -6.0100    3.1064    3.3367 C.ar      1 <0>        -0.1585
     25 C17        -6.7808    1.9582    3.4652 C.ar      1 <0>        -0.1232
     26 C18        -6.1914    0.7237    3.2861 C.ar      1 <0>         0.0464
     27 N4         -4.9086    0.6190    2.9895 N.ar      1 <0>        -0.4546
     28 N5         -3.8460    4.0959    2.8910 N.pl3     1 <0>        -0.8639
     29 H3         -0.4289   -0.5189   -0.8004 H         1 <0>         0.0844
     30 H4         -1.5447    0.7924   -1.2516 H         1 <0>         0.0552
     31 H5         -0.0270    1.1685   -0.4009 H         1 <0>         0.0607
     32 H6         -1.6707    2.4465    1.0281 H         1 <0>         0.0587
     33 H7         -3.1844    1.6696    0.4949 H         1 <0>         0.0807
     34 H8         -1.1058    2.1395    3.6610 H         1 <0>         0.0592
     35 H9         -2.3088    1.1937    4.5761 H         1 <0>         0.0796
     36 H10         2.0818   -1.9423    3.0414 H         1 <0>         0.1460
     37 H11         1.6816    2.2917    2.4627 H         1 <0>         0.1416
     38 H12         5.0799    0.0705    6.0085 H         1 <0>         0.4077
     39 H13         4.9203    1.7280    5.7849 H         1 <0>         0.4075
     40 H14        -0.1721   -0.2018    5.2692 H         1 <0>         0.0685
     41 H15         0.7589   -0.9906    3.9734 H         1 <0>         0.0850
     42 H16         0.8003    0.7803    4.1475 H         1 <0>         0.0877
     43 H17        -6.4481    4.0841    3.4725 H         1 <0>         0.1317
     44 H18        -7.8316    2.0311    3.7034 H         1 <0>         0.1342
     45 H19        -6.7890   -0.1704    3.3855 H         1 <0>         0.1518
     46 H20        -2.9245    3.9951    2.6053 H         1 <0>         0.4019
     47 H21        -4.2012    4.9785    3.0803 H         1 <0>         0.3984
@<TRIPOS>BOND
     1    1    2 1
     2    1   29 1
     3    1   30 1
     4    1   31 1
     5    2    3 1
     6    2    9 1
     7    2    4 1
     8    4    5 1
     9    4   32 1
    10    4   33 1
    11    5    6 1
    12    5   22 1
    13    6    7 1
    14    6   34 1
    15    6   35 1
    16    7    8 1
    17    7    9 1
    18    7   21 1
    19    9   10 am
    20   10   11 2
    21   10   12 1
    22   12   17 ar
    23   12   13 ar
    24   13   14 ar
    25   13   36 1
    26   14   15 ar
    27   14   20 1
    28   15   16 ar
    29   15   19 1
    30   16   17 ar
    31   16   18 1
    32   17   37 1
    33   19   38 1
    34   19   39 1
    35   21   40 1
    36   21   41 1
    37   21   42 1
    38   22   27 ar
    39   22   23 ar
    40   23   24 ar
    41   23   28 1
    42   24   25 ar
    43   24   43 1
    44   25   26 ar
    45   25   44 1
    46   26   27 ar
    47   26   45 1
    48   28   46 1
    49   28   47 1
@<TRIPOS>MOLECULE
CHEMBL441553__1
   48    50     0     0     0
SMALL
USER_CHARGES

@<TRIPOS>ATOM
      1 C1         -0.8336    0.4451   -0.4986 C.3       1 <0>        -0.1532
      2 C2         -1.5517    0.2987    0.8444 C.3       1 <0>         0.1338
      3 H1         -2.2445   -0.5415    0.7991 H         1 <0>         0.0766
      4 C3         -2.3237    1.5862    1.1585 C.3       1 <0>         0.1194
      5 N1         -2.7861    1.5284    2.5523 N.pl3     1 <0>        -0.6660
      6 C4         -1.7990    1.3011    3.6171 C.3       1 <0>         0.1195
      7 C5         -1.0269    0.0137    3.3031 C.3       1 <0>         0.1331
      8 H2         -1.6820   -0.8473    3.4358 H         1 <0>         0.0801
      9 N2         -0.5649    0.0673    1.9087 N.am      1 <0>        -0.6149
     10 C6          0.7405   -0.0887    1.6116 C.2       1 <0>         0.5811
     11 O1          1.0731   -0.4262    0.4918 O.2       1 <0>        -0.4948
     12 C7          1.7658    0.1500    2.6451 C.ar      1 <0>        -0.1584
     13 C8          2.3671   -0.9302    3.2976 C.ar      1 <0>        -0.0167
     14 C9          3.3240   -0.7044    4.2621 C.ar      1 <0>        -0.1158
     15 C10         3.6926    0.5986    4.5875 C.ar      1 <0>         0.2651
     16 C11         3.0950    1.6766    3.9394 C.ar      1 <0>        -0.1175
     17 C12         2.1420    1.4566    2.9697 C.ar      1 <0>        -0.0311
     18 Cl1         3.5568    3.2991    4.3490 Cl        1 <0>        -0.0472
     19 N3          4.6599    0.8237    5.5626 N.pl3     1 <0>        -0.8487
     20 Cl2         4.0708   -2.0452    5.0734 Cl        1 <0>        -0.0433
     21 C13         0.1751   -0.1062    4.2420 C.3       1 <0>        -0.2070
     22 C14        -4.1355    1.6865    2.8586 C.ar      1 <0>         0.3118
     23 C15        -4.6641    2.9702    3.0200 C.ar      1 <0>         0.2273
     24 C16        -6.0111    3.1093    3.3251 C.ar      1 <0>        -0.0796
     25 C17        -6.7812    1.9611    3.4580 C.ar      1 <0>        -0.0767
     26 C18        -6.1909    0.7263    3.2846 C.ar      1 <0>         0.0810
     27 N4         -4.9078    0.6212    2.9893 N.ar      1 <0>        -0.4173
     28 N5         -3.8475    4.0984    2.8765 N.pl3     1 <0>        -0.8285
     29 H3         -0.4252   -0.5197   -0.7994 H         1 <0>         0.0922
     30 H4         -1.5404    0.7915   -1.2526 H         1 <0>         0.0605
     31 H5         -0.0236    1.1679   -0.4007 H         1 <0>         0.0672
     32 H6         -1.6686    2.4471    1.0258 H         1 <0>         0.0837
     33 H7         -3.1818    1.6700    0.4916 H         1 <0>         0.0925
     34 H8         -1.1065    2.1418    3.6595 H         1 <0>         0.0855
     35 H9         -2.3105    1.1968    4.5740 H         1 <0>         0.0908
     36 H10         2.0813   -1.9408    3.0460 H         1 <0>         0.1468
     37 H11         1.6823    2.2929    2.4640 H         1 <0>         0.1406
     38 H12         5.0766    0.0735    6.0148 H         1 <0>         0.4106
     39 H13         4.9174    1.7309    5.7899 H         1 <0>         0.4100
     40 H14        -0.1747   -0.1985    5.2702 H         1 <0>         0.0719
     41 H15         0.7575   -0.9883    3.9759 H         1 <0>         0.0937
     42 H16         0.7990    0.7827    4.1489 H         1 <0>         0.0943
     43 H17        -6.4500    4.0873    3.4565 H         1 <0>         0.1739
     44 H18        -7.8322    2.0343    3.6953 H         1 <0>         0.1862
     45 H19        -6.7879   -0.1678    3.3875 H         1 <0>         0.2055
     46 H20        -2.9258    3.9970    2.5918 H         1 <0>         0.4172
     47 H21        -4.2035    4.9815    3.0618 H         1 <0>         0.4226
     48 H22        -4.5213   -0.2603    2.8688 H         1 <0>         0.4419
@<TRIPOS>BOND
     1    1    2 1
     2    1   29 1
     3    1   30 1
     4    1   31 1
     5    2    3 1
     6    2    9 1
     7    2    4 1
     8    4    5 1
     9    4   32 1
    10    4   33 1
    11    5    6 1
    12    5   22 1
    13    6    7 1
    14    6   34 1
    15    6   35 1
    16    7    8 1
    17    7    9 1
    18    7   21 1
    19    9   10 am
    20   10   11 2
    21   10   12 1
    22   12   17 ar
    23   12   13 ar
    24   13   14 ar
    25   13   36 1
    26   14   15 ar
    27   14   20 1
    28   15   16 ar
    29   15   19 1
    30   16   17 ar
    31   16   18 1
    32   17   37 1
    33   19   38 1
    34   19   39 1
    35   21   40 1
    36   21   41 1
    37   21   42 1
    38   22   27 ar
    39   22   23 ar
    40   23   24 ar
    41   23   28 1
    42   24   25 ar
    43   24   43 1
    44   25   26 ar
    45   25   44 1
    46   26   27 ar
    47   26   45 1
    48   27   48 1
    49   28   46 1
    50   28   47 1
@<TRIPOS>MOLECULE
CHEMBL561207
   47    49     0     0     0
SMALL
USER_CHARGES

@<TRIPOS>ATOM
      1 C1          0.3472    1.9794   -0.4750 C.ar      1 <0>        -0.1247
      2 C2          1.6639    2.3999   -0.4389 C.ar      1 <0>        -0.0144
      3 C3          2.6771    1.4834   -0.2296 C.ar      1 <0>        -0.6685
      4 C4          2.3747    0.1457   -0.0568 C.ar      1 <0>        -0.0147
      5 C5          1.0576   -0.2756   -0.0928 C.ar      1 <0>        -0.0568
      6 C6          0.0436    0.6424   -0.3019 C.ar      1 <0>        -0.0533
      7 Cl1         0.6770   -1.9555    0.1237 Cl        1 <0>        -0.0534
      8 S1          4.3548    2.0202   -0.1838 S.o2      1 <0>         2.6960
      9 O1          5.1515    0.8920   -0.5178 O.2       1 <0>        -0.9478
     10 O2          4.4120    3.2368   -0.9158 O.2       1 <0>        -0.9494
     11 N1          4.7052    2.3979    1.3900 N.pl3     1 <0>        -1.1114
     12 C7          4.7023    1.3492    2.4130 C.3       1 <0>         0.1531
     13 C8          5.3946    1.8547    3.6525 C.ar      1 <0>        -0.0806
     14 C9          6.7594    1.6803    3.7986 C.ar      1 <0>        -0.1041
     15 C10         7.3994    2.1406    4.9308 C.ar      1 <0>        -0.0911
     16 C11         6.6669    2.7834    5.9300 C.ar      1 <0>        -0.1195
     17 C12         5.2905    2.9561    5.7763 C.ar      1 <0>        -0.0671
     18 C13         4.6637    2.4961    4.6367 C.ar      1 <0>        -0.1047
     19 C14         7.3461    3.2789    7.1462 C.2       1 <0>         0.5597
     20 O3          6.8207    3.1430    8.2338 O.2       1 <0>        -0.5317
     21 N2          8.5479    3.8812    7.0489 N.am      1 <0>        -0.6063
     22 C15         9.1348    4.1728    5.7339 C.3       1 <0>         0.0960
     23 C16         9.4968    5.6601    5.6744 C.3       1 <0>        -0.1367
     24 C17        10.4022    6.0084    6.8580 C.3       1 <0>        -0.1219
     25 C18         9.6562    5.7450    8.1680 C.3       1 <0>        -0.1357
     26 C19         9.2932    4.2641    8.2558 C.3       1 <0>         0.1098
     27 H1         -0.4444    2.6966   -0.6341 H         1 <0>         0.1453
     28 H2          1.9007    3.4448   -0.5746 H         1 <0>         0.1485
     29 H3          3.1666   -0.5705    0.1061 H         1 <0>         0.1518
     30 H4         -0.9849    0.3141   -0.3302 H         1 <0>         0.1440
     31 H5          4.9123    3.3134    1.6345 H         1 <0>         0.4229
     32 H6          3.6740    1.0807    2.6552 H         1 <0>         0.0790
     33 H7          5.2276    0.4719    2.0356 H         1 <0>         0.0949
     34 H8          7.3249    1.1823    3.0249 H         1 <0>         0.1357
     35 H9          8.4646    2.0035    5.0438 H         1 <0>         0.1340
     36 H10         4.7180    3.4527    6.5458 H         1 <0>         0.1342
     37 H11         3.5994    2.6330    4.5145 H         1 <0>         0.1335
     38 H12        10.0335    3.5721    5.5935 H         1 <0>         0.0727
     39 H13         8.4120    3.9410    4.9516 H         1 <0>         0.0949
     40 H14        10.0204    5.8701    4.7417 H         1 <0>         0.0783
     41 H15         8.5869    6.2582    5.7240 H         1 <0>         0.0676
     42 H16        11.3007    5.3924    6.8215 H         1 <0>         0.0657
     43 H17        10.6813    7.0608    6.8043 H         1 <0>         0.0676
     44 H18        10.2932    6.0153    9.0102 H         1 <0>         0.0778
     45 H19         8.7448    6.3423    8.1941 H         1 <0>         0.0669
     46 H20         8.6749    4.0925    9.1369 H         1 <0>         0.0942
     47 H21        10.2051    3.6710    8.3256 H         1 <0>         0.0699
@<TRIPOS>BOND
     1    1    6 ar
     2    1    2 ar
     3    1   27 1
     4    2    3 ar
     5    2   28 1
     6    3    4 ar
     7    3    8 1
     8    4    5 ar
     9    4   29 1
    10    5    6 ar
    11    5    7 1
    12    6   30 1
    13    8    9 2
    14    8   10 2
    15    8   11 1
    16   11   12 1
    17   11   31 1
    18   12   13 1
    19   12   32 1
    20   12   33 1
    21   13   18 ar
    22   13   14 ar
    23   14   15 ar
    24   14   34 1
    25   15   16 ar
    26   15   35 1
    27   16   17 ar
    28   16   19 1
    29   17   18 ar
    30   17   36 1
    31   18   37 1
    32   19   20 2
    33   19   21 am
    34   21   26 1
    35   21   22 1
    36   22   23 1
    37   22   38 1
    38   22   39 1
    39   23   24 1
    40   23   40 1
    41   23   41 1
    42   24   25 1
    43   24   42 1
    44   24   43 1
    45   25   26 1
    46   25   44 1
    47   25   45 1
    48   26   46 1
    49   26   47 1
@<TRIPOS>MOLECULE
CHEMBL596815
   45    48     0     0     0
SMALL
USER_CHARGES

@<TRIPOS>ATOM
      1 C1         -0.1901    1.6467    2.1482 C.3       1 <0>        -0.1202
      2 C2         -0.1848    0.1272    2.3302 C.3       1 <0>        -0.1359
      3 C3          0.7136   -0.5077    1.2641 C.3       1 <0>         0.1120
      4 N1          2.0433    0.1133    1.3353 N.am      1 <0>        -0.6301
      5 C4          2.1442    1.5772    1.2617 C.3       1 <0>         0.1285
      6 C5          1.2298    2.1887    2.3279 C.3       1 <0>        -0.1362
      7 C6          3.1494   -0.6456    1.4661 C.2       1 <0>         0.7076
      8 O1          4.2492   -0.1282    1.4319 O.2       1 <0>        -0.5880
      9 N2          3.0365   -1.9780    1.6347 N.am      1 <0>        -0.7401
     10 C7          4.2306   -2.7881    1.8878 C.3       1 <0>         0.1768
     11 C8          4.8861   -3.1600    0.5564 C.3       1 <0>        -0.0963
     12 C9          3.8971   -3.9609   -0.2929 C.3       1 <0>        -0.1051
     13 C10         3.4996   -5.2359    0.4535 C.3       1 <0>        -0.0872
     14 C11         4.7467   -6.0820    0.7179 C.3       1 <0>        -0.1078
     15 C12         5.7357   -5.2811    1.5672 C.3       1 <0>        -0.0886
     16 C13         6.1332   -4.0061    0.8207 C.3       1 <0>        -0.1067
     17 C14         5.0801   -4.9092    2.8986 C.3       1 <0>        -0.1049
     18 C15         3.8331   -4.0631    2.6343 C.3       1 <0>        -0.0933
     19 C16         2.8440   -4.8640    1.7850 C.3       1 <0>        -0.1080
     20 H1         -0.5483    1.8914    1.1482 H         1 <0>         0.0651
     21 H2         -0.8481    2.0990    2.8902 H         1 <0>         0.0664
     22 H3          0.1967   -0.1192    3.3211 H         1 <0>         0.0672
     23 H4         -1.2000   -0.2554    2.2252 H         1 <0>         0.0757
     24 H5          0.7999   -1.5783    1.4493 H         1 <0>         0.0735
     25 H6          0.2840   -0.3390    0.2766 H         1 <0>         0.0703
     26 H7          3.1744    1.8822    1.4454 H         1 <0>         0.0935
     27 H8          1.8312    1.9159    0.2740 H         1 <0>         0.0647
     28 H9          1.2213    3.2734    2.2212 H         1 <0>         0.0765
     29 H10         1.5979    1.9229    3.3188 H         1 <0>         0.0661
     30 H11         2.1646   -2.4005    1.5886 H         1 <0>         0.3930
     31 H12         4.9352   -2.2175    2.4929 H         1 <0>         0.0858
     32 H13         5.1693   -2.2517    0.0246 H         1 <0>         0.0763
     33 H14         3.0087   -3.3582   -0.4812 H         1 <0>         0.0583
     34 H15         4.3641   -4.2259   -1.2415 H         1 <0>         0.0619
     35 H16         2.7950   -5.8065   -0.1515 H         1 <0>         0.0698
     36 H17         4.4635   -6.9903    1.2497 H         1 <0>         0.0621
     37 H18         5.2137   -6.3469   -0.2307 H         1 <0>         0.0626
     38 H19         6.6242   -5.8839    1.7554 H         1 <0>         0.0723
     39 H20         6.6003   -4.2711   -0.1279 H         1 <0>         0.0652
     40 H21         6.8378   -3.4355    1.4257 H         1 <0>         0.0645
     41 H22         4.7969   -5.8175    3.4304 H         1 <0>         0.0682
     42 H23         5.7848   -4.3386    3.5037 H         1 <0>         0.0658
     43 H24         3.3660   -3.7981    3.5829 H         1 <0>         0.0751
     44 H25         1.9556   -4.2612    1.5967 H         1 <0>         0.0560
     45 H26         2.5608   -5.7723    2.3168 H         1 <0>         0.0675
@<TRIPOS>BOND
     1    1    6 1
     2    1    2 1
     3    1   20 1
     4    1   21 1
     5    2    3 1
     6    2   22 1
     7    2   23 1
     8    3    4 1
     9    3   24 1
    10    3   25 1
    11    4    5 1
    12    4    7 am
    13    5    6 1
    14    5   26 1
    15    5   27 1
    16    6   28 1
    17    6   29 1
    18    7    8 2
    19    7    9 am
    20    9   10 1
    21    9   30 1
    22   10   18 1
    23   10   11 1
    24   10   31 1
    25   11   16 1
    26   11   12 1
    27   11   32 1
    28   12   13 1
    29   12   33 1
    30   12   34 1
    31   13   19 1
    32   13   14 1
    33   13   35 1
    34   14   15 1
    35   14   36 1
    36   14   37 1
    37   15   16 1
    38   15   17 1
    39   15   38 1
    40   16   39 1
    41   16   40 1
    42   17   18 1
    43   17   41 1
    44   17   42 1
    45   18   19 1
    46   18   43 1
    47   19   44 1
    48   19   45 1
@<TRIPOS>MOLECULE
CHEMBL605538
   58    62     0     0     0
SMALL
USER_CHARGES

@<TRIPOS>ATOM
      1 C1          6.2276    2.2466   -1.8266 C.ar      1 <0>        -0.1269
      2 C2          6.5411    0.9048   -1.9365 C.ar      1 <0>        -0.1203
      3 C3          5.7235   -0.0459   -1.3547 C.ar      1 <0>        -0.1166
      4 C4          4.5927    0.3452   -0.6625 C.ar      1 <0>        -0.0841
      5 C5          4.2797    1.6871   -0.5519 C.ar      1 <0>        -0.1170
      6 C6          5.0965    2.6378   -1.1349 C.ar      1 <0>        -0.1191
      7 C7          3.7008   -0.6912   -0.0290 C.3       1 <0>        -0.0667
      8 C8          4.2395   -1.0487    1.3577 C.3       1 <0>         0.1726
      9 C9          5.6521   -1.6267    1.2266 C.3       1 <0>        -0.1342
     10 C10         6.1304   -2.1101    2.5976 C.3       1 <0>        -0.1201
     11 C11         5.2011   -3.2160    3.1032 C.3       1 <0>        -0.1355
     12 C12         3.7833   -2.6560    3.2555 C.3       1 <0>         0.1127
     13 N1          3.3711   -2.0585    1.9781 N.am      1 <0>        -0.6270
     14 C13         2.2182   -2.4296    1.3868 C.2       1 <0>         0.7069
     15 O1          1.9382   -2.0067    0.2818 O.2       1 <0>        -0.5793
     16 N2          1.3758   -3.2695    2.0203 N.am      1 <0>        -0.7411
     17 C14         0.0743   -3.5868    1.4273 C.3       1 <0>         0.1771
     18 C15        -0.9083   -2.4502    1.7158 C.3       1 <0>        -0.0950
     19 C16        -1.0644   -2.2826    3.2286 C.3       1 <0>        -0.1047
     20 C17        -1.5970   -3.5831    3.8335 C.3       1 <0>        -0.0866
     21 C18        -2.9562   -3.9145    3.2142 C.3       1 <0>        -0.1080
     22 C19        -2.8002   -4.0820    1.7014 C.3       1 <0>        -0.0884
     23 C20        -2.2676   -2.7815    1.0965 C.3       1 <0>        -0.1065
     24 C21        -1.8175   -5.2187    1.4128 C.3       1 <0>        -0.1047
     25 C22        -0.4583   -4.8873    2.0322 C.3       1 <0>        -0.0930
     26 C23        -0.6143   -4.7198    3.5449 C.3       1 <0>        -0.1078
     27 H1          6.8688    2.9897   -2.2774 H         1 <0>         0.1191
     28 H2          7.4246    0.5992   -2.4773 H         1 <0>         0.1195
     29 H3          5.9681   -1.0943   -1.4411 H         1 <0>         0.1190
     30 H4          3.3960    1.9927   -0.0114 H         1 <0>         0.1187
     31 H5          4.8517    3.6861   -1.0488 H         1 <0>         0.1197
     32 H6          2.6907   -0.2927    0.0652 H         1 <0>         0.0967
     33 H7          3.6821   -1.5848   -0.6530 H         1 <0>         0.0863
     34 H8          4.2644   -0.1552    1.9815 H         1 <0>         0.0703
     35 H9          5.6391   -2.4645    0.5295 H         1 <0>         0.0669
     36 H10         6.3278   -0.8555    0.8567 H         1 <0>         0.0799
     37 H11         7.1449   -2.4994    2.5118 H         1 <0>         0.0667
     38 H12         6.1196   -1.2771    3.3005 H         1 <0>         0.0642
     39 H13         5.1924   -4.0389    2.3884 H         1 <0>         0.0673
     40 H14         5.5558   -3.5760    4.0689 H         1 <0>         0.0757
     41 H15         3.0986   -3.4619    3.5198 H         1 <0>         0.0745
     42 H16         3.7731   -1.8945    4.0353 H         1 <0>         0.0698
     43 H17         1.6313   -3.6639    2.8689 H         1 <0>         0.3916
     44 H18         0.1855   -3.7062    0.3495 H         1 <0>         0.0855
     45 H19        -0.5289   -1.5237    1.2849 H         1 <0>         0.0751
     46 H20        -0.0960   -2.0465    3.6698 H         1 <0>         0.0588
     47 H21        -1.7644   -1.4728    3.4342 H         1 <0>         0.0609
     48 H22        -1.7082   -3.4637    4.9112 H         1 <0>         0.0693
     49 H23        -3.3357   -4.8410    3.6451 H         1 <0>         0.0619
     50 H24        -3.6563   -3.1047    3.4197 H         1 <0>         0.0623
     51 H25        -3.7685   -4.3181    1.2602 H         1 <0>         0.0720
     52 H26        -2.9676   -1.9717    1.3021 H         1 <0>         0.0648
     53 H27        -2.1564   -2.9009    0.0188 H         1 <0>         0.0645
     54 H28        -2.1970   -6.1452    1.8438 H         1 <0>         0.0679
     55 H29        -1.7064   -5.3381    0.3351 H         1 <0>         0.0658
     56 H30         0.2418   -5.6971    1.8266 H         1 <0>         0.0750
     57 H31         0.3540   -4.4837    3.9862 H         1 <0>         0.0563
     58 H32        -0.9938   -5.6463    3.9759 H         1 <0>         0.0669
@<TRIPOS>BOND
     1    1    6 ar
     2    1    2 ar
     3    1   27 1
     4    2    3 ar
     5    2   28 1
     6    3    4 ar
     7    3   29 1
     8    4    5 ar
     9    4    7 1
    10    5    6 ar
    11    5   30 1
    12    6   31 1
    13    7    8 1
    14    7   32 1
    15    7   33 1
    16    8   13 1
    17    8    9 1
    18    8   34 1
    19    9   10 1
    20    9   35 1
    21    9   36 1
    22   10   11 1
    23   10   37 1
    24   10   38 1
    25   11   12 1
    26   11   39 1
    27   11   40 1
    28   12   13 1
    29   12   41 1
    30   12   42 1
    31   13   14 am
    32   14   15 2
    33   14   16 am
    34   16   17 1
    35   16   43 1
    36   17   25 1
    37   17   18 1
    38   17   44 1
    39   18   23 1
    40   18   19 1
    41   18   45 1
    42   19   20 1
    43   19   46 1
    44   19   47 1
    45   20   26 1
    46   20   21 1
    47   20   48 1
    48   21   22 1
    49   21   49 1
    50   21   50 1
    51   22   23 1
    52   22   24 1
    53   22   51 1
    54   23   52 1
    55   23   53 1
    56   24   25 1
    57   24   54 1
    58   24   55 1
    59   25   26 1
    60   25   56 1
    61   26   57 1
    62   26   58 1
@<TRIPOS>MOLECULE
CHEMBL605538__1
   58    62     0     0     0
SMALL
USER_CHARGES

@<TRIPOS>ATOM
      1 C1          3.4002   -4.4589   -2.0551 C.ar      1 <0>        -0.1273
      2 C2          2.3125   -3.9412   -1.3769 C.ar      1 <0>        -0.1185
      3 C3          2.4184   -2.7266   -0.7255 C.ar      1 <0>        -0.1177
      4 C4          3.6120   -2.0299   -0.7519 C.ar      1 <0>        -0.0817
      5 C5          4.6999   -2.5480   -1.4293 C.ar      1 <0>        -0.1166
      6 C6          4.5937   -3.7619   -2.0819 C.ar      1 <0>        -0.1196
      7 C7          3.7272   -0.7053   -0.0425 C.3       1 <0>        -0.0712
      8 C8          4.0625   -0.9434    1.4312 C.3       1 <0>         0.1730
      9 C9          5.3795   -1.7185    1.5394 C.3       1 <0>        -0.1316
     10 C10         5.7803   -1.8322    3.0120 C.3       1 <0>        -0.1201
     11 C11         5.9942   -0.4329    3.5937 C.3       1 <0>        -0.1353
     12 C12         4.6842    0.3568    3.5088 C.3       1 <0>         0.1125
     13 N1          4.2158    0.3473    2.1162 N.am      1 <0>        -0.6270
     14 C13         3.9321    1.5007    1.4793 C.2       1 <0>         0.7075
     15 O1          3.4525    1.4763    0.3623 O.2       1 <0>        -0.5801
     16 N2          4.1800    2.6812    2.0806 N.am      1 <0>        -0.7409
     17 C14         3.9769    3.9334    1.3479 C.3       1 <0>         0.1755
     18 C15         5.2291    4.2542    0.5294 C.3       1 <0>        -0.0945
     19 C16         6.4282    4.4014    1.4682 C.3       1 <0>        -0.1048
     20 C17         6.1629    5.5356    2.4603 C.3       1 <0>        -0.0868
     21 C18         5.9508    6.8434    1.6950 C.3       1 <0>        -0.1080
     22 C19         4.7517    6.6962    0.7562 C.3       1 <0>        -0.0883
     23 C20         5.0170    5.5620   -0.2359 C.3       1 <0>        -0.1066
     24 C21         3.4995    6.3753    1.5747 C.3       1 <0>        -0.1049
     25 C22         3.7116    5.0676    2.3399 C.3       1 <0>        -0.0932
     26 C23         4.9107    5.2148    3.2788 C.3       1 <0>        -0.1080
     27 H1          3.3188   -5.4100   -2.5603 H         1 <0>         0.1191
     28 H2          1.3800   -4.4856   -1.3563 H         1 <0>         0.1198
     29 H3          1.5684   -2.3218   -0.1962 H         1 <0>         0.1191
     30 H4          5.6324   -2.0035   -1.4502 H         1 <0>         0.1177
     31 H5          5.4435   -4.1665   -2.6115 H         1 <0>         0.1193
     32 H6          4.5176   -0.1135   -0.5040 H         1 <0>         0.0783
     33 H7          2.7810   -0.1694   -0.1178 H         1 <0>         0.1066
     34 H8          3.2610   -1.5134    1.9009 H         1 <0>         0.0706
     35 H9          5.2501   -2.7160    1.1195 H         1 <0>         0.0783
     36 H10         6.1587   -1.1902    0.9900 H         1 <0>         0.0661
     37 H11         4.9896   -2.3386    3.5655 H         1 <0>         0.0643
     38 H12         6.7044   -2.4045    3.0937 H         1 <0>         0.0665
     39 H13         6.3023   -0.5154    4.6360 H         1 <0>         0.0755
     40 H14         6.7677    0.0833    3.0249 H         1 <0>         0.0672
     41 H15         3.9350   -0.1083    4.1495 H         1 <0>         0.0705
     42 H16         4.8555    1.3843    3.8297 H         1 <0>         0.0745
     43 H17         4.4928    2.7017    2.9985 H         1 <0>         0.3917
     44 H18         3.1226    3.8285    0.6790 H         1 <0>         0.0889
     45 H19         5.4181    3.4462   -0.1774 H         1 <0>         0.0732
     46 H20         6.5793    3.4697    2.0134 H         1 <0>         0.0585
     47 H21         7.3203    4.6300    0.8851 H         1 <0>         0.0611
     48 H22         7.0172    5.6405    3.1291 H         1 <0>         0.0694
     49 H23         5.7618    7.6514    2.4018 H         1 <0>         0.0621
     50 H24         6.8429    7.0719    1.1119 H         1 <0>         0.0623
     51 H25         4.6006    7.6278    0.2110 H         1 <0>         0.0721
     52 H26         5.9091    5.7905   -0.8190 H         1 <0>         0.0647
     53 H27         4.1627    5.4571   -0.9048 H         1 <0>         0.0647
     54 H28         3.3105    7.1833    2.2814 H         1 <0>         0.0678
     55 H29         2.6452    6.2705    0.9058 H         1 <0>         0.0659
     56 H30         2.8195    4.8390    2.9230 H         1 <0>         0.0752
     57 H31         5.0618    4.2831    3.8240 H         1 <0>         0.0560
     58 H32         4.7217    6.0228    3.9855 H         1 <0>         0.0671
@<TRIPOS>BOND
     1    1    6 ar
     2    1    2 ar
     3    1   27 1
     4    2    3 ar
     5    2   28 1
     6    3    4 ar
     7    3   29 1
     8    4    5 ar
     9    4    7 1
    10    5    6 ar
    11    5   30 1
    12    6   31 1
    13    7    8 1
    14    7   32 1
    15    7   33 1
    16    8   13 1
    17    8    9 1
    18    8   34 1
    19    9   10 1
    20    9   35 1
    21    9   36 1
    22   10   11 1
    23   10   37 1
    24   10   38 1
    25   11   12 1
    26   11   39 1
    27   11   40 1
    28   12   13 1
    29   12   41 1
    30   12   42 1
    31   13   14 am
    32   14   15 2
    33   14   16 am
    34   16   17 1
    35   16   43 1
    36   17   25 1
    37   17   18 1
    38   17   44 1
    39   18   23 1
    40   18   19 1
    41   18   45 1
    42   19   20 1
    43   19   46 1
    44   19   47 1
    45   20   26 1
    46   20   21 1
    47   20   48 1
    48   21   22 1
    49   21   49 1
    50   21   50 1
    51   22   23 1
    52   22   24 1
    53   22   51 1
    54   23   52 1
    55   23   53 1
    56   24   25 1
    57   24   54 1
    58   24   55 1
    59   25   26 1
    60   25   56 1
    61   26   57 1
    62   26   58 1
@<TRIPOS>MOLECULE
CHEMBL565120
   48    50     0     0     0
SMALL
USER_CHARGES

@<TRIPOS>ATOM
      1 C1         -1.4353   -0.5941   -0.2384 C.3       1 <0>        -0.1250
      2 C2         -0.0642    0.0213    0.0482 C.3       1 <0>        -0.0367
      3 C3         -0.2228    1.5201    0.3115 C.3       1 <0>        -0.1458
      4 C4          0.5401   -0.6404    1.2598 C.ar      1 <0>        -0.0755
      5 C5          1.6781   -1.4142    1.1293 C.ar      1 <0>        -0.1175
      6 C6          2.2324   -2.0212    2.2407 C.ar      1 <0>        -0.1160
      7 C7          1.6490   -1.8539    3.4827 C.ar      1 <0>        -0.1183
      8 C8          0.5116   -1.0793    3.6134 C.ar      1 <0>        -0.1164
      9 C9         -0.0403   -0.4688    2.5026 C.ar      1 <0>        -0.1078
     10 C10         0.8383   -0.1871   -1.1406 C.2       1 <0>         0.5413
     11 O1          0.4236   -0.7652   -2.1228 O.2       1 <0>        -0.5326
     12 N1          2.1063    0.2689   -1.1122 N.am      1 <0>        -0.6145
     13 C11         2.7151    1.0490   -0.0186 C.3       1 <0>         0.0887
     14 C12         4.2386    0.7931   -0.1467 C.3       1 <0>        -0.1254
     15 C13         4.4130    0.7306   -1.6808 C.3       1 <0>        -0.0659
     16 C14         3.1150    0.0656   -2.1645 C.3       1 <0>         0.1152
     17 C15         5.6188   -0.1278   -2.0382 C.3       1 <0>        -0.1041
     18 C16         6.8931    0.5311   -1.5027 C.3       1 <0>        -0.1184
     19 C17         7.0357    1.9289   -2.1086 C.3       1 <0>        -0.1210
     20 C18         5.8294    2.7839   -1.7152 C.3       1 <0>        -0.1202
     21 C19         4.5500    2.1354   -2.2516 C.3       1 <0>        -0.1049
     22 H1         -1.8724   -0.1155   -1.1147 H         1 <0>         0.0673
     23 H2         -1.3223   -1.6619   -0.4260 H         1 <0>         0.0642
     24 H3         -2.0881   -0.4433    0.6214 H         1 <0>         0.0653
     25 H4         -0.9924    1.6768    1.0673 H         1 <0>         0.0721
     26 H5          0.7233    1.9289    0.6662 H         1 <0>         0.0681
     27 H6         -0.5124    2.0225   -0.6115 H         1 <0>         0.0644
     28 H7          2.1339   -1.5449    0.1589 H         1 <0>         0.1245
     29 H8          3.1210   -2.6264    2.1386 H         1 <0>         0.1220
     30 H9          2.0817   -2.3287    4.3509 H         1 <0>         0.1226
     31 H10         0.0556   -0.9489    4.5837 H         1 <0>         0.1243
     32 H11        -0.9268    0.1394    2.6053 H         1 <0>         0.1244
     33 H12         2.4971    2.1097   -0.1426 H         1 <0>         0.0695
     34 H13         2.3513    0.6966    0.9466 H         1 <0>         0.0889
     35 H14         4.8107    1.6177    0.2785 H         1 <0>         0.0885
     36 H15         4.5164   -0.1534    0.3171 H         1 <0>         0.0776
     37 H16         3.2779   -1.0007   -2.3215 H         1 <0>         0.0694
     38 H17         2.7839    0.5336   -3.0915 H         1 <0>         0.0693
     39 H18         5.5060   -1.1160   -1.5922 H         1 <0>         0.0652
     40 H19         5.6876   -0.2243   -3.1217 H         1 <0>         0.0660
     41 H20         6.8331    0.6098   -0.4172 H         1 <0>         0.0637
     42 H21         7.7576   -0.0737   -1.7763 H         1 <0>         0.0631
     43 H22         7.9479    2.3948   -1.7357 H         1 <0>         0.0614
     44 H23         7.0864    1.8504   -3.1946 H         1 <0>         0.0617
     45 H24         5.7730    2.8552   -0.6290 H         1 <0>         0.0646
     46 H25         5.9369    3.7818   -2.1403 H         1 <0>         0.0631
     47 H26         4.5983    2.0822   -3.3393 H         1 <0>         0.0660
     48 H27         3.6881    2.7333   -1.9555 H         1 <0>         0.0639
@<TRIPOS>BOND
     1    1    2 1
     2    1   22 1
     3    1   23 1
     4    1   24 1
     5    2    3 1
     6    2    4 1
     7    2   10 1
     8    3   25 1
     9    3   26 1
    10    3   27 1
    11    4    9 ar
    12    4    5 ar
    13    5    6 ar
    14    5   28 1
    15    6    7 ar
    16    6   29 1
    17    7    8 ar
    18    7   30 1
    19    8    9 ar
    20    8   31 1
    21    9   32 1
    22   10   11 2
    23   10   12 am
    24   12   16 1
    25   12   13 1
    26   13   14 1
    27   13   33 1
    28   13   34 1
    29   14   15 1
    30   14   35 1
    31   14   36 1
    32   15   21 1
    33   15   16 1
    34   15   17 1
    35   16   37 1
    36   16   38 1
    37   17   18 1
    38   17   39 1
    39   17   40 1
    40   18   19 1
    41   18   41 1
    42   18   42 1
    43   19   20 1
    44   19   43 1
    45   19   44 1
    46   20   21 1
    47   20   45 1
    48   20   46 1
    49   21   47 1
    50   21   48 1
@<TRIPOS>MOLECULE
CHEMBL435136
   50    53     0     0     0
SMALL
USER_CHARGES

@<TRIPOS>ATOM
      1 C1          0.0660    1.4714   -0.0859 C.3       1 <0>        -0.1385
      2 C2         -0.3305    0.0474    0.3092 C.3       1 <0>         0.1537
      3 H1         -0.1708   -0.6238   -0.5347 H         1 <0>         0.0785
      4 C3         -1.8073    0.0195    0.7152 C.3       1 <0>        -0.1504
      5 C4         -2.1616   -1.3735    1.2407 C.3       1 <0>         0.1665
      6 C5         -1.3148   -1.6847    2.4769 C.3       1 <0>        -0.1467
      7 C6          0.1677   -1.6762    2.0909 C.3       1 <0>         0.1156
      8 H2          0.7788   -1.7990    2.9850 H         1 <0>         0.1199
      9 N1          0.4848   -0.3925    1.4496 N.am      1 <0>        -0.6018
     10 C7          1.5016    0.3685    1.9009 C.2       1 <0>         0.5741
     11 O1          1.6845    1.4769    1.4356 O.2       1 <0>        -0.5188
     12 C8          2.3925   -0.1434    2.9594 C.ar      1 <0>        -0.1784
     13 C9          2.6038   -1.5188    3.0925 C.ar      1 <0>        -0.0425
     14 C10         3.4361   -1.9938    4.0817 C.ar      1 <0>        -0.1203
     15 C11         4.0669   -1.1054    4.9490 C.ar      1 <0>         0.2687
     16 C12         3.8579    0.2654    4.8191 C.ar      1 <0>        -0.1187
     17 C13         3.0315    0.7465    3.8278 C.ar      1 <0>         0.0084
     18 Cl1         4.6454    1.3692    5.9031 Cl        1 <0>        -0.0487
     19 N2          4.9074   -1.5883    5.9477 N.pl3     1 <0>        -0.8503
     20 Cl2         3.6986   -3.7018    4.2480 Cl        1 <0>        -0.0514
     21 C14         0.4503   -2.8204    1.1153 C.3       1 <0>        -0.1777
     22 N3         -3.5815   -1.4135    1.5990 N.am      1 <0>        -0.5432
     23 C15        -4.5455   -2.2625    1.0561 C.ar      1 <0>         0.0713
     24 C16        -4.5031   -3.2574    0.0920 C.ar      1 <0>        -0.1027
     25 C17        -5.6561   -3.9413   -0.2407 C.ar      1 <0>        -0.0961
     26 C18        -6.8520   -3.6352    0.3854 C.ar      1 <0>        -0.1077
     27 C19        -6.9019   -2.6450    1.3470 C.ar      1 <0>        -0.0773
     28 C20        -5.7499   -1.9536    1.6879 C.ar      1 <0>         0.0334
     29 O2         -5.4972   -0.9567    2.5710 O.3       1 <0>        -0.2374
     30 C21        -4.1937   -0.6404    2.5178 C.2       1 <0>         0.6347
     31 O3         -3.6502    0.2135    3.1917 O.2       1 <0>        -0.4793
     32 H3          1.1009    1.4786   -0.4282 H         1 <0>         0.0768
     33 H4         -0.5844    1.8204   -0.8878 H         1 <0>         0.0467
     34 H5         -0.0358    2.1295    0.7770 H         1 <0>         0.0758
     35 H6         -1.9839    0.7588    1.4965 H         1 <0>         0.0903
     36 H7         -2.4273    0.2500   -0.1512 H         1 <0>         0.0838
     37 H8         -1.9614   -2.1151    0.4673 H         1 <0>         0.1066
     38 H9         -1.4960   -0.9294    3.2416 H         1 <0>         0.0905
     39 H10        -1.5841   -2.6673    2.8644 H         1 <0>         0.0860
     40 H11         2.1146   -2.2083    2.4204 H         1 <0>         0.1610
     41 H12         2.8736    1.8098    3.7245 H         1 <0>         0.1513
     42 H13         5.0534   -2.5428    6.0391 H         1 <0>         0.4086
     43 H14         5.3472   -0.9702    6.5522 H         1 <0>         0.4091
     44 H15        -0.1581   -2.6931    0.2199 H         1 <0>         0.0682
     45 H16         1.5054   -2.8126    0.8419 H         1 <0>         0.0701
     46 H17         0.2048   -3.7709    1.5892 H         1 <0>         0.0784
     47 H18        -3.5710   -3.4971   -0.3981 H         1 <0>         0.1339
     48 H19        -5.6246   -4.7168   -0.9918 H         1 <0>         0.1405
     49 H20        -7.7504   -4.1729    0.1204 H         1 <0>         0.1433
     50 H21        -7.8374   -2.4098    1.8328 H         1 <0>         0.1420
@<TRIPOS>BOND
     1    1    2 1
     2    1   32 1
     3    1   33 1
     4    1   34 1
     5    2    3 1
     6    2    9 1
     7    2    4 1
     8    4    5 1
     9    4   35 1
    10    4   36 1
    11    5    6 1
    12    5   22 1
    13    5   37 1
    14    6    7 1
    15    6   38 1
    16    6   39 1
    17    7    8 1
    18    7    9 1
    19    7   21 1
    20    9   10 am
    21   10   11 2
    22   10   12 1
    23   12   17 ar
    24   12   13 ar
    25   13   14 ar
    26   13   40 1
    27   14   15 ar
    28   14   20 1
    29   15   16 ar
    30   15   19 1
    31   16   17 ar
    32   16   18 1
    33   17   41 1
    34   19   42 1
    35   19   43 1
    36   21   44 1
    37   21   45 1
    38   21   46 1
    39   22   30 am
    40   22   23 1
    41   23   28 ar
    42   23   24 ar
    43   24   25 ar
    44   24   47 1
    45   25   26 ar
    46   25   48 1
    47   26   27 ar
    48   26   49 1
    49   27   28 ar
    50   27   50 1
    51   28   29 1
    52   29   30 1
    53   30   31 2
@<TRIPOS>MOLECULE
CHEMBL554346
   50    52     0     0     0
SMALL
USER_CHARGES

@<TRIPOS>ATOM
      1 C1         -0.0167    1.3777    0.0096 C.ar      1 <0>        -0.1248
      2 C2          1.1710    2.0855    0.0021 C.ar      1 <0>        -0.0144
      3 C3          2.3777    1.4116   -0.0130 C.ar      1 <0>        -0.6682
      4 C4          2.3977    0.0294   -0.0210 C.ar      1 <0>        -0.0147
      5 C5          1.2098   -0.6793   -0.0135 C.ar      1 <0>        -0.0568
      6 C6          0.0021   -0.0041    0.0020 C.ar      1 <0>        -0.0535
      7 Cl1         1.2341   -2.4151   -0.0242 Cl        1 <0>        -0.0535
      8 S1          3.8908    2.3145   -0.0226 S.o2      1 <0>         2.6957
      9 O1          4.8723    1.4562   -0.5874 O.2       1 <0>        -0.9473
     10 O2          3.5962    3.5950   -0.5638 O.2       1 <0>        -0.9490
     11 N1          4.3263    2.5570    1.5566 N.pl3     1 <0>        -1.1114
     12 C7          4.6698    1.4135    2.4055 C.3       1 <0>         0.1526
     13 C8          5.3706    1.9021    3.6470 C.ar      1 <0>        -0.0773
     14 C9          6.7479    2.0336    3.6537 C.ar      1 <0>        -0.1049
     15 C10         7.3957    2.4804    4.7868 C.ar      1 <0>        -0.0591
     16 C11         6.6585    2.8000    5.9281 C.ar      1 <0>        -0.1265
     17 C12         5.2693    2.6651    5.9146 C.ar      1 <0>        -0.0881
     18 C13         4.6334    2.2227    4.7731 C.ar      1 <0>        -0.1085
     19 C14         7.3461    3.2789    7.1462 C.2       1 <0>         0.5577
     20 O3          8.5561    3.3950    7.1552 O.2       1 <0>        -0.5312
     21 N2          6.6314    3.5867    8.2466 N.am      1 <0>        -0.7233
     22 C15         7.3128    4.0612    9.4536 C.3       1 <0>         0.1449
     23 C16         7.7874    2.8617   10.2763 C.3       1 <0>        -0.1293
     24 C17         8.4990    3.3573   11.5368 C.3       1 <0>        -0.1179
     25 C18         7.5309    4.1977   12.3720 C.3       1 <0>        -0.1229
     26 C19         7.0563    5.3972   11.5492 C.3       1 <0>        -0.1165
     27 C20         6.3447    4.9016   10.2887 C.3       1 <0>        -0.1267
     28 H1         -0.9592    1.9048    0.0259 H         1 <0>         0.1453
     29 H2          1.1559    3.1654    0.0076 H         1 <0>         0.1485
     30 H3          3.3407   -0.4970   -0.0336 H         1 <0>         0.1519
     31 H4         -0.9257   -0.5568    0.0079 H         1 <0>         0.1440
     32 H5          4.3540    3.4561    1.9195 H         1 <0>         0.4231
     33 H6          3.7598    0.8835    2.6868 H         1 <0>         0.0789
     34 H7          5.3284    0.7393    1.8580 H         1 <0>         0.0951
     35 H8          7.3172    1.7856    2.7701 H         1 <0>         0.1364
     36 H9          8.4709    2.5822    4.7909 H         1 <0>         0.1403
     37 H10         4.6932    2.9107    6.7944 H         1 <0>         0.1279
     38 H11         3.5582    2.1220    4.7599 H         1 <0>         0.1325
     39 H12         5.6659    3.4940    8.2394 H         1 <0>         0.3988
     40 H13         8.1714    4.6702    9.1705 H         1 <0>         0.0902
     41 H14         6.9288    2.2528   10.5594 H         1 <0>         0.0636
     42 H15         8.4770    2.2631    9.6813 H         1 <0>         0.0678
     43 H16         8.8370    2.5028   12.1229 H         1 <0>         0.0659
     44 H17         9.3575    3.9663   11.2537 H         1 <0>         0.0652
     45 H18         6.6723    3.5887   12.6551 H         1 <0>         0.0628
     46 H19         8.0378    4.5507   13.2700 H         1 <0>         0.0650
     47 H20         6.3666    5.9958   12.1442 H         1 <0>         0.0683
     48 H21         7.9149    6.0061   11.2661 H         1 <0>         0.0660
     49 H22         6.0066    5.7561    9.7026 H         1 <0>         0.0692
     50 H23         5.4861    4.2926   10.5718 H         1 <0>         0.0681
@<TRIPOS>BOND
     1    1    6 ar
     2    1    2 ar
     3    1   28 1
     4    2    3 ar
     5    2   29 1
     6    3    4 ar
     7    3    8 1
     8    4    5 ar
     9    4   30 1
    10    5    6 ar
    11    5    7 1
    12    6   31 1
    13    8    9 2
    14    8   10 2
    15    8   11 1
    16   11   12 1
    17   11   32 1
    18   12   13 1
    19   12   33 1
    20   12   34 1
    21   13   18 ar
    22   13   14 ar
    23   14   15 ar
    24   14   35 1
    25   15   16 ar
    26   15   36 1
    27   16   17 ar
    28   16   19 1
    29   17   18 ar
    30   17   37 1
    31   18   38 1
    32   19   20 2
    33   19   21 am
    34   21   22 1
    35   21   39 1
    36   22   27 1
    37   22   23 1
    38   22   40 1
    39   23   24 1
    40   23   41 1
    41   23   42 1
    42   24   25 1
    43   24   43 1
    44   24   44 1
    45   25   26 1
    46   25   45 1
    47   25   46 1
    48   26   27 1
    49   26   47 1
    50   26   48 1
    51   27   49 1
    52   27   50 1
@<TRIPOS>MOLECULE
CHEMBL220795
   38    40     0     0     0
SMALL
USER_CHARGES

@<TRIPOS>ATOM
      1 C1         -0.0867    1.7609   -0.6630 C.ar      1 <0>        -0.0124
      2 C2          0.2216    3.1243   -0.6470 C.ar      1 <0>        -0.1896
      3 C3         -0.7587    4.0557   -0.2927 C.ar      1 <0>        -0.0391
      4 C4         -2.0251    3.6281    0.0395 C.ar      1 <0>        -0.1141
      5 C5         -2.3294    2.2692    0.0227 C.ar      1 <0>         0.2625
      6 C6         -1.3547    1.3390   -0.3299 C.ar      1 <0>        -0.1128
      7 Cl1        -1.7387   -0.3539   -0.3501 Cl        1 <0>        -0.0505
      8 N1         -3.6099    1.8399    0.3589 N.pl3     1 <0>        -0.8524
      9 Cl2        -3.2430    4.7840    0.4802 Cl        1 <0>        -0.0519
     10 C7          1.5790    3.5793   -1.0028 C.2       1 <0>         0.6376
     11 O1          2.0251    3.3527   -2.1111 O.2       1 <0>        -0.4529
     12 N2          2.3247    4.2460   -0.0996 N.am      1 <0>        -0.6844
     13 C8          2.3216    5.7109   -0.0854 C.3       1 <0>         0.1690
     14 C9          1.7781    6.2252    1.2637 C.3       1 <0>        -0.1382
     15 C10         0.9554    7.4824    0.8873 C.3       1 <0>        -0.1238
     16 C11         0.2890    7.0677   -0.4480 C.3       1 <0>        -0.1355
     17 C12         1.3749    6.2466   -1.1737 C.3       1 <0>        -0.1471
     18 C13         3.1383    3.5058    0.8681 C.3       1 <0>         0.1140
     19 C14         3.1790    1.9819    0.7378 C.3       1 <0>        -0.1945
     20 C15         2.4038    2.6311    1.8861 C.3       1 <0>        -0.1993
     21 H1          0.6675    1.0394   -0.9407 H         1 <0>         0.1418
     22 H2         -0.5232    5.1097   -0.2791 H         1 <0>         0.1637
     23 H3         -4.2895    2.4870    0.6046 H         1 <0>         0.4082
     24 H4         -3.8229    0.8936    0.3474 H         1 <0>         0.4083
     25 H5          3.3311    6.0877   -0.2501 H         1 <0>         0.0775
     26 H6          1.1378    5.4751    1.7278 H         1 <0>         0.0770
     27 H7          2.5992    6.4917    1.9291 H         1 <0>         0.0722
     28 H8          0.2017    7.6923    1.6463 H         1 <0>         0.0719
     29 H9          1.6090    8.3425    0.7421 H         1 <0>         0.0725
     30 H10        -0.5918    6.4537   -0.2603 H         1 <0>         0.0744
     31 H11         0.0235    7.9491   -1.0317 H         1 <0>         0.0760
     32 H12         1.9247    6.8841   -1.8661 H         1 <0>         0.0833
     33 H13         0.9177    5.4166   -1.7124 H         1 <0>         0.0683
     34 H14         4.0478    4.0074    1.1988 H         1 <0>         0.1283
     35 H15         2.6003    1.5301   -0.0679 H         1 <0>         0.0887
     36 H16         4.1154    1.4806    0.9826 H         1 <0>         0.1065
     37 H17         2.8303    2.5569    2.8864 H         1 <0>         0.1010
     38 H18         1.3153    2.6063    1.8359 H         1 <0>         0.0958
@<TRIPOS>BOND
     1    1    6 ar
     2    1    2 ar
     3    1   21 1
     4    2    3 ar
     5    2   10 1
     6    3    4 ar
     7    3   22 1
     8    4    5 ar
     9    4    9 1
    10    5    6 ar
    11    5    8 1
    12    6    7 1
    13    8   23 1
    14    8   24 1
    15   10   11 2
    16   10   12 am
    17   12   13 1
    18   12   18 1
    19   13   17 1
    20   13   14 1
    21   13   25 1
    22   14   15 1
    23   14   26 1
    24   14   27 1
    25   15   16 1
    26   15   28 1
    27   15   29 1
    28   16   17 1
    29   16   30 1
    30   16   31 1
    31   17   32 1
    32   17   33 1
    33   18   20 1
    34   18   19 1
    35   18   34 1
    36   19   20 1
    37   19   35 1
    38   19   36 1
    39   20   37 1
    40   20   38 1
@<TRIPOS>MOLECULE
CHEMBL1085612
   36    38     0     0     0
SMALL
USER_CHARGES

@<TRIPOS>ATOM
      1 C1         -0.3043    1.0927   -0.6958 C.ar      1 <0>        -0.0848
      2 C2          0.8308    1.8704   -0.5467 C.ar      1 <0>        -0.1318
      3 C3          2.0649    1.2739   -0.3974 C.ar      1 <0>        -0.0598
      4 C4          2.1677   -0.1208   -0.3964 C.ar      1 <0>        -0.1744
      5 C5          1.0160   -0.8998   -0.5471 C.ar      1 <0>        -0.0739
      6 C6         -0.2108   -0.2882   -0.6959 C.ar      1 <0>        -0.1323
      7 C7          3.4812   -0.7656   -0.2380 C.2       1 <0>         0.3990
      8 O1          4.4778   -0.0872   -0.1080 O.2       1 <0>        -0.4448
      9 C8          3.5875   -2.2688   -0.2375 C.3       1 <0>        -0.1661
     10 C9          5.0513   -2.6765   -0.0584 C.3       1 <0>        -0.0433
     11 C10         5.1449   -4.1763    0.0540 C.2       1 <0>        -0.0111
     12 C11         5.1459   -5.0705   -0.9623 C.2       1 <0>        -0.0374
     13 N1          5.2456   -6.2819   -0.4036 N.2       1 <0>        -0.2562
     14 N2          5.3029   -6.1515    0.8745 N.2       1 <0>        -0.0726
     15 N3          5.2515   -4.9065    1.1978 N.pl3     1 <0>        -0.2464
     16 C12         5.2950   -4.3922    2.5018 C.ar      1 <0>         0.1304
     17 C13         4.4391   -3.3636    2.8726 C.ar      1 <0>        -0.1091
     18 C14         4.4837   -2.8585    4.1572 C.ar      1 <0>        -0.0865
     19 C15         5.3799   -3.3756    5.0745 C.ar      1 <0>        -0.0932
     20 C16         6.2346   -4.4004    4.7084 C.ar      1 <0>        -0.0207
     21 C17         6.1895   -4.9142    3.4255 C.ar      1 <0>        -0.0863
     22 Cl1         7.3591   -5.0462    5.8625 Cl        1 <0>        -0.0455
     23 H1         -1.2686    1.5658   -0.8082 H         1 <0>         0.1290
     24 H2          0.7497    2.9474   -0.5477 H         1 <0>         0.1308
     25 H3          2.9499    1.8821   -0.2819 H         1 <0>         0.1345
     26 H4          1.0874   -1.9774   -0.5477 H         1 <0>         0.1315
     27 H5         -1.1011   -0.8883   -0.8124 H         1 <0>         0.1307
     28 H6          2.9944   -2.6747    0.5820 H         1 <0>         0.0995
     29 H7          3.2147   -2.6597   -1.1842 H         1 <0>         0.1130
     30 H8          5.6301   -2.3398   -0.9185 H         1 <0>         0.1059
     31 H9          5.4476   -2.2187    0.8480 H         1 <0>         0.0894
     32 H10         5.0787   -4.8493   -2.0173 H         1 <0>         0.1968
     33 H11         3.7392   -2.9585    2.1567 H         1 <0>         0.1398
     34 H12         3.8180   -2.0584    4.4456 H         1 <0>         0.1496
     35 H13         5.4131   -2.9788    6.0784 H         1 <0>         0.1473
     36 H14         6.8530   -5.7175    3.1412 H         1 <0>         0.1489
@<TRIPOS>BOND
     1    1    6 ar
     2    1    2 ar
     3    1   23 1
     4    2    3 ar
     5    2   24 1
     6    3    4 ar
     7    3   25 1
     8    4    5 ar
     9    4    7 1
    10    5    6 ar
    11    5   26 1
    12    6   27 1
    13    7    8 2
    14    7    9 1
    15    9   10 1
    16    9   28 1
    17    9   29 1
    18   10   11 1
    19   10   30 1
    20   10   31 1
    21   11   15 1
    22   11   12 2
    23   12   13 1
    24   12   32 1
    25   13   14 2
    26   14   15 1
    27   15   16 1
    28   16   21 ar
    29   16   17 ar
    30   17   18 ar
    31   17   33 1
    32   18   19 ar
    33   18   34 1
    34   19   20 ar
    35   19   35 1
    36   20   21 ar
    37   20   22 1
    38   21   36 1
@<TRIPOS>MOLECULE
CHEMBL256291
   47    50     0     0     0
SMALL
USER_CHARGES

@<TRIPOS>ATOM
      1 C1          2.0714    1.2699    1.2423 C.ar      1 <0>        -0.1279
      2 C2          1.5914    2.0649    0.2179 C.ar      1 <0>        -0.0880
      3 C3          0.9936    1.4854   -0.8849 C.ar      1 <0>        -0.1535
      4 C4          0.8754    0.1079   -0.9639 C.ar      1 <0>         0.1108
      5 C5          1.3564   -0.6870    0.0623 C.ar      1 <0>        -0.1133
      6 C6          1.9540   -0.1052    1.1645 C.ar      1 <0>        -0.0949
      7 C7          1.2281   -2.1862   -0.0220 C.3       1 <0>         0.0729
      8 C8          1.9119   -2.8443    1.1942 C.3       1 <0>        -0.1254
      9 C9          0.7575   -3.0731    2.2012 C.3       1 <0>        -0.1224
     10 C10        -0.4207   -3.4830    1.2832 C.3       1 <0>        -0.1222
     11 C11        -0.2550   -2.5923    0.0346 C.3       1 <0>        -0.1093
     12 C12         1.8519   -2.6863   -1.2994 C.2       1 <0>         0.1728
     13 N1          1.2516   -3.3651   -2.2358 N.2       1 <0>        -0.2747
     14 N2          2.0711   -3.5838   -3.2011 N.2       1 <0>        -0.2962
     15 C13         3.2224   -3.0337   -2.9243 C.2       1 <0>         0.1923
     16 N3          3.1476   -2.5058   -1.6896 N.pl3     1 <0>        -0.4580
     17 C14         4.1634   -1.9250   -0.8066 C.3       1 <0>         0.1045
     18 C15         5.5547   -1.9526   -1.4400 C.3       1 <0>        -0.1418
     19 C16         5.7203   -0.8239   -2.4452 C.3       1 <0>        -0.1238
     20 C17         4.4651   -0.5579   -3.2526 C.3       1 <0>        -0.1369
     21 C18         4.4687   -1.5396   -4.4291 C.3       1 <0>        -0.1164
     22 C19         4.4095   -2.9746   -3.8565 C.3       1 <0>        -0.0468
     23 F1          0.2907   -0.4597   -2.0415 F         1 <0>        -0.1267
     24 H1          2.5425    1.7234    2.1018 H         1 <0>         0.1324
     25 H2          1.6833    3.1392    0.2800 H         1 <0>         0.1339
     26 H3          0.6184    2.1066   -1.6847 H         1 <0>         0.1359
     27 H4          2.3297   -0.7251    1.9650 H         1 <0>         0.1419
     28 H5          2.3639   -3.7945    0.9098 H         1 <0>         0.0743
     29 H6          2.6613   -2.1760    1.6184 H         1 <0>         0.0809
     30 H7          1.0039   -3.8766    2.8953 H         1 <0>         0.0733
     31 H8          0.5263   -2.1538    2.7392 H         1 <0>         0.0723
     32 H9         -0.3454   -4.5363    1.0131 H         1 <0>         0.0701
     33 H10        -1.3737   -3.2808    1.7722 H         1 <0>         0.0715
     34 H11        -0.8820   -1.7050    0.1230 H         1 <0>         0.0697
     35 H12        -0.5234   -3.1518   -0.8615 H         1 <0>         0.0964
     36 H13         3.8940   -0.8918   -0.5876 H         1 <0>         0.0905
     37 H14         4.1871   -2.4890    0.1259 H         1 <0>         0.0901
     38 H15         6.3062   -1.8477   -0.6574 H         1 <0>         0.0906
     39 H16         5.6982   -2.9068   -1.9468 H         1 <0>         0.0838
     40 H17         5.9917    0.0857   -1.9094 H         1 <0>         0.0634
     41 H18         6.5295   -1.0796   -3.1292 H         1 <0>         0.0726
     42 H19         3.5833   -0.7232   -2.6336 H         1 <0>         0.0690
     43 H20         4.4726    0.4669   -3.6240 H         1 <0>         0.0694
     44 H21         3.6009   -1.3575   -5.0630 H         1 <0>         0.0697
     45 H22         5.3824   -1.4144   -5.0102 H         1 <0>         0.0790
     46 H23         5.3234   -3.2011   -3.3074 H         1 <0>         0.0951
     47 H24         4.2781   -3.6885   -4.6695 H         1 <0>         0.0992
@<TRIPOS>BOND
     1    1    6 ar
     2    1    2 ar
     3    1   24 1
     4    2    3 ar
     5    2   25 1
     6    3    4 ar
     7    3   26 1
     8    4    5 ar
     9    4   23 1
    10    5    6 ar
    11    5    7 1
    12    6   27 1
    13    7   11 1
    14    7    8 1
    15    7   12 1
    16    8    9 1
    17    8   28 1
    18    8   29 1
    19    9   10 1
    20    9   30 1
    21    9   31 1
    22   10   11 1
    23   10   32 1
    24   10   33 1
    25   11   34 1
    26   11   35 1
    27   12   16 1
    28   12   13 2
    29   13   14 1
    30   14   15 2
    31   15   22 1
    32   15   16 1
    33   16   17 1
    34   17   18 1
    35   17   36 1
    36   17   37 1
    37   18   19 1
    38   18   38 1
    39   18   39 1
    40   19   20 1
    41   19   40 1
    42   19   41 1
    43   20   21 1
    44   20   42 1
    45   20   43 1
    46   21   22 1
    47   21   44 1
    48   21   45 1
    49   22   46 1
    50   22   47 1
@<TRIPOS>MOLECULE
CHEMBL373547
   45    48     0     0     0
SMALL
USER_CHARGES

@<TRIPOS>ATOM
      1 C1         -0.7606    1.3209    0.0923 C.3       1 <0>         0.0607
      2 N1         -0.3408   -0.0819    0.0467 N.am      1 <0>        -0.6037
      3 C2          0.1240   -0.6827    1.1600 C.2       1 <0>         0.5704
      4 O1          0.5414   -1.8236    1.1061 O.2       1 <0>        -0.5235
      5 C3          0.1265    0.0437    2.4440 C.ar      1 <0>        -0.1726
      6 C4         -0.2619   -0.6080    3.6181 C.ar      1 <0>         0.0024
      7 C5         -0.2587    0.0727    4.8154 C.ar      1 <0>        -0.1179
      8 C6          0.1311    1.4090    4.8571 C.ar      1 <0>         0.2658
      9 C7          0.5181    2.0610    3.6889 C.ar      1 <0>        -0.1191
     10 C8          0.5228    1.3835    2.4898 C.ar      1 <0>        -0.0243
     11 Cl1         1.0021    3.7272    3.7454 Cl        1 <0>        -0.0520
     12 N2          0.1334    2.0944    6.0684 N.pl3     1 <0>        -0.8517
     13 Cl2        -0.7414   -0.7357    6.2738 Cl        1 <0>        -0.0504
     14 C9         -0.4264   -0.8317   -1.2089 C.3       1 <0>         0.1873
     15 C10         0.9678   -1.3202   -1.6072 C.3       1 <0>        -0.1231
     16 C11         0.8785   -2.1032   -2.9186 C.3       1 <0>        -0.0823
     17 C12         0.3228   -1.1955   -4.0178 C.3       1 <0>        -0.1113
     18 C13        -1.0714   -0.7071   -3.6195 C.3       1 <0>        -0.0818
     19 C14        -0.9820    0.0760   -2.3081 C.3       1 <0>        -0.1138
     20 C15        -1.9991   -1.9093   -3.4334 C.3       1 <0>        -0.1112
     21 C16        -1.4435   -2.8171   -2.3343 C.3       1 <0>        -0.0818
     22 C17        -0.0493   -3.3055   -2.7326 C.3       1 <0>        -0.1096
     23 C18        -1.3542   -2.0340   -1.0229 C.3       1 <0>        -0.1211
     24 H1          0.0773    1.9601   -0.1859 H         1 <0>         0.0598
     25 H2         -1.5837    1.4767   -0.6051 H         1 <0>         0.0788
     26 H3         -1.0878    1.5696    1.1018 H         1 <0>         0.0797
     27 H4         -0.5646   -1.6443    3.5863 H         1 <0>         0.1477
     28 H5          0.8276    1.8882    1.5849 H         1 <0>         0.1481
     29 H6         -0.1363    1.6413    6.8826 H         1 <0>         0.4086
     30 H7          0.4047    3.0252    6.0985 H         1 <0>         0.4083
     31 H8          1.6288   -0.4637   -1.7398 H         1 <0>         0.0590
     32 H9          1.3637   -1.9669   -0.8242 H         1 <0>         0.0889
     33 H10         1.8717   -2.4512   -3.2024 H         1 <0>         0.0726
     34 H11         0.9838   -0.3390   -4.1504 H         1 <0>         0.0621
     35 H12         0.2592   -1.7534   -4.9521 H         1 <0>         0.0648
     36 H13        -1.4672   -0.0604   -4.4026 H         1 <0>         0.0750
     37 H14        -1.9753    0.4240   -2.0244 H         1 <0>         0.0701
     38 H15        -0.3211    0.9325   -2.4407 H         1 <0>         0.0695
     39 H16        -2.9924   -1.5613   -3.1497 H         1 <0>         0.0622
     40 H17        -2.0628   -2.4672   -4.3677 H         1 <0>         0.0651
     41 H18        -2.1044   -3.6736   -2.2017 H         1 <0>         0.0728
     42 H19        -0.1130   -3.8634   -3.6668 H         1 <0>         0.0629
     43 H20         0.3466   -3.9522   -1.9495 H         1 <0>         0.0653
     44 H21        -0.9583   -2.6807   -0.2398 H         1 <0>         0.0833
     45 H22        -2.3474   -1.6860   -0.7391 H         1 <0>         0.0600
@<TRIPOS>BOND
     1    1    2 1
     2    1   24 1
     3    1   25 1
     4    1   26 1
     5    2    3 am
     6    2   14 1
     7    3    4 2
     8    3    5 1
     9    5   10 ar
    10    5    6 ar
    11    6    7 ar
    12    6   27 1
    13    7    8 ar
    14    7   13 1
    15    8    9 ar
    16    8   12 1
    17    9   10 ar
    18    9   11 1
    19   10   28 1
    20   12   29 1
    21   12   30 1
    22   14   19 1
    23   14   23 1
    24   14   15 1
    25   15   16 1
    26   15   31 1
    27   15   32 1
    28   16   22 1
    29   16   17 1
    30   16   33 1
    31   17   18 1
    32   17   34 1
    33   17   35 1
    34   18   19 1
    35   18   20 1
    36   18   36 1
    37   19   37 1
    38   19   38 1
    39   20   21 1
    40   20   39 1
    41   20   40 1
    42   21   22 1
    43   21   23 1
    44   21   41 1
    45   22   42 1
    46   22   43 1
    47   23   44 1
    48   23   45 1
@<TRIPOS>MOLECULE
CHEMBL1084714
   38    40     0     0     0
SMALL
USER_CHARGES

@<TRIPOS>ATOM
      1 C1          1.7810    0.8783    0.3611 C.3       1 <0>        -0.1322
      2 C2          0.8653   -0.3032    0.1700 C.ar      1 <0>        -0.0541
      3 C3          0.7895   -0.9274   -1.0601 C.ar      1 <0>        -0.1064
      4 C4         -0.0507   -2.0111   -1.2363 C.ar      1 <0>        -0.0939
      5 C5         -0.8176   -2.4735   -0.1824 C.ar      1 <0>        -0.1071
      6 C6         -0.7461   -1.8535    1.0496 C.ar      1 <0>        -0.1026
      7 C7          0.1014   -0.7689    1.2312 C.ar      1 <0>         0.1104
      8 N1          0.1809   -0.1410    2.4829 N.pl3     1 <0>        -0.3263
      9 C8          0.3880   -0.7264    3.6824 C.2       1 <0>         0.2557
     10 N2          0.3902    0.2222    4.5821 N.2       1 <0>        -0.3239
     11 N3          0.1987    1.3673    4.0332 N.2       1 <0>        -0.0334
     12 N4          0.0682    1.2334    2.7574 N.2       1 <0>        -0.0744
     13 C9          0.5802   -2.1993    3.9365 C.3       1 <0>        -0.0384
     14 C10         2.0758   -2.5192    3.9758 C.3       1 <0>        -0.1625
     15 C11         2.2681   -3.9921    4.2299 C.2       1 <0>         0.4046
     16 O1          1.3039   -4.7147    4.3661 O.2       1 <0>        -0.4461
     17 C12         3.6259   -4.5535    4.3127 C.ar      1 <0>        -0.1731
     18 C13         4.7405   -3.7223    4.1619 C.ar      1 <0>        -0.0729
     19 C14         6.0095   -4.2558    4.2413 C.ar      1 <0>        -0.1324
     20 C15         6.1818   -5.6100    4.4695 C.ar      1 <0>        -0.0845
     21 C16         5.0838   -6.4391    4.6194 C.ar      1 <0>        -0.1320
     22 C17         3.8084   -5.9199    4.5484 C.ar      1 <0>        -0.0588
     23 H1          2.7314    0.5386    0.7726 H         1 <0>         0.0727
     24 H2          1.9537    1.3633   -0.5997 H         1 <0>         0.0788
     25 H3          1.3202    1.5877    1.0485 H         1 <0>         0.0853
     26 H4          1.3870   -0.5683   -1.8850 H         1 <0>         0.1385
     27 H5         -0.1085   -2.4974   -2.1989 H         1 <0>         0.1364
     28 H6         -1.4733   -3.3200   -0.3230 H         1 <0>         0.1397
     29 H7         -1.3455   -2.2148    1.8721 H         1 <0>         0.1348
     30 H8          0.1265   -2.4656    4.8911 H         1 <0>         0.1201
     31 H9          0.1073   -2.7706    3.1376 H         1 <0>         0.1029
     32 H10         2.5295   -2.2529    3.0211 H         1 <0>         0.1031
     33 H11         2.5487   -1.9479    4.7747 H         1 <0>         0.1150
     34 H12         4.6077   -2.6655    3.9834 H         1 <0>         0.1308
     35 H13         6.8713   -3.6153    4.1247 H         1 <0>         0.1306
     36 H14         7.1783   -6.0219    4.5307 H         1 <0>         0.1292
     37 H15         5.2264   -7.4949    4.7969 H         1 <0>         0.1311
     38 H16         2.9527   -6.5674    4.6699 H         1 <0>         0.1351
@<TRIPOS>BOND
     1    1    2 1
     2    1   23 1
     3    1   24 1
     4    1   25 1
     5    2    7 ar
     6    2    3 ar
     7    3    4 ar
     8    3   26 1
     9    4    5 ar
    10    4   27 1
    11    5    6 ar
    12    5   28 1
    13    6    7 ar
    14    6   29 1
    15    7    8 1
    16    8   12 1
    17    8    9 1
    18    9   10 2
    19    9   13 1
    20   10   11 1
    21   11   12 2
    22   13   14 1
    23   13   30 1
    24   13   31 1
    25   14   15 1
    26   14   32 1
    27   14   33 1
    28   15   16 2
    29   15   17 1
    30   17   22 ar
    31   17   18 ar
    32   18   19 ar
    33   18   34 1
    34   19   20 ar
    35   19   35 1
    36   20   21 ar
    37   20   36 1
    38   21   22 ar
    39   21   37 1
    40   22   38 1
@<TRIPOS>MOLECULE
CHEMBL387424
   55    57     0     0     0
SMALL
USER_CHARGES

@<TRIPOS>ATOM
      1 C1         -2.8896   -1.7669   -0.5060 C.3       1 <0>        -0.1530
      2 C2         -1.4248   -1.3304   -0.4374 C.3       1 <0>         0.0572
      3 O1         -0.8473   -1.7909    0.7859 O.3       1 <0>        -0.3469
      4 C3          0.4425   -1.4891    1.0025 C.2       1 <0>         0.4923
      5 O2          1.0608   -0.8549    0.1807 O.2       1 <0>        -0.4960
      6 C4          1.1195   -1.9413    2.2707 C.3       1 <0>        -0.1598
      7 C5          2.4358   -2.7089    2.1330 C.3       1 <0>        -0.1142
      8 H1          3.2066   -2.5455    2.8862 H         1 <0>         0.1234
      9 C6          1.1536   -3.4442    2.5553 C.3       1 <0>        -0.1234
     10 H2          1.0667   -3.7727    3.5910 H         1 <0>         0.1241
     11 C7          0.5428   -4.3714    1.4928 C.3       1 <0>        -0.0935
     12 C8          1.4128   -5.6196    1.3648 C.3       1 <0>        -0.1254
     13 C9          2.4804   -5.4452    0.3030 C.3       1 <0>         0.1484
     14 C10         3.5243   -4.4090    0.6696 C.3       1 <0>        -0.1299
     15 C11         2.9376   -2.9872    0.7074 C.3       1 <0>        -0.0921
     16 N1          1.8367   -5.0418   -0.9496 N.am      1 <0>        -0.7217
     17 C12         2.4357   -5.3004   -2.1289 C.2       1 <0>         0.4911
     18 O3          3.5077   -5.8671   -2.1531 O.2       1 <0>        -0.5100
     19 C13         1.7735   -4.8855   -3.4175 C.3       1 <0>         0.0968
     20 C14         0.4120   -5.5734   -3.5358 C.3       1 <0>        -0.1381
     21 C15         1.5805   -3.3677   -3.4260 C.3       1 <0>        -0.1972
     22 O4          2.5975   -5.2670   -4.5209 O.3       1 <0>        -0.2818
     23 C16         3.8360   -4.7111   -4.5874 C.ar      1 <0>         0.1445
     24 C17         4.2961   -3.9139   -3.5496 C.ar      1 <0>        -0.1733
     25 C18         5.5552   -3.3497   -3.6191 C.ar      1 <0>        -0.0751
     26 C19         6.3570   -3.5790   -4.7231 C.ar      1 <0>        -0.0696
     27 C20         5.8997   -4.3734   -5.7596 C.ar      1 <0>        -0.0740
     28 C21         4.6438   -4.9448   -5.6907 C.ar      1 <0>        -0.1387
     29 Cl1         7.9386   -2.8684   -4.8084 Cl        1 <0>        -0.0727
     30 H3         -3.4353   -1.3415    0.3362 H         1 <0>         0.0682
     31 H4         -3.3301   -1.4156   -1.4391 H         1 <0>         0.0808
     32 H5         -2.9469   -2.8546   -0.4640 H         1 <0>         0.0672
     33 H6         -0.8790   -1.7558   -1.2796 H         1 <0>         0.0649
     34 H7         -1.3674   -0.2427   -0.4794 H         1 <0>         0.0686
     35 H8          1.0159   -1.2704    3.1235 H         1 <0>         0.1443
     36 H9         -0.4646   -4.6582    1.7945 H         1 <0>         0.0817
     37 H10         0.5048   -3.8532    0.5346 H         1 <0>         0.0589
     38 H11         1.8925   -5.8194    2.3230 H         1 <0>         0.0864
     39 H12         0.7820   -6.4681    1.0997 H         1 <0>         0.0745
     40 H13         2.9775   -6.4024    0.1457 H         1 <0>         0.0907
     41 H14         3.9348   -4.6483    1.6505 H         1 <0>         0.0779
     42 H15         4.3270   -4.4357   -0.0674 H         1 <0>         0.0717
     43 H16         2.1049   -2.9181    0.0074 H         1 <0>         0.0661
     44 H17         3.7021   -2.2575    0.4407 H         1 <0>         0.0747
     45 H18         0.9793   -4.5885   -0.9303 H         1 <0>         0.3965
     46 H19        -0.2462   -5.2148   -2.7444 H         1 <0>         0.0818
     47 H20        -0.0280   -5.3438   -4.5062 H         1 <0>         0.0848
     48 H21         0.5403   -6.6516   -3.4409 H         1 <0>         0.0751
     49 H22         2.5523   -2.8782   -3.4895 H         1 <0>         0.0880
     50 H23         0.9736   -3.0834   -4.2856 H         1 <0>         0.0851
     51 H24         1.0781   -3.0602   -2.5088 H         1 <0>         0.0737
     52 H25         3.6702   -3.7342   -2.6879 H         1 <0>         0.1352
     53 H26         5.9137   -2.7290   -2.8112 H         1 <0>         0.1324
     54 H27         6.5268   -4.5509   -6.6207 H         1 <0>         0.1398
     55 H28         4.2890   -5.5688   -6.4977 H         1 <0>         0.1397
@<TRIPOS>BOND
     1    1    2 1
     2    1   30 1
     3    1   31 1
     4    1   32 1
     5    2    3 1
     6    2   33 1
     7    2   34 1
     8    3    4 1
     9    4    5 2
    10    4    6 1
    11    6    9 1
    12    6    7 1
    13    6   35 1
    14    7    8 1
    15    7   15 1
    16    7    9 1
    17    9   10 1
    18    9   11 1
    19   11   12 1
    20   11   36 1
    21   11   37 1
    22   12   13 1
    23   12   38 1
    24   12   39 1
    25   13   14 1
    26   13   16 1
    27   13   40 1
    28   14   15 1
    29   14   41 1
    30   14   42 1
    31   15   43 1
    32   15   44 1
    33   16   17 am
    34   16   45 1
    35   17   18 2
    36   17   19 1
    37   19   20 1
    38   19   21 1
    39   19   22 1
    40   20   46 1
    41   20   47 1
    42   20   48 1
    43   21   49 1
    44   21   50 1
    45   21   51 1
    46   22   23 1
    47   23   28 ar
    48   23   24 ar
    49   24   25 ar
    50   24   52 1
    51   25   26 ar
    52   25   53 1
    53   26   27 ar
    54   26   29 1
    55   27   28 ar
    56   27   54 1
    57   28   55 1
@<TRIPOS>MOLECULE
CHEMBL396883
   42    43     0     0     0
SMALL
USER_CHARGES

@<TRIPOS>ATOM
      1 C1         -0.0187    1.5258    0.0104 C.3       1 <0>        -0.1557
      2 C2          0.0021   -0.0041    0.0020 C.3       1 <0>        -0.0796
      3 C3          0.7421   -0.5109    1.2415 C.3       1 <0>        -0.1471
      4 C4         -1.4333   -0.5336    0.0129 C.3       1 <0>         0.0189
      5 C5         -2.2278    0.0548   -1.1363 C.2       1 <0>         0.5063
      6 O1         -2.0059   -0.0706   -2.3244 O.2       1 <0>        -0.4608
      7 N1         -3.2214    0.7389   -0.5684 N.2       1 <0>        -0.6457
      8 C6         -3.1680    0.6674    0.7428 C.2       1 <0>         0.6061
      9 O2         -2.1345   -0.0707    1.1787 O.3       1 <0>        -0.3132
     10 N2         -4.0619    1.2748    1.5681 N.pl3     1 <0>        -0.6566
     11 C7         -5.1615    2.0620    1.0047 C.3       1 <0>         0.1613
     12 C8         -4.6401    3.4715    0.6577 C.3       1 <0>        -0.1240
     13 C9         -5.5681    4.0888   -0.3532 C.3       1 <0>        -0.1165
     14 C10        -6.6545    4.9637    0.3010 C.3       1 <0>        -0.1200
     15 C11        -7.2461    4.3290    1.5742 C.3       1 <0>        -0.1227
     16 C12        -7.4875    2.8516    1.4225 C.3       1 <0>        -0.1083
     17 C13        -6.2563    2.0957    1.9630 C.3       1 <0>        -0.1361
     18 C14        -1.4420   -2.0624   -0.0491 C.3       1 <0>        -0.1398
     19 H1          1.0039    1.9031    0.0027 H         1 <0>         0.0699
     20 H2         -0.5459    1.8868   -0.8726 H         1 <0>         0.0576
     21 H3         -0.5289    1.8773    0.9072 H         1 <0>         0.0557
     22 H4          0.5123   -0.3556   -0.8948 H         1 <0>         0.1002
     23 H5          0.7568   -1.6008    1.2356 H         1 <0>         0.0620
     24 H6          1.7647   -0.1336    1.2338 H         1 <0>         0.0637
     25 H7          0.2319   -0.1594    2.1383 H         1 <0>         0.0611
     26 H8         -3.9715    1.1868    2.5299 H         1 <0>         0.4183
     27 H9         -5.5076    1.5802    0.0902 H         1 <0>         0.1013
     28 H10        -4.6184    4.0857    1.5579 H         1 <0>         0.0697
     29 H11        -3.6373    3.3977    0.2371 H         1 <0>         0.0719
     30 H12        -4.9847    4.7043   -1.0379 H         1 <0>         0.0651
     31 H13        -6.0506    3.2933   -0.9211 H         1 <0>         0.0665
     32 H14        -6.2200    5.9295    0.5589 H         1 <0>         0.0596
     33 H15        -7.4579    5.1229   -0.4182 H         1 <0>         0.0615
     34 H16        -6.5557    4.4904    2.4021 H         1 <0>         0.0614
     35 H17        -8.1919    4.8189    1.8057 H         1 <0>         0.0621
     36 H18        -8.3720    2.5648    1.9913 H         1 <0>         0.0721
     37 H19        -7.6319    2.6104    0.3694 H         1 <0>         0.0727
     38 H20        -6.5472    1.0729    2.2028 H         1 <0>         0.0717
     39 H21        -5.9130    2.5859    2.8740 H         1 <0>         0.0715
     40 H22        -0.9104   -2.4640    0.8136 H         1 <0>         0.0809
     41 H23        -2.4715   -2.4205   -0.0404 H         1 <0>         0.0663
     42 H24        -0.9505   -2.3917   -0.9645 H         1 <0>         0.0905
@<TRIPOS>BOND
     1    1    2 1
     2    1   19 1
     3    1   20 1
     4    1   21 1
     5    2    3 1
     6    2    4 1
     7    2   22 1
     8    3   23 1
     9    3   24 1
    10    3   25 1
    11    4    9 1
    12    4    5 1
    13    4   18 1
    14    5    6 2
    15    5    7 1
    16    7    8 2
    17    8    9 1
    18    8   10 1
    19   10   11 1
    20   10   26 1
    21   11   17 1
    22   11   12 1
    23   11   27 1
    24   12   13 1
    25   12   28 1
    26   12   29 1
    27   13   14 1
    28   13   30 1
    29   13   31 1
    30   14   15 1
    31   14   32 1
    32   14   33 1
    33   15   16 1
    34   15   34 1
    35   15   35 1
    36   16   17 1
    37   16   36 1
    38   16   37 1
    39   17   38 1
    40   17   39 1
    41   18   40 1
    42   18   41 1
    43   18   42 1
@<TRIPOS>MOLECULE
CHEMBL396883__1
   42    43     0     0     0
SMALL
USER_CHARGES

@<TRIPOS>ATOM
      1 C1         -0.0187    1.5258    0.0104 C.3       1 <0>        -0.1570
      2 C2          0.0021   -0.0041    0.0020 C.3       1 <0>        -0.0769
      3 C3          0.7421   -0.5109    1.2415 C.3       1 <0>        -0.1555
      4 C4         -1.4333   -0.5336    0.0129 C.3       1 <0>         0.0168
      5 C5         -2.2403    0.1346    1.1084 C.2       1 <0>         0.5083
      6 O1         -2.0317    0.0941    2.3049 O.2       1 <0>        -0.4582
      7 N1         -3.2273    0.7762    0.4824 N.2       1 <0>        -0.6458
      8 C6         -3.1593    0.6118   -0.8198 C.2       1 <0>         0.6061
      9 O2         -2.1213   -0.1550   -1.1906 O.3       1 <0>        -0.3167
     10 N2         -4.0438    1.1586   -1.6960 N.pl3     1 <0>        -0.6567
     11 C7         -5.1486    1.9843   -1.2023 C.3       1 <0>         0.1614
     12 C8         -6.2944    1.0610   -0.7403 C.3       1 <0>        -0.1242
     13 C9         -7.1756    1.8300    0.2066 C.3       1 <0>        -0.1164
     14 C10        -8.3745    2.4856   -0.5050 C.3       1 <0>        -0.1200
     15 C11        -7.9939    3.1176   -1.8575 C.3       1 <0>        -0.1227
     16 C12        -6.6830    3.8541   -1.8005 C.3       1 <0>        -0.1083
     17 C13        -5.5628    2.8972   -2.2574 C.3       1 <0>        -0.1361
     18 C14        -1.4433   -2.0541    0.1832 C.3       1 <0>        -0.1405
     19 H1          1.0039    1.9031    0.0027 H         1 <0>         0.0703
     20 H2         -0.5459    1.8868   -0.8726 H         1 <0>         0.0534
     21 H3         -0.5289    1.8773    0.9072 H         1 <0>         0.0599
     22 H4          0.5123   -0.3556   -0.8948 H         1 <0>         0.0890
     23 H5          0.7568   -1.6008    1.2356 H         1 <0>         0.0640
     24 H6          1.7647   -0.1336    1.2338 H         1 <0>         0.0667
     25 H7          0.2319   -0.1594    2.1383 H         1 <0>         0.0749
     26 H8         -3.9431    1.0020   -2.6480 H         1 <0>         0.4184
     27 H9         -4.8000    2.5660   -0.3490 H         1 <0>         0.1014
     28 H10        -6.8770    0.7402   -1.6038 H         1 <0>         0.0699
     29 H11        -5.8806    0.1909   -0.2305 H         1 <0>         0.0717
     30 H12        -7.5487    1.1498    0.9722 H         1 <0>         0.0652
     31 H13        -6.5824    2.6079    0.6873 H         1 <0>         0.0665
     32 H14        -9.1401    1.7283   -0.6739 H         1 <0>         0.0597
     33 H15        -8.7863    3.2604    0.1417 H         1 <0>         0.0615
     34 H16        -7.9235    2.3298   -2.6075 H         1 <0>         0.0615
     35 H17        -8.7775    3.8149   -2.1539 H         1 <0>         0.0622
     36 H18        -6.7194    4.7183   -2.4637 H         1 <0>         0.0721
     37 H19        -6.4909    4.1811   -0.7786 H         1 <0>         0.0727
     38 H20        -4.7018    3.4866   -2.5725 H         1 <0>         0.0717
     39 H21        -5.9202    2.3156   -3.1072 H         1 <0>         0.0716
     40 H22        -0.9621   -2.3174    1.1251 H         1 <0>         0.0942
     41 H23        -2.4728   -2.4123    0.1886 H         1 <0>         0.0658
     42 H24        -0.9023   -2.5158   -0.6427 H         1 <0>         0.0782
@<TRIPOS>BOND
     1    1    2 1
     2    1   19 1
     3    1   20 1
     4    1   21 1
     5    2    3 1
     6    2    4 1
     7    2   22 1
     8    3   23 1
     9    3   24 1
    10    3   25 1
    11    4    9 1
    12    4    5 1
    13    4   18 1
    14    5    6 2
    15    5    7 1
    16    7    8 2
    17    8    9 1
    18    8   10 1
    19   10   11 1
    20   10   26 1
    21   11   17 1
    22   11   12 1
    23   11   27 1
    24   12   13 1
    25   12   28 1
    26   12   29 1
    27   13   14 1
    28   13   30 1
    29   13   31 1
    30   14   15 1
    31   14   32 1
    32   14   33 1
    33   15   16 1
    34   15   34 1
    35   15   35 1
    36   16   17 1
    37   16   36 1
    38   16   37 1
    39   17   38 1
    40   17   39 1
    41   18   40 1
    42   18   41 1
    43   18   42 1
@<TRIPOS>MOLECULE
CHEMBL239191
   33    35     0     0     0
SMALL
USER_CHARGES

@<TRIPOS>ATOM
      1 C1         -1.1165    1.6684    0.6769 C.3       1 <0>        -0.1445
      2 C2         -0.8141    0.1746    0.5433 C.3       1 <0>        -0.0592
      3 C3         -0.1268   -0.3225    1.8166 C.3       1 <0>        -0.1466
      4 C4         -2.1208   -0.5938    0.3359 C.3       1 <0>        -0.1081
      5 C5         -1.8635   -2.0787    0.1093 C.2       1 <0>         0.5204
      6 O1         -1.3432   -2.7844    0.9514 O.2       1 <0>        -0.5450
      7 N1         -2.2411   -2.5399   -1.0516 N.2       1 <0>        -0.7232
      8 C6         -2.8124   -1.8093   -2.0001 C.2       1 <0>         0.4729
      9 S1         -2.8985   -0.1748   -1.2809 S.3       1 <0>        -0.2620
     10 N2         -3.2346   -2.2109   -3.2348 N.2       1 <0>        -0.5695
     11 C7         -3.2729   -3.5713   -3.5518 C.ar      1 <0>         0.2126
     12 C8         -3.3758   -4.5180   -2.5482 C.ar      1 <0>        -0.1979
     13 C9         -3.4138   -5.8685   -2.8615 C.ar      1 <0>        -0.0696
     14 C10        -3.3496   -6.2896   -4.1719 C.ar      1 <0>        -0.1948
     15 C11        -3.2453   -5.3568   -5.1997 C.ar      1 <0>         0.1101
     16 C12        -3.2131   -3.9864   -4.8892 C.ar      1 <0>        -0.1229
     17 C13        -3.1096   -3.2822   -6.1690 C.2       1 <0>        -0.1675
     18 C14        -3.0928   -4.2179   -7.1314 C.2       1 <0>         0.0073
     19 N3         -3.1636   -5.4648   -6.5700 N.pl3     1 <0>        -0.6053
     20 H1         -3.1679   -6.2992   -7.0646 H         1 <0>         0.4063
     21 H2         -0.1856    2.2158    0.8246 H         1 <0>         0.0540
     22 H3         -1.6062    2.0225   -0.2303 H         1 <0>         0.0613
     23 H4         -1.7733    1.8312    1.5314 H         1 <0>         0.0519
     24 H5         -0.1573    0.0118   -0.3113 H         1 <0>         0.0727
     25 H6         -0.7835   -0.1598    2.6712 H         1 <0>         0.0507
     26 H7          0.0887   -1.3867    1.7215 H         1 <0>         0.0781
     27 H8          0.8041    0.2249    1.9644 H         1 <0>         0.0496
     28 H9         -2.8107   -0.4302    1.1638 H         1 <0>         0.1169
     29 H10        -3.4264   -4.2039   -1.5161 H         1 <0>         0.1380
     30 H11        -3.4943   -6.5983   -2.0695 H         1 <0>         0.1111
     31 H12        -3.3799   -7.3444   -4.4017 H         1 <0>         0.1038
     32 H13        -3.0574   -2.2129   -6.3116 H         1 <0>         0.1393
     33 H14        -3.0234   -4.0174   -8.1904 H         1 <0>         0.1592
@<TRIPOS>BOND
     1    1    2 1
     2    1   21 1
     3    1   22 1
     4    1   23 1
     5    2    3 1
     6    2    4 1
     7    2   24 1
     8    3   25 1
     9    3   26 1
    10    3   27 1
    11    4    9 1
    12    4    5 1
    13    4   28 1
    14    5    6 2
    15    5    7 1
    16    7    8 2
    17    8    9 1
    18    8   10 1
    19   10   11 1
    20   11   16 ar
    21   11   12 ar
    22   12   13 ar
    23   12   29 1
    24   13   14 ar
    25   13   30 1
    26   14   15 ar
    27   14   31 1
    28   15   19 1
    29   15   16 ar
    30   16   17 1
    31   17   18 2
    32   17   32 1
    33   18   19 1
    34   18   33 1
    35   19   20 1
@<TRIPOS>MOLECULE
CHEMBL239191__1
   33    35     0     0     0
SMALL
USER_CHARGES

@<TRIPOS>ATOM
      1 C1          0.9010    1.2363    0.8460 C.3       1 <0>        -0.1456
      2 C2          0.6851   -0.2668    0.6593 C.3       1 <0>        -0.0583
      3 C3          1.1657   -1.0100    1.9073 C.3       1 <0>        -0.1525
      4 C4         -0.8035   -0.5451    0.4416 C.3       1 <0>        -0.1123
      5 C5         -1.0990   -2.0400    0.4604 C.2       1 <0>         0.5235
      6 O1         -0.6259   -2.8066   -0.3559 O.2       1 <0>        -0.5506
      7 N1         -1.8949   -2.4398    1.4141 N.2       1 <0>        -0.7225
      8 C6         -2.4340   -1.6416    2.3262 C.2       1 <0>         0.4727
      9 S1         -1.8055   -0.0238    1.8972 S.3       1 <0>        -0.2540
     10 N2         -3.2713   -1.9766    3.3513 N.2       1 <0>        -0.5705
     11 C7         -3.4954   -3.3210    3.6594 C.ar      1 <0>         0.2132
     12 C8         -2.5601   -4.2802    3.3142 C.ar      1 <0>        -0.1979
     13 C9         -2.7814   -5.6149    3.6194 C.ar      1 <0>        -0.0697
     14 C10        -3.9317   -6.0077    4.2684 C.ar      1 <0>        -0.1951
     15 C11        -4.8881   -5.0618    4.6259 C.ar      1 <0>         0.1101
     16 C12        -4.6668   -3.7067    4.3255 C.ar      1 <0>        -0.1232
     17 C13        -5.8346   -2.9824    4.8314 C.2       1 <0>        -0.1674
     18 C14        -6.6506   -3.8924    5.3863 C.2       1 <0>         0.0071
     19 N3         -6.1055   -5.1426    5.2644 N.pl3     1 <0>        -0.6054
     20 H1         -6.5107   -5.9615    5.5902 H         1 <0>         0.4062
     21 H2          1.9616    1.4345    1.0011 H         1 <0>         0.0540
     22 H3          0.5587    1.7658   -0.0431 H         1 <0>         0.0511
     23 H4          0.3367    1.5795    1.7131 H         1 <0>         0.0645
     24 H5          1.2495   -0.6100   -0.2078 H         1 <0>         0.0815
     25 H6          0.6014   -0.6669    2.7744 H         1 <0>         0.0676
     26 H7          1.0119   -2.0809    1.7743 H         1 <0>         0.0555
     27 H8          2.2263   -0.8118    2.0624 H         1 <0>         0.0521
     28 H9         -1.1622   -0.0790   -0.4761 H         1 <0>         0.1151
     29 H10        -1.6537   -3.9885    2.8045 H         1 <0>         0.1382
     30 H11        -2.0440   -6.3548    3.3449 H         1 <0>         0.1108
     31 H12        -4.0914   -7.0504    4.4997 H         1 <0>         0.1035
     32 H13        -6.0065   -1.9179    4.7702 H         1 <0>         0.1392
     33 H14        -7.6006   -3.6725    5.8507 H         1 <0>         0.1590
@<TRIPOS>BOND
     1    1    2 1
     2    1   21 1
     3    1   22 1
     4    1   23 1
     5    2    3 1
     6    2    4 1
     7    2   24 1
     8    3   25 1
     9    3   26 1
    10    3   27 1
    11    4    9 1
    12    4    5 1
    13    4   28 1
    14    5    6 2
    15    5    7 1
    16    7    8 2
    17    8    9 1
    18    8   10 1
    19   10   11 1
    20   11   16 ar
    21   11   12 ar
    22   12   13 ar
    23   12   29 1
    24   13   14 ar
    25   13   30 1
    26   14   15 ar
    27   14   31 1
    28   15   19 1
    29   15   16 ar
    30   16   17 1
    31   17   18 2
    32   17   32 1
    33   18   19 1
    34   18   33 1
    35   19   20 1
@<TRIPOS>MOLECULE
CHEMBL521547
   48    50     0     0     0
SMALL
USER_CHARGES

@<TRIPOS>ATOM
      1 C1         -0.0184    1.5028    0.0103 C.3       1 <0>        -0.1487
      2 C2          0.0021   -0.0041    0.0020 C.ar      1 <0>         0.0360
      3 C3          0.0058   -0.6888   -1.1988 C.ar      1 <0>        -0.6212
      4 C4          0.0246   -2.0709   -1.2066 C.ar      1 <0>        -0.0249
      5 C5          0.0396   -2.7693   -0.0135 C.ar      1 <0>        -0.1442
      6 C6          0.0359   -2.0859    1.1877 C.ar      1 <0>        -0.0723
      7 C7          0.0229   -0.7022    1.1960 C.ar      1 <0>        -0.0659
      8 Cl1         0.0249    0.1571    2.7045 Cl        1 <0>        -0.0742
      9 S1         -0.0140    0.2004   -2.7199 S.o2      1 <0>         2.6265
     10 O1          0.9983    1.1930   -2.6232 O.2       1 <0>        -0.9996
     11 O2         -0.0326   -0.7702   -3.7575 O.2       1 <0>        -1.0241
     12 N1         -1.4595    1.0046   -2.7981 N.2       1 <0>        -1.0741
     13 C8         -1.7550    1.7971   -3.9012 C.ar      1 <0>         0.4466
     14 C9         -2.9690    2.4746   -3.9580 C.ar      1 <0>        -0.2170
     15 C10        -3.2501    3.2597   -5.0613 C.ar      1 <0>        -0.0518
     16 C11        -2.3042    3.3413   -6.0750 C.ar      1 <0>        -0.2748
     17 C12        -1.1204    2.6422   -5.9530 C.ar      1 <0>         0.1829
     18 N2         -0.8767    1.9049   -4.8859 N.ar      1 <0>        -0.5654
     19 C13        -0.0905    2.7265   -7.0499 C.3       1 <0>        -0.0849
     20 C14         1.2272    3.1704   -6.4687 C.2       1 <0>         0.5129
     21 O3          1.3207    3.3961   -5.2807 O.2       1 <0>        -0.4893
     22 N3          2.3017    3.3166   -7.2690 N.am      1 <0>        -0.6253
     23 C15         2.2025    3.0527   -8.7110 C.3       1 <0>         0.1076
     24 C16         2.7118    4.2802   -9.4730 C.3       1 <0>        -0.1352
     25 C17         4.1235    4.6243   -8.9927 C.3       1 <0>        -0.1185
     26 C18         4.0882    4.9625   -7.5005 C.3       1 <0>        -0.1338
     27 C19         3.5930    3.7486   -6.7171 C.3       1 <0>         0.1121
     28 H1          1.0042    1.8801    0.0026 H         1 <0>         0.0887
     29 H2         -0.5455    1.8639   -0.8728 H         1 <0>         0.1031
     30 H3         -0.5286    1.8543    0.9071 H         1 <0>         0.0752
     31 H4          0.0271   -2.6054   -2.1450 H         1 <0>         0.1431
     32 H5          0.0539   -3.8492   -0.0201 H         1 <0>         0.1343
     33 H6          0.0474   -2.6316    2.1196 H         1 <0>         0.1331
     34 H7         -3.6822    2.3884   -3.1516 H         1 <0>         0.1187
     35 H8         -4.1843    3.7968   -5.1332 H         1 <0>         0.1134
     36 H9         -2.4933    3.9454   -6.9501 H         1 <0>         0.1089
     37 H10         0.0282    1.7469   -7.5129 H         1 <0>         0.1016
     38 H11        -0.4173    3.4460   -7.8006 H         1 <0>         0.0982
     39 H12         2.8112    2.1855   -8.9665 H         1 <0>         0.0651
     40 H13         1.1626    2.8630   -8.9771 H         1 <0>         0.0855
     41 H14         2.7338    4.0622  -10.5408 H         1 <0>         0.0719
     42 H15         2.0483    5.1249   -9.2873 H         1 <0>         0.0667
     43 H16         4.7809    3.7703   -9.1560 H         1 <0>         0.0625
     44 H17         4.4979    5.4825   -9.5508 H         1 <0>         0.0612
     45 H18         5.0900    5.2301   -7.1644 H         1 <0>         0.0710
     46 H19         3.4118    5.8007   -7.3334 H         1 <0>         0.0649
     47 H20         3.4703    4.0178   -5.6681 H         1 <0>         0.0927
     48 H21         4.3177    2.9393   -6.8065 H         1 <0>         0.0606
@<TRIPOS>BOND
     1    1    2 1
     2    1   28 1
     3    1   29 1
     4    1   30 1
     5    2    7 ar
     6    2    3 ar
     7    3    4 ar
     8    3    9 1
     9    4    5 ar
    10    4   31 1
    11    5    6 ar
    12    5   32 1
    13    6    7 ar
    14    6   33 1
    15    7    8 1
    16    9   10 2
    17    9   11 2
    18    9   12 1
    19   12   13 1
    20   13   18 ar
    21   13   14 ar
    22   14   15 ar
    23   14   34 1
    24   15   16 ar
    25   15   35 1
    26   16   17 ar
    27   16   36 1
    28   17   18 ar
    29   17   19 1
    30   19   20 1
    31   19   37 1
    32   19   38 1
    33   20   21 2
    34   20   22 am
    35   22   27 1
    36   22   23 1
    37   23   24 1
    38   23   39 1
    39   23   40 1
    40   24   25 1
    41   24   41 1
    42   24   42 1
    43   25   26 1
    44   25   43 1
    45   25   44 1
    46   26   27 1
    47   26   45 1
    48   26   46 1
    49   27   47 1
    50   27   48 1
@<TRIPOS>MOLECULE
CHEMBL521547__1
   49    51     0     0     0
SMALL
USER_CHARGES

@<TRIPOS>ATOM
      1 C1          0.4974    1.8309   -5.7384 C.3       1 <0>        -0.1442
      2 C2          1.4570    2.3386   -4.6932 C.ar      1 <0>         0.0240
      3 C3          1.3804    1.8657   -3.3965 C.ar      1 <0>        -0.6565
      4 C4          2.2605    2.3312   -2.4377 C.ar      1 <0>         0.0082
      5 C5          3.2178    3.2701   -2.7749 C.ar      1 <0>        -0.1365
      6 C6          3.2953    3.7435   -4.0709 C.ar      1 <0>        -0.0498
      7 C7          2.4183    3.2736   -5.0325 C.ar      1 <0>        -0.0633
      8 Cl1         2.5192    3.8631   -6.6623 Cl        1 <0>        -0.0568
      9 S1          0.1603    0.6697   -2.9657 S.o2      1 <0>         2.6883
     10 O1          0.2419   -0.3624   -3.9390 O.2       1 <0>        -0.9495
     11 O2          0.3106    0.4190   -1.5751 O.2       1 <0>        -0.9059
     12 N1         -1.3192    1.3877   -3.1600 N.pl3     1 <0>        -1.0347
     13 C8         -1.6718    2.4774   -2.3723 C.ar      1 <0>         0.3812
     14 C9         -2.8717    3.1405   -2.6099 C.ar      1 <0>        -0.1968
     15 C10        -3.2100    4.2231   -1.8186 C.ar      1 <0>        -0.0402
     16 C11        -2.3337    4.6080   -0.8122 C.ar      1 <0>        -0.1936
     17 C12        -1.1599    3.9046   -0.6322 C.ar      1 <0>         0.1867
     18 N2         -0.8653    2.8717   -1.3991 N.ar      1 <0>        -0.4901
     19 C13        -0.2049    4.3178    0.4579 C.3       1 <0>        -0.0930
     20 C14         0.0398    3.1514    1.3801 C.2       1 <0>         0.5138
     21 O3         -0.4495    2.0696    1.1327 O.2       1 <0>        -0.4964
     22 N3          0.8025    3.3104    2.4799 N.am      1 <0>        -0.6186
     23 C15         1.3078    4.6380    2.8550 C.3       1 <0>         0.1058
     24 C16         0.9084    4.9259    4.3056 C.3       1 <0>        -0.1366
     25 C17         1.4035    3.7887    5.2021 C.3       1 <0>        -0.1209
     26 C18         0.7468    2.4749    4.7720 C.3       1 <0>        -0.1356
     27 C19         1.1393    2.1603    3.3300 C.3       1 <0>         0.1125
     28 H1          0.9528    0.9997   -6.2767 H         1 <0>         0.1036
     29 H2         -0.4196    1.4925   -5.2560 H         1 <0>         0.0625
     30 H3          0.2648    2.6333   -6.4386 H         1 <0>         0.0912
     31 H4          2.2001    1.9618   -1.4247 H         1 <0>         0.1506
     32 H5          3.9050    3.6337   -2.0253 H         1 <0>         0.1421
     33 H6          4.0430    4.4771   -4.3341 H         1 <0>         0.1417
     34 H7         -1.9398    1.0479   -3.8235 H         1 <0>         0.4345
     35 H8         -3.5298    2.8144   -3.4017 H         1 <0>         0.1398
     36 H9         -4.1346    4.7574   -1.9799 H         1 <0>         0.1422
     37 H10        -2.5682    5.4494   -0.1771 H         1 <0>         0.1388
     38 H11         0.7389    4.6339    0.0135 H         1 <0>         0.1135
     39 H12        -0.6349    5.1443    1.0236 H         1 <0>         0.1108
     40 H13         2.3939    4.6545    2.7649 H         1 <0>         0.0699
     41 H14         0.8733    5.3929    2.1997 H         1 <0>         0.0837
     42 H15         1.3585    5.8651    4.6274 H         1 <0>         0.0760
     43 H16        -0.1768    4.9989    4.3765 H         1 <0>         0.0672
     44 H17         2.4861    3.7001    5.1118 H         1 <0>         0.0647
     45 H18         1.1421    4.0031    6.2384 H         1 <0>         0.0655
     46 H19         1.0819    1.6696    5.4256 H         1 <0>         0.0751
     47 H20        -0.3369    2.5710    4.8385 H         1 <0>         0.0656
     48 H21         0.5937    1.2809    2.9879 H         1 <0>         0.0940
     49 H22         2.2114    1.9702    3.2795 H         1 <0>         0.0654
@<TRIPOS>BOND
     1    1    2 1
     2    1   28 1
     3    1   29 1
     4    1   30 1
     5    2    7 ar
     6    2    3 ar
     7    3    4 ar
     8    3    9 1
     9    4    5 ar
    10    4   31 1
    11    5    6 ar
    12    5   32 1
    13    6    7 ar
    14    6   33 1
    15    7    8 1
    16    9   10 2
    17    9   11 2
    18    9   12 1
    19   12   13 1
    20   12   34 1
    21   13   18 ar
    22   13   14 ar
    23   14   15 ar
    24   14   35 1
    25   15   16 ar
    26   15   36 1
    27   16   17 ar
    28   16   37 1
    29   17   18 ar
    30   17   19 1
    31   19   20 1
    32   19   38 1
    33   19   39 1
    34   20   21 2
    35   20   22 am
    36   22   27 1
    37   22   23 1
    38   23   24 1
    39   23   40 1
    40   23   41 1
    41   24   25 1
    42   24   42 1
    43   24   43 1
    44   25   26 1
    45   25   44 1
    46   25   45 1
    47   26   27 1
    48   26   46 1
    49   26   47 1
    50   27   48 1
    51   27   49 1
@<TRIPOS>MOLECULE
CHEMBL521547__2
   49    51     0     0     0
SMALL
USER_CHARGES

@<TRIPOS>ATOM
      1 C1         -0.0184    1.5028    0.0103 C.3       1 <0>        -0.1503
      2 C2          0.0021   -0.0041    0.0020 C.ar      1 <0>         0.0367
      3 C3          0.0058   -0.6888   -1.1988 C.ar      1 <0>        -0.6286
      4 C4          0.0246   -2.0709   -1.2066 C.ar      1 <0>        -0.0160
      5 C5          0.0396   -2.7693   -0.0135 C.ar      1 <0>        -0.1345
      6 C6          0.0359   -2.0859    1.1877 C.ar      1 <0>        -0.0507
      7 C7          0.0229   -0.7022    1.1960 C.ar      1 <0>        -0.0629
      8 Cl1         0.0249    0.1571    2.7045 Cl        1 <0>        -0.0544
      9 S1         -0.0140    0.2004   -2.7199 S.o2      1 <0>         2.6173
     10 O1          0.9983    1.1930   -2.6232 O.2       1 <0>        -0.9799
     11 O2         -0.0326   -0.7702   -3.7575 O.2       1 <0>        -0.9922
     12 N1         -1.4595    1.0046   -2.7981 N.2       1 <0>        -1.0104
     13 C8         -1.7395    1.7555   -3.8432 C.2       1 <0>         0.5271
     14 C9         -2.9709    2.4491   -3.9118 C.2       1 <0>        -0.1599
     15 C10        -3.2404    3.2185   -4.9987 C.2       1 <0>        -0.0047
     16 C11        -2.2957    3.3137   -6.0352 C.2       1 <0>        -0.1911
     17 C12        -1.1254    2.6465   -5.9561 C.2       1 <0>         0.1803
     18 N2         -0.8353    1.8745   -4.8710 N.pl3     1 <0>        -0.6114
     19 C13        -0.1252    2.7611   -7.0775 C.3       1 <0>        -0.1204
     20 C14         0.8768    3.8377   -6.7487 C.2       1 <0>         0.5141
     21 O3          0.7876    4.4514   -5.7065 O.2       1 <0>        -0.5217
     22 N3          1.8722    4.1185   -7.6130 N.am      1 <0>        -0.6087
     23 C15         1.9899    3.3879   -8.8823 C.3       1 <0>         0.0999
     24 C16         2.0502    4.4004  -10.0302 C.3       1 <0>        -0.1362
     25 C17         3.1846    5.3941   -9.7695 C.3       1 <0>        -0.1228
     26 C18         2.9108    6.1537   -8.4694 C.3       1 <0>        -0.1353
     27 C19         2.8566    5.1652   -7.3065 C.3       1 <0>         0.1089
     28 H1          1.0042    1.8801    0.0026 H         1 <0>         0.0979
     29 H2         -0.5455    1.8639   -0.8728 H         1 <0>         0.0847
     30 H3         -0.5286    1.8543    0.9071 H         1 <0>         0.0890
     31 H4          0.0271   -2.6054   -2.1450 H         1 <0>         0.1490
     32 H5          0.0539   -3.8492   -0.0201 H         1 <0>         0.1450
     33 H6          0.0474   -2.6316    2.1196 H         1 <0>         0.1440
     34 H7         -3.6888    2.3676   -3.1091 H         1 <0>         0.1679
     35 H8         -4.1759    3.7538   -5.0662 H         1 <0>         0.1537
     36 H9         -2.5079    3.9244   -6.9004 H         1 <0>         0.1548
     37 H10         0.3916    1.8096   -7.2022 H         1 <0>         0.1175
     38 H11        -0.6433    3.0170   -8.0017 H         1 <0>         0.1369
     39 H12         2.9001    2.7882   -8.8757 H         1 <0>         0.0760
     40 H13         1.1235    2.7393   -9.0122 H         1 <0>         0.0866
     41 H14         2.2340    3.8764  -10.9682 H         1 <0>         0.0795
     42 H15         1.1035    4.9370  -10.0922 H         1 <0>         0.0693
     43 H16         4.1275    4.8543   -9.6831 H         1 <0>         0.0661
     44 H17         3.2455    6.1009  -10.5971 H         1 <0>         0.0686
     45 H18         3.7071    6.8776   -8.2965 H         1 <0>         0.0785
     46 H19         1.9560    6.6738   -8.5461 H         1 <0>         0.0676
     47 H20         2.5620    5.6890   -6.3971 H         1 <0>         0.0952
     48 H21         3.8391    4.7137   -7.1685 H         1 <0>         0.0705
     49 H22         0.0116    1.4038   -4.8259 H         1 <0>         0.4093
@<TRIPOS>BOND
     1    1    2 1
     2    1   28 1
     3    1   29 1
     4    1   30 1
     5    2    7 ar
     6    2    3 ar
     7    3    4 ar
     8    3    9 1
     9    4    5 ar
    10    4   31 1
    11    5    6 ar
    12    5   32 1
    13    6    7 ar
    14    6   33 1
    15    7    8 1
    16    9   10 2
    17    9   11 2
    18    9   12 1
    19   12   13 2
    20   13   18 1
    21   13   14 1
    22   14   15 2
    23   14   34 1
    24   15   16 1
    25   15   35 1
    26   16   17 2
    27   16   36 1
    28   17   18 1
    29   17   19 1
    30   18   49 1
    31   19   20 1
    32   19   37 1
    33   19   38 1
    34   20   21 2
    35   20   22 am
    36   22   27 1
    37   22   23 1
    38   23   24 1
    39   23   39 1
    40   23   40 1
    41   24   25 1
    42   24   41 1
    43   24   42 1
    44   25   26 1
    45   25   43 1
    46   25   44 1
    47   26   27 1
    48   26   45 1
    49   26   46 1
    50   27   47 1
    51   27   48 1
@<TRIPOS>MOLECULE
CHEMBL235017
   46    50     0     0     0
SMALL
USER_CHARGES

@<TRIPOS>ATOM
      1 C1         -0.0186    1.5217    0.0104 C.3       1 <0>        -0.1394
      2 C2          1.4212    2.0450   -0.0005 C.3       1 <0>         0.0588
      3 O1          2.1081    1.5167   -1.1370 O.3       1 <0>        -0.3745
      4 C3          2.2104    0.0913   -1.1500 C.3       1 <0>         0.0588
      5 C4          0.8052   -0.5179   -1.1894 C.3       1 <0>        -0.1395
      6 C5          0.0021   -0.0041    0.0020 C.3       1 <0>         0.0145
      7 C6          0.5802   -0.5310    1.2948 C.2       1 <0>         0.5023
      8 O2          1.6961   -0.3395    1.7362 O.2       1 <0>        -0.4554
      9 N1         -0.3977   -1.2517    1.8485 N.2       1 <0>        -0.6395
     10 C7         -1.4799   -1.2492    1.1011 C.2       1 <0>         0.6079
     11 O3         -1.3299   -0.5272   -0.0232 O.3       1 <0>        -0.3125
     12 N2         -2.6251   -1.9046    1.4297 N.pl3     1 <0>        -0.6490
     13 C8         -2.7000   -2.6679    2.6779 C.3       1 <0>         0.1938
     14 C9         -1.6351   -3.7664    2.6686 C.3       1 <0>        -0.1276
     15 C10        -1.7133   -4.5636    3.9722 C.3       1 <0>        -0.0799
     16 C11        -3.0996   -5.1982    4.0996 C.3       1 <0>        -0.1136
     17 C12        -4.1645   -4.0996    4.1089 C.3       1 <0>        -0.0782
     18 C13        -4.0863   -3.3025    2.8053 C.3       1 <0>        -0.1160
     19 C14        -3.9212   -3.1635    5.2944 C.3       1 <0>        -0.1136
     20 C15        -2.5348   -2.5289    5.1670 C.3       1 <0>        -0.0799
     21 C16        -1.4700   -3.6275    5.1577 C.3       1 <0>        -0.1108
     22 C17        -2.4567   -1.7318    3.8634 C.3       1 <0>        -0.1275
     23 H1         -0.5273    1.8740    0.9077 H         1 <0>         0.0832
     24 H2         -0.5444    1.8836   -0.8732 H         1 <0>         0.0928
     25 H3          1.4122    3.1336   -0.0546 H         1 <0>         0.1068
     26 H4          1.9297    1.7299    0.9107 H         1 <0>         0.0726
     27 H5          2.7688   -0.2252   -2.0309 H         1 <0>         0.1068
     28 H6          2.7273   -0.2444   -0.2511 H         1 <0>         0.0725
     29 H7          0.3085   -0.2283   -2.1154 H         1 <0>         0.0928
     30 H8          0.8777   -1.6042   -1.1384 H         1 <0>         0.0832
     31 H9         -3.3925   -1.8668    0.8376 H         1 <0>         0.4198
     32 H10        -1.8084   -4.4333    1.8240 H         1 <0>         0.0611
     33 H11        -0.6474   -3.3143    2.5778 H         1 <0>         0.0979
     34 H12        -0.9546   -5.3462    3.9655 H         1 <0>         0.0758
     35 H13        -3.2730   -5.8650    3.2550 H         1 <0>         0.0635
     36 H14        -3.1553   -5.7661    5.0283 H         1 <0>         0.0678
     37 H15        -5.1521   -4.5517    4.1997 H         1 <0>         0.0790
     38 H16        -4.8449   -2.5198    2.8119 H         1 <0>         0.0728
     39 H17        -4.2597   -3.9693    1.9607 H         1 <0>         0.0728
     40 H18        -4.6798   -2.3809    5.3011 H         1 <0>         0.0635
     41 H19        -3.9769   -3.7314    6.2232 H         1 <0>         0.0678
     42 H20        -2.3615   -1.8621    6.0116 H         1 <0>         0.0758
     43 H21        -1.5256   -4.1954    6.0864 H         1 <0>         0.0645
     44 H22        -0.4823   -3.1754    5.0670 H         1 <0>         0.0692
     45 H23        -1.4690   -1.2797    3.7727 H         1 <0>         0.0978
     46 H24        -3.2153   -0.9492    3.8701 H         1 <0>         0.0611
@<TRIPOS>BOND
     1    1    6 1
     2    1    2 1
     3    1   23 1
     4    1   24 1
     5    2    3 1
     6    2   25 1
     7    2   26 1
     8    3    4 1
     9    4    5 1
    10    4   27 1
    11    4   28 1
    12    5    6 1
    13    5   29 1
    14    5   30 1
    15    6   11 1
    16    6    7 1
    17    7    8 2
    18    7    9 1
    19    9   10 2
    20   10   11 1
    21   10   12 1
    22   12   13 1
    23   12   31 1
    24   13   18 1
    25   13   22 1
    26   13   14 1
    27   14   15 1
    28   14   32 1
    29   14   33 1
    30   15   21 1
    31   15   16 1
    32   15   34 1
    33   16   17 1
    34   16   35 1
    35   16   36 1
    36   17   18 1
    37   17   19 1
    38   17   37 1
    39   18   38 1
    40   18   39 1
    41   19   20 1
    42   19   40 1
    43   19   41 1
    44   20   21 1
    45   20   22 1
    46   20   42 1
    47   21   43 1
    48   21   44 1
    49   22   45 1
    50   22   46 1
@<TRIPOS>MOLECULE
CHEMBL261726
   58    62     0     0     0
SMALL
USER_CHARGES

@<TRIPOS>ATOM
      1 C1          6.5003   -1.2985    4.3004 C.ar      1 <0>        -0.1145
      2 C2          7.1163   -2.2593    3.5188 C.ar      1 <0>        -0.1172
      3 C3          6.6157   -2.5604    2.2686 C.ar      1 <0>        -0.1070
      4 C4          5.4866   -1.8945    1.7939 C.ar      1 <0>        -0.0504
      5 C5          4.8698   -0.9275    2.5863 C.ar      1 <0>        -0.0994
      6 C6          5.3797   -0.6344    3.8347 C.ar      1 <0>        -0.1164
      7 C7          4.9443   -2.2131    0.4516 C.ar      1 <0>        -0.0263
      8 C8          5.7502   -2.0876   -0.6769 C.ar      1 <0>        -0.1060
      9 C9          5.2413   -2.3858   -1.9248 C.ar      1 <0>        -0.1053
     10 C10         3.9307   -2.8103   -2.0634 C.ar      1 <0>        -0.1178
     11 C11         3.1181   -2.9397   -0.9554 C.ar      1 <0>        -0.0823
     12 C12         3.6171   -2.6487    0.3117 C.ar      1 <0>        -0.0364
     13 C13         2.7500   -2.7921    1.5051 C.ar      1 <0>         0.1648
     14 C14         3.2045   -3.5223    2.6065 C.ar      1 <0>        -0.1215
     15 C15         2.3885   -3.6503    3.7161 C.ar      1 <0>        -0.0763
     16 C16         1.1400   -3.0452    3.6955 C.ar      1 <0>        -0.1081
     17 C17         0.7476   -2.3312    2.5655 C.ar      1 <0>         0.0787
     18 N1          1.5554   -2.2226    1.5191 N.ar      1 <0>        -0.4406
     19 C18        -0.5841   -1.6820    2.5342 C.2       1 <0>         0.5725
     20 O1         -1.3867   -1.8989    3.4204 O.2       1 <0>        -0.5243
     21 N2         -0.9051   -0.8511    1.5228 N.am      1 <0>        -0.5881
     22 C19         0.1148   -0.3975    0.5648 C.3       1 <0>         0.0799
     23 C20         0.0946    1.1320    0.4973 C.3       1 <0>        -0.1362
     24 C21        -1.3256    1.6165    0.1898 C.3       1 <0>        -0.1164
     25 C22        -2.2650    1.1569    1.3035 C.3       1 <0>        -0.0974
     26 C23        -2.2824   -0.3791    1.3436 C.3       1 <0>         0.1498
     27 C24        -3.1634   -0.8406    2.5036 C.3       1 <0>        -0.1055
     28 C25        -4.5913   -0.3352    2.2775 C.3       1 <0>        -0.1261
     29 C26        -4.5952    1.1919    2.1980 C.3       1 <0>        -0.1213
     30 C27        -3.6849    1.6646    1.0565 C.3       1 <0>        -0.1112
     31 H1          6.8932   -1.0690    5.2799 H         1 <0>         0.1229
     32 H2          7.9909   -2.7745    3.8876 H         1 <0>         0.1251
     33 H3          7.0978   -3.3102    1.6589 H         1 <0>         0.1250
     34 H4          3.9951   -0.4082    2.2236 H         1 <0>         0.1174
     35 H5          4.9030    0.1148    4.4493 H         1 <0>         0.1224
     36 H6          6.7732   -1.7566   -0.5758 H         1 <0>         0.1285
     37 H7          5.8690   -2.2870   -2.7981 H         1 <0>         0.1279
     38 H8          3.5420   -3.0412   -3.0443 H         1 <0>         0.1280
     39 H9          2.0965   -3.2707   -1.0706 H         1 <0>         0.1280
     40 H10         4.1818   -3.9818    2.5914 H         1 <0>         0.1393
     41 H11         2.7160   -4.2097    4.5799 H         1 <0>         0.1447
     42 H12         0.4795   -3.1271    4.5460 H         1 <0>         0.1493
     43 H13         1.0982   -0.7348    0.8925 H         1 <0>         0.1422
     44 H14        -0.1027   -0.8086   -0.4210 H         1 <0>         0.0633
     45 H15         0.4182    1.5415    1.4542 H         1 <0>         0.0616
     46 H16         0.7709    1.4694   -0.2881 H         1 <0>         0.0744
     47 H17        -1.3345    2.7049    0.1318 H         1 <0>         0.0651
     48 H18        -1.6554    1.1975   -0.7609 H         1 <0>         0.0639
     49 H19        -1.9059    1.5375    2.2597 H         1 <0>         0.0730
     50 H20        -2.6805   -0.7659    0.4055 H         1 <0>         0.0725
     51 H21        -3.1650   -1.9297    2.5494 H         1 <0>         0.0770
     52 H22        -2.7769   -0.4354    3.4387 H         1 <0>         0.0794
     53 H23        -4.9781   -0.7474    1.3455 H         1 <0>         0.0584
     54 H24        -5.2244   -0.6564    3.1046 H         1 <0>         0.0652
     55 H25        -5.6122    1.5428    2.0226 H         1 <0>         0.0622
     56 H26        -4.2281    1.6044    3.1378 H         1 <0>         0.0604
     57 H27        -3.6798    2.7536    1.0099 H         1 <0>         0.0665
     58 H28        -4.0584    1.2597    0.1159 H         1 <0>         0.0627
@<TRIPOS>BOND
     1    1    6 ar
     2    1    2 ar
     3    1   31 1
     4    2    3 ar
     5    2   32 1
     6    3    4 ar
     7    3   33 1
     8    4    5 ar
     9    4    7 1
    10    5    6 ar
    11    5   34 1
    12    6   35 1
    13    7   12 ar
    14    7    8 ar
    15    8    9 ar
    16    8   36 1
    17    9   10 ar
    18    9   37 1
    19   10   11 ar
    20   10   38 1
    21   11   12 ar
    22   11   39 1
    23   12   13 1
    24   13   18 ar
    25   13   14 ar
    26   14   15 ar
    27   14   40 1
    28   15   16 ar
    29   15   41 1
    30   16   17 ar
    31   16   42 1
    32   17   18 ar
    33   17   19 1
    34   19   20 2
    35   19   21 am
    36   21   26 1
    37   21   22 1
    38   22   23 1
    39   22   43 1
    40   22   44 1
    41   23   24 1
    42   23   45 1
    43   23   46 1
    44   24   25 1
    45   24   47 1
    46   24   48 1
    47   25   30 1
    48   25   26 1
    49   25   49 1
    50   26   27 1
    51   26   50 1
    52   27   28 1
    53   27   51 1
    54   27   52 1
    55   28   29 1
    56   28   53 1
    57   28   54 1
    58   29   30 1
    59   29   55 1
    60   29   56 1
    61   30   57 1
    62   30   58 1
@<TRIPOS>MOLECULE
CHEMBL261726__1
   58    62     0     0     0
SMALL
USER_CHARGES

@<TRIPOS>ATOM
      1 C1          6.0891   -0.2773    4.3200 C.ar      1 <0>        -0.1143
      2 C2          6.9081   -1.1762    3.6605 C.ar      1 <0>        -0.1176
      3 C3          6.5327   -1.6841    2.4336 C.ar      1 <0>        -0.1052
      4 C4          5.3252   -1.2901    1.8590 C.ar      1 <0>        -0.0507
      5 C5          4.5037   -0.3844    2.5284 C.ar      1 <0>        -0.0999
      6 C6          4.8898    0.1173    3.7547 C.ar      1 <0>        -0.1171
      7 C7          4.9166   -1.8318    0.5410 C.ar      1 <0>        -0.0252
      8 C8          5.7456   -1.6773   -0.5669 C.ar      1 <0>        -0.1057
      9 C9          5.3614   -2.1837   -1.7921 C.ar      1 <0>        -0.1057
     10 C10         4.1534   -2.8466   -1.9282 C.ar      1 <0>        -0.1169
     11 C11         3.3195   -3.0081   -0.8404 C.ar      1 <0>        -0.0844
     12 C12         3.6942   -2.5086    0.4042 C.ar      1 <0>        -0.0360
     13 C13         2.8048   -2.6850    1.5766 C.ar      1 <0>         0.1667
     14 C14         3.2558   -3.4077    2.6844 C.ar      1 <0>        -0.1224
     15 C15         2.4188   -3.5667    3.7742 C.ar      1 <0>        -0.0744
     16 C16         1.1534   -2.9994    3.7279 C.ar      1 <0>        -0.1082
     17 C17         0.7655   -2.2910    2.5928 C.ar      1 <0>         0.0820
     18 N1          1.5934   -2.1520    1.5659 N.ar      1 <0>        -0.4382
     19 C18        -0.5841   -1.6820    2.5342 C.2       1 <0>         0.5725
     20 O1         -1.4014   -1.9319    3.3980 O.2       1 <0>        -0.5344
     21 N2         -0.9051   -0.8511    1.5228 N.am      1 <0>        -0.5863
     22 C19         0.1159   -0.3996    0.5673 C.3       1 <0>         0.0696
     23 C20         0.1035    1.1309    0.5125 C.3       1 <0>        -0.1359
     24 C21        -1.3138    1.6180    0.2000 C.3       1 <0>        -0.1178
     25 C22        -2.2651    1.1554    1.3040 C.3       1 <0>        -0.0934
     26 C23        -2.2881   -0.3791    1.3455 C.3       1 <0>         0.1457
     27 C24        -2.8236   -0.9231    0.0187 C.3       1 <0>        -0.1274
     28 C25        -4.2375   -0.3926   -0.2228 C.3       1 <0>        -0.1161
     29 C26        -4.2011    1.1360   -0.2875 C.3       1 <0>        -0.1222
     30 C27        -3.6701    1.6938    1.0458 C.3       1 <0>        -0.1125
     31 H1          6.3850    0.1144    5.2819 H         1 <0>         0.1228
     32 H2          7.8434   -1.4807    4.1066 H         1 <0>         0.1249
     33 H3          7.1733   -2.3853    1.9193 H         1 <0>         0.1247
     34 H4          3.5673   -0.0753    2.0879 H         1 <0>         0.1181
     35 H5          4.2544    0.8194    4.2741 H         1 <0>         0.1220
     36 H6          6.6890   -1.1610   -0.4677 H         1 <0>         0.1285
     37 H7          6.0066   -2.0618   -2.6496 H         1 <0>         0.1278
     38 H8          3.8619   -3.2391   -2.8912 H         1 <0>         0.1280
     39 H9          2.3783   -3.5256   -0.9536 H         1 <0>         0.1267
     40 H10         4.2466   -3.8374    2.6895 H         1 <0>         0.1393
     41 H11         2.7433   -4.1210    4.6424 H         1 <0>         0.1457
     42 H12         0.4764   -3.1062    4.5626 H         1 <0>         0.1495
     43 H13         1.0974   -0.7452    0.8917 H         1 <0>         0.1498
     44 H14        -0.1060   -0.8020   -0.4211 H         1 <0>         0.0630
     45 H15         0.4216    1.5317    1.4750 H         1 <0>         0.0609
     46 H16         0.7851    1.4722   -0.2666 H         1 <0>         0.0732
     47 H17        -1.3207    2.7066    0.1469 H         1 <0>         0.0635
     48 H18        -1.6377    1.2052   -0.7554 H         1 <0>         0.0696
     49 H19        -1.9086    1.5269    2.2647 H         1 <0>         0.0707
     50 H20        -2.9073   -0.7211    2.1748 H         1 <0>         0.1003
     51 H21        -2.1722   -0.6022   -0.7942 H         1 <0>         0.0700
     52 H22        -2.8463   -2.0122    0.0559 H         1 <0>         0.0630
     53 H23        -4.6183   -0.7876   -1.1647 H         1 <0>         0.0658
     54 H24        -4.8881   -0.7067    0.5933 H         1 <0>         0.0642
     55 H25        -3.5418    1.4505   -1.0966 H         1 <0>         0.0647
     56 H26        -5.2065    1.5167   -0.4676 H         1 <0>         0.0636
     57 H27        -4.3311    1.3845    1.8554 H         1 <0>         0.0645
     58 H28        -3.6385    2.7824    1.0009 H         1 <0>         0.0666
@<TRIPOS>BOND
     1    1    6 ar
     2    1    2 ar
     3    1   31 1
     4    2    3 ar
     5    2   32 1
     6    3    4 ar
     7    3   33 1
     8    4    5 ar
     9    4    7 1
    10    5    6 ar
    11    5   34 1
    12    6   35 1
    13    7   12 ar
    14    7    8 ar
    15    8    9 ar
    16    8   36 1
    17    9   10 ar
    18    9   37 1
    19   10   11 ar
    20   10   38 1
    21   11   12 ar
    22   11   39 1
    23   12   13 1
    24   13   18 ar
    25   13   14 ar
    26   14   15 ar
    27   14   40 1
    28   15   16 ar
    29   15   41 1
    30   16   17 ar
    31   16   42 1
    32   17   18 ar
    33   17   19 1
    34   19   20 2
    35   19   21 am
    36   21   26 1
    37   21   22 1
    38   22   23 1
    39   22   43 1
    40   22   44 1
    41   23   24 1
    42   23   45 1
    43   23   46 1
    44   24   25 1
    45   24   47 1
    46   24   48 1
    47   25   30 1
    48   25   26 1
    49   25   49 1
    50   26   27 1
    51   26   50 1
    52   27   28 1
    53   27   51 1
    54   27   52 1
    55   28   29 1
    56   28   53 1
    57   28   54 1
    58   29   30 1
    59   29   55 1
    60   29   56 1
    61   30   57 1
    62   30   58 1
@<TRIPOS>MOLECULE
CHEMBL261726__2
   58    62     0     0     0
SMALL
USER_CHARGES

@<TRIPOS>ATOM
      1 C1          5.3945   -0.6186    6.6207 C.ar      1 <0>        -0.1141
      2 C2          6.4587   -1.0119    5.8293 C.ar      1 <0>        -0.1176
      3 C3          6.3884   -0.8783    4.4576 C.ar      1 <0>        -0.1068
      4 C4          5.2417   -0.3463    3.8697 C.ar      1 <0>        -0.0514
      5 C5          4.1722    0.0479    4.6724 C.ar      1 <0>        -0.0984
      6 C6          4.2542   -0.0900    6.0430 C.ar      1 <0>        -0.1165
      7 C7          5.1601   -0.1998    2.3968 C.ar      1 <0>        -0.0252
      8 C8          6.1290    0.5278    1.7110 C.ar      1 <0>        -0.1055
      9 C9          6.0496    0.6613    0.3395 C.ar      1 <0>        -0.1053
     10 C10         5.0097    0.0749   -0.3620 C.ar      1 <0>        -0.1168
     11 C11         4.0406   -0.6493    0.3022 C.ar      1 <0>        -0.0850
     12 C12         4.1087   -0.7988    1.6850 C.ar      1 <0>        -0.0364
     13 C13         3.0738   -1.5807    2.4019 C.ar      1 <0>         0.1656
     14 C14         3.4599   -2.5798    3.2995 C.ar      1 <0>        -0.1221
     15 C15         2.4868   -3.3041    3.9644 C.ar      1 <0>        -0.0741
     16 C16         1.1538   -3.0107    3.7146 C.ar      1 <0>        -0.1094
     17 C17         0.8367   -2.0020    2.8076 C.ar      1 <0>         0.0814
     18 N1          1.7932   -1.3220    2.1897 N.ar      1 <0>        -0.4373
     19 C18        -0.5841   -1.6820    2.5342 C.2       1 <0>         0.5636
     20 O1         -1.4598   -2.1688    3.2218 O.2       1 <0>        -0.5102
     21 N2         -0.9051   -0.8511    1.5228 N.am      1 <0>        -0.5776
     22 C19         0.1170   -0.3998    0.5671 C.3       1 <0>         0.0474
     23 C20         0.0905    1.1301    0.4994 C.3       1 <0>        -0.1280
     24 C21        -1.3293    1.6034    0.1786 C.3       1 <0>        -0.1197
     25 C22        -2.2773    1.1532    1.2967 C.3       1 <0>        -0.0966
     26 C23        -2.2840   -0.3810    1.3466 C.3       1 <0>         0.1514
     27 C24        -3.1581   -0.8726    2.4963 C.3       1 <0>        -0.1169
     28 C25        -2.6434   -0.3068    3.8210 C.3       1 <0>        -0.1191
     29 C26        -2.6821    1.2222    3.7646 C.3       1 <0>        -0.1265
     30 C27        -1.7696    1.7123    2.6281 C.3       1 <0>        -0.1123
     31 H1          5.4524   -0.7288    7.6935 H         1 <0>         0.1230
     32 H2          7.3465   -1.4239    6.2858 H         1 <0>         0.1251
     33 H3          7.2201   -1.1850    3.8407 H         1 <0>         0.1250
     34 H4          3.2815    0.4610    4.2224 H         1 <0>         0.1178
     35 H5          3.4264    0.2154    6.6659 H         1 <0>         0.1224
     36 H6          6.9426    0.9880    2.2521 H         1 <0>         0.1286
     37 H7          6.8026    1.2266   -0.1894 H         1 <0>         0.1280
     38 H8          4.9564    0.1852   -1.4351 H         1 <0>         0.1284
     39 H9          3.2318   -1.1035   -0.2509 H         1 <0>         0.1277
     40 H10         4.5062   -2.7844    3.4719 H         1 <0>         0.1398
     41 H11         2.7589   -4.0817    4.6628 H         1 <0>         0.1450
     42 H12         0.3708   -3.5586    4.2176 H         1 <0>         0.1500
     43 H13         1.1000   -0.7336    0.8992 H         1 <0>         0.1666
     44 H14        -0.0972   -0.8127   -0.4186 H         1 <0>         0.0528
     45 H15         0.4023    1.5416    1.4593 H         1 <0>         0.0688
     46 H16         0.7718    1.4709   -0.2802 H         1 <0>         0.0695
     47 H17        -1.3426    2.6909    0.1060 H         1 <0>         0.0636
     48 H18        -1.6519    1.1708   -0.7684 H         1 <0>         0.0618
     49 H19        -3.2815    1.5286    1.0999 H         1 <0>         0.0808
     50 H20        -2.6815   -0.7729    0.4104 H         1 <0>         0.0696
     51 H21        -4.1849   -0.5435    2.3367 H         1 <0>         0.0541
     52 H22        -3.1299   -1.9616    2.5324 H         1 <0>         0.0957
     53 H23        -3.2757   -0.6572    4.6368 H         1 <0>         0.0549
     54 H24        -1.6184   -0.6393    3.9852 H         1 <0>         0.0842
     55 H25        -3.7048    1.5541    3.5856 H         1 <0>         0.0573
     56 H26        -2.3267    1.6304    4.7108 H         1 <0>         0.0551
     57 H27        -0.7500    1.3679    2.8007 H         1 <0>         0.0659
     58 H28        -1.7822    2.8017    2.5922 H         1 <0>         0.0581
@<TRIPOS>BOND
     1    1    6 ar
     2    1    2 ar
     3    1   31 1
     4    2    3 ar
     5    2   32 1
     6    3    4 ar
     7    3   33 1
     8    4    5 ar
     9    4    7 1
    10    5    6 ar
    11    5   34 1
    12    6   35 1
    13    7   12 ar
    14    7    8 ar
    15    8    9 ar
    16    8   36 1
    17    9   10 ar
    18    9   37 1
    19   10   11 ar
    20   10   38 1
    21   11   12 ar
    22   11   39 1
    23   12   13 1
    24   13   18 ar
    25   13   14 ar
    26   14   15 ar
    27   14   40 1
    28   15   16 ar
    29   15   41 1
    30   16   17 ar
    31   16   42 1
    32   17   18 ar
    33   17   19 1
    34   19   20 2
    35   19   21 am
    36   21   26 1
    37   21   22 1
    38   22   23 1
    39   22   43 1
    40   22   44 1
    41   23   24 1
    42   23   45 1
    43   23   46 1
    44   24   25 1
    45   24   47 1
    46   24   48 1
    47   25   30 1
    48   25   26 1
    49   25   49 1
    50   26   27 1
    51   26   50 1
    52   27   28 1
    53   27   51 1
    54   27   52 1
    55   28   29 1
    56   28   53 1
    57   28   54 1
    58   29   30 1
    59   29   55 1
    60   29   56 1
    61   30   57 1
    62   30   58 1
@<TRIPOS>MOLECULE
CHEMBL261726__3
   58    62     0     0     0
SMALL
USER_CHARGES

@<TRIPOS>ATOM
      1 C1          5.4916   -1.6117    6.5237 C.ar      1 <0>        -0.1142
      2 C2          6.5151   -1.9677    5.6639 C.ar      1 <0>        -0.1179
      3 C3          6.4376   -1.6464    4.3241 C.ar      1 <0>        -0.1066
      4 C4          5.3247   -0.9621    3.8375 C.ar      1 <0>        -0.0515
      5 C5          4.2961   -0.6064    4.7086 C.ar      1 <0>        -0.0986
      6 C6          4.3849   -0.9326    6.0466 C.ar      1 <0>        -0.1165
      7 C7          5.2357   -0.6137    2.3994 C.ar      1 <0>        -0.0255
      8 C8          6.2420    0.1370    1.7973 C.ar      1 <0>        -0.1054
      9 C9          6.1554    0.4588    0.4580 C.ar      1 <0>        -0.1060
     10 C10         5.0712    0.0392   -0.2943 C.ar      1 <0>        -0.1170
     11 C11         4.0647   -0.7051    0.2867 C.ar      1 <0>        -0.0856
     12 C12         4.1391   -1.0436    1.6355 C.ar      1 <0>        -0.0351
     13 C13         3.0637   -1.8480    2.2623 C.ar      1 <0>         0.1650
     14 C14         3.3907   -3.0069    2.9715 C.ar      1 <0>        -0.1220
     15 C15         2.3802   -3.7510    3.5536 C.ar      1 <0>        -0.0756
     16 C16         1.0699   -3.3172    3.4115 C.ar      1 <0>        -0.1093
     17 C17         0.8121   -2.1528    2.6916 C.ar      1 <0>         0.0804
     18 N1          1.8038   -1.4585    2.1495 N.ar      1 <0>        -0.4404
     19 C18        -0.5841   -1.6820    2.5342 C.2       1 <0>         0.5730
     20 O1         -1.4396   -2.0452    3.3170 O.2       1 <0>        -0.5249
     21 N2         -0.9051   -0.8511    1.5228 N.am      1 <0>        -0.5857
     22 C19         0.1148   -0.3975    0.5648 C.3       1 <0>         0.0751
     23 C20        -0.3653   -0.6966   -0.8580 C.3       1 <0>        -0.1369
     24 C21        -1.7541   -0.0873   -1.0731 C.3       1 <0>        -0.1166
     25 C22        -2.7339   -0.7077   -0.0785 C.3       1 <0>        -0.0985
     26 C23        -2.2824   -0.3791    1.3436 C.3       1 <0>         0.1496
     27 C24        -3.2194   -1.0682    2.3345 C.3       1 <0>        -0.1074
     28 C25        -4.6430   -0.5456    2.1212 C.3       1 <0>        -0.1270
     29 C26        -5.0947   -0.8381    0.6899 C.3       1 <0>        -0.1217
     30 C27        -4.1437   -0.1597   -0.2957 C.3       1 <0>        -0.1103
     31 H1          5.5547   -1.8689    7.5707 H         1 <0>         0.1230
     32 H2          7.3768   -2.4978    6.0420 H         1 <0>         0.1250
     33 H3          7.2376   -1.9241    3.6539 H         1 <0>         0.1249
     34 H4          3.4317   -0.0759    4.3373 H         1 <0>         0.1181
     35 H5          3.5888   -0.6572    6.7224 H         1 <0>         0.1226
     36 H6          7.0901    0.4677    2.3784 H         1 <0>         0.1287
     37 H7          6.9375    1.0415   -0.0059 H         1 <0>         0.1280
     38 H8          5.0128    0.2962   -1.3417 H         1 <0>         0.1284
     39 H9          3.2215   -1.0286   -0.3055 H         1 <0>         0.1270
     40 H10         4.4207   -3.3183    3.0638 H         1 <0>         0.1394
     41 H11         2.6064   -4.6507    4.1066 H         1 <0>         0.1450
     42 H12         0.2588   -3.8764    3.8539 H         1 <0>         0.1480
     43 H13         0.2705    0.6753    0.6789 H         1 <0>         0.0660
     44 H14         1.0505   -0.9244    0.7519 H         1 <0>         0.1409
     45 H15         0.3343   -0.2666   -1.5748 H         1 <0>         0.0749
     46 H16        -0.4160   -1.7755   -1.0044 H         1 <0>         0.0620
     47 H17        -1.7076    0.9901   -0.9146 H         1 <0>         0.0645
     48 H18        -2.0884   -0.2926   -2.0900 H         1 <0>         0.0657
     49 H19        -2.7428   -1.7901   -0.2067 H         1 <0>         0.0722
     50 H20        -2.3199    0.6998    1.4944 H         1 <0>         0.0725
     51 H21        -3.1975   -2.1452    2.1685 H         1 <0>         0.0709
     52 H22        -2.8989   -0.8482    3.3528 H         1 <0>         0.0881
     53 H23        -5.3181   -1.0373    2.8216 H         1 <0>         0.0647
     54 H24        -4.6637    0.5303    2.2947 H         1 <0>         0.0592
     55 H25        -5.0941   -1.9153    0.5229 H         1 <0>         0.0617
     56 H26        -6.1026   -0.4505    0.5418 H         1 <0>         0.0618
     57 H27        -4.1442    0.9187   -0.1369 H         1 <0>         0.0652
     58 H28        -4.4679   -0.3800   -1.3127 H         1 <0>         0.0652
@<TRIPOS>BOND
     1    1    6 ar
     2    1    2 ar
     3    1   31 1
     4    2    3 ar
     5    2   32 1
     6    3    4 ar
     7    3   33 1
     8    4    5 ar
     9    4    7 1
    10    5    6 ar
    11    5   34 1
    12    6   35 1
    13    7   12 ar
    14    7    8 ar
    15    8    9 ar
    16    8   36 1
    17    9   10 ar
    18    9   37 1
    19   10   11 ar
    20   10   38 1
    21   11   12 ar
    22   11   39 1
    23   12   13 1
    24   13   18 ar
    25   13   14 ar
    26   14   15 ar
    27   14   40 1
    28   15   16 ar
    29   15   41 1
    30   16   17 ar
    31   16   42 1
    32   17   18 ar
    33   17   19 1
    34   19   20 2
    35   19   21 am
    36   21   26 1
    37   21   22 1
    38   22   23 1
    39   22   43 1
    40   22   44 1
    41   23   24 1
    42   23   45 1
    43   23   46 1
    44   24   25 1
    45   24   47 1
    46   24   48 1
    47   25   30 1
    48   25   26 1
    49   25   49 1
    50   26   27 1
    51   26   50 1
    52   27   28 1
    53   27   51 1
    54   27   52 1
    55   28   29 1
    56   28   53 1
    57   28   54 1
    58   29   30 1
    59   29   55 1
    60   29   56 1
    61   30   57 1
    62   30   58 1
@<TRIPOS>MOLECULE
CHEMBL512355
   56    58     0     0     0
SMALL
USER_CHARGES

@<TRIPOS>ATOM
      1 C1          5.7612    3.3981    5.0469 C.3       1 <0>        -0.1506
      2 C2          5.7007    2.4583    6.2527 C.3       1 <0>         0.1436
      3 C3          4.7518    1.3249    5.9591 C.ar      1 <0>        -0.1065
      4 C4          3.6803    1.5268    5.1073 C.ar      1 <0>        -0.1035
      5 C5          2.8080    0.4935    4.8343 C.ar      1 <0>        -0.0580
      6 C6          3.0083   -0.7577    5.4195 C.ar      1 <0>        -0.1329
      7 C7          4.0912   -0.9547    6.2778 C.ar      1 <0>        -0.1537
      8 C8          4.9593    0.0855    6.5379 C.ar      1 <0>        -0.1142
      9 C9          2.0771   -1.8695    5.1318 C.2       1 <0>         0.5827
     10 O1          0.9103   -1.6362    4.8833 O.2       1 <0>        -0.4943
     11 N1          2.5220   -3.1417    5.1449 N.am      1 <0>        -0.6167
     12 C10         3.3978   -3.6002    6.2261 C.3       1 <0>         0.1534
     13 C11         3.0532   -2.8503    7.5144 C.3       1 <0>        -0.2036
     14 C12         3.9679   -3.3292    8.6435 C.3       1 <0>        -0.1110
     15 C13         5.4261   -3.0563    8.2691 C.3       1 <0>        -0.1011
     16 C14         5.7707   -3.8063    6.9807 C.3       1 <0>        -0.1200
     17 C15         4.8560   -3.3274    5.8516 C.3       1 <0>        -0.1900
     18 C16         6.3407   -3.5353    9.3982 C.3       1 <0>        -0.1122
     19 C17         7.7872   -3.1507    9.0806 C.3       1 <0>        -0.0300
     20 C18         8.6672   -3.6115   10.1669 C.1       1 <0>         0.2002
     21 N2          9.3463   -3.9671   11.0052 N.1       1 <0>        -0.4333
     22 C19         2.1297   -4.0659    4.0781 C.3       1 <0>         0.0834
     23 C20         1.4713   -3.4688    2.8328 C.3       1 <0>        -0.1873
     24 C21         0.6330   -4.2675    3.8329 C.3       1 <0>        -0.1883
     25 C22         5.2081    3.2314    7.4777 C.3       1 <0>         0.4257
     26 F1          3.9323    3.7455    7.2226 F         1 <0>        -0.1730
     27 F2          5.1528    2.3720    8.5802 F         1 <0>        -0.1803
     28 F3          6.0890    4.2835    7.7503 F         1 <0>        -0.1713
     29 O2          7.0039    1.9331    6.5132 O.3       1 <0>        -0.5180
     30 H1          4.7672    3.7987    4.8482 H         1 <0>         0.0896
     31 H2          6.4475    4.2179    5.2593 H         1 <0>         0.0846
     32 H3          6.1121    2.8473    4.1742 H         1 <0>         0.0929
     33 H4          3.5263    2.4956    4.6555 H         1 <0>         0.1389
     34 H5          1.9718    0.6525    4.1696 H         1 <0>         0.1384
     35 H6          4.2516   -1.9205    6.7338 H         1 <0>         0.2260
     36 H7          5.8001   -0.0668    7.1984 H         1 <0>         0.1309
     37 H8          3.2562   -4.6700    6.3794 H         1 <0>         0.0973
     38 H9          3.1949   -1.7805    7.3611 H         1 <0>         0.1213
     39 H10         2.0144   -3.0447    7.7812 H         1 <0>         0.0777
     40 H11         3.7224   -2.7950    9.5613 H         1 <0>         0.0760
     41 H12         3.8262   -4.3990    8.7968 H         1 <0>         0.0731
     42 H13         5.5677   -1.9865    8.1157 H         1 <0>         0.0798
     43 H14         6.8095   -3.6119    6.7140 H         1 <0>         0.0771
     44 H15         5.6290   -4.8761    7.1341 H         1 <0>         0.0730
     45 H16         5.1015   -3.8616    4.9338 H         1 <0>         0.0767
     46 H17         4.9977   -2.2575    5.6983 H         1 <0>         0.1107
     47 H18         6.0376   -3.0671   10.3347 H         1 <0>         0.0767
     48 H19         6.2651   -4.6185    9.4923 H         1 <0>         0.0766
     49 H20         8.0903   -3.6189    8.1441 H         1 <0>         0.1113
     50 H21         7.8629   -2.0675    8.9864 H         1 <0>         0.1091
     51 H22         2.7831   -4.9272    3.9385 H         1 <0>         0.1327
     52 H23         1.3300   -2.3883    2.8073 H         1 <0>         0.0991
     53 H24         1.6915   -3.9371    1.8735 H         1 <0>         0.1023
     54 H25         0.3017   -5.2612    3.5316 H         1 <0>         0.0969
     55 H26        -0.0598   -3.7124    4.4654 H         1 <0>         0.1067
     56 H27         7.0407    1.3278    7.2664 H         1 <0>         0.3853
@<TRIPOS>BOND
     1    1    2 1
     2    1   30 1
     3    1   31 1
     4    1   32 1
     5    2    3 1
     6    2   25 1
     7    2   29 1
     8    3    8 ar
     9    3    4 ar
    10    4    5 ar
    11    4   33 1
    12    5    6 ar
    13    5   34 1
    14    6    7 ar
    15    6    9 1
    16    7    8 ar
    17    7   35 1
    18    8   36 1
    19    9   10 2
    20    9   11 am
    21   11   12 1
    22   11   22 1
    23   12   17 1
    24   12   13 1
    25   12   37 1
    26   13   14 1
    27   13   38 1
    28   13   39 1
    29   14   15 1
    30   14   40 1
    31   14   41 1
    32   15   16 1
    33   15   18 1
    34   15   42 1
    35   16   17 1
    36   16   43 1
    37   16   44 1
    38   17   45 1
    39   17   46 1
    40   18   19 1
    41   18   47 1
    42   18   48 1
    43   19   20 1
    44   19   49 1
    45   19   50 1
    46   20   21 3
    47   22   24 1
    48   22   23 1
    49   22   51 1
    50   23   24 1
    51   23   52 1
    52   23   53 1
    53   24   54 1
    54   24   55 1
    55   25   26 1
    56   25   27 1
    57   25   28 1
    58   29   56 1
@<TRIPOS>MOLECULE
CHEMBL370657
   59    64     0     0     0
SMALL
USER_CHARGES

@<TRIPOS>ATOM
      1 C1         -1.6490    0.8550   -0.1445 C.3       1 <0>         0.0614
      2 N1         -0.7141   -0.2702   -0.0659 N.pl3     1 <0>        -0.4626
      3 C2         -0.0558   -0.8707   -1.1047 C.2       1 <0>         0.1870
      4 N2          0.6780   -1.8320   -0.5898 N.2       1 <0>        -0.2501
      5 N3          0.5178   -1.8643    0.6852 N.2       1 <0>        -0.2787
      6 C3         -0.3164   -0.9302    1.0557 C.2       1 <0>         0.2016
      7 C4         -0.7597   -0.6387    2.4663 C.3       1 <0>         0.0316
      8 C5         -0.5519    0.8465    2.7695 C.3       1 <0>        -0.1117
      9 C6         -1.0019    1.1424    4.2016 C.3       1 <0>        -0.1046
     10 C7         -1.5097   -0.1455    4.8531 C.3       1 <0>         0.0299
     11 C8         -0.3854   -1.1830    4.8759 C.3       1 <0>        -0.1029
     12 C9          0.0646   -1.4789    3.4438 C.3       1 <0>        -0.0929
     13 C10        -2.6916   -0.6918    4.0497 C.3       1 <0>        -0.0993
     14 C11        -2.2416   -0.9877    2.6176 C.3       1 <0>        -0.1068
     15 C12        -1.9529    0.1460    6.2636 C.2       1 <0>         0.2685
     16 N4         -2.4452   -0.7506    7.1211 N.2       1 <0>        -0.5307
     17 C13        -2.7318   -0.1685    8.2643 C.2       1 <0>         0.3404
     18 O1         -2.4218    1.1353    8.1557 O.3       1 <0>        -0.1026
     19 N5         -1.9114    1.3125    6.8428 N.2       1 <0>        -0.3333
     20 C14        -3.2960   -0.8305    9.4585 C.ar      1 <0>        -0.0641
     21 C15        -3.5678   -2.1999    9.4377 C.ar      1 <0>        -0.0224
     22 C16        -4.0942   -2.8127   10.5550 C.ar      1 <0>        -0.1602
     23 C17        -4.3537   -2.0717   11.6975 C.ar      1 <0>         0.1384
     24 C18        -4.0862   -0.7118   11.7234 C.ar      1 <0>        -0.1589
     25 C19        -3.5539   -0.0901   10.6139 C.ar      1 <0>        -0.0398
     26 F1         -4.8696   -2.6771   12.7895 F         1 <0>        -0.1280
     27 C20        -0.1518   -0.5069   -2.5355 C.ar      1 <0>         0.0339
     28 C21        -0.0249    0.8257   -2.9296 C.ar      1 <0>        -0.1021
     29 C22        -0.1155    1.1584   -4.2653 C.ar      1 <0>        -0.0845
     30 C23        -0.3317    0.1741   -5.2134 C.ar      1 <0>        -0.1045
     31 C24        -0.4583   -1.1487   -4.8292 C.ar      1 <0>        -0.0703
     32 C25        -0.3639   -1.4952   -3.4968 C.ar      1 <0>        -0.1468
     33 C26        -0.4958   -2.9376   -3.0805 C.3       1 <0>         0.5043
     34 F2         -0.7015   -3.7329   -4.2129 F         1 <0>        -0.1793
     35 F3          0.6747   -3.3445   -2.4312 F         1 <0>        -0.1482
     36 F4         -1.5832   -3.0744   -2.2109 F         1 <0>        -0.1789
     37 H1         -1.1096    1.7878    0.0200 H         1 <0>         0.0881
     38 H2         -2.1138    0.8730   -1.1303 H         1 <0>         0.0943
     39 H3         -2.4193    0.7413    0.6183 H         1 <0>         0.0982
     40 H4          0.5038    1.0952    2.6617 H         1 <0>         0.0762
     41 H5         -1.1391    1.4451    2.0731 H         1 <0>         0.0705
     42 H6         -0.1599    1.5316    4.7739 H         1 <0>         0.0775
     43 H7         -1.8029    1.8816    4.1853 H         1 <0>         0.0758
     44 H8          0.4566   -0.7938    5.4482 H         1 <0>         0.0705
     45 H9         -0.7471   -2.1005    5.3400 H         1 <0>         0.0838
     46 H10        -0.0834   -2.5370    3.2278 H         1 <0>         0.0841
     47 H11         1.1203   -1.2303    3.3360 H         1 <0>         0.0782
     48 H12        -3.0533   -1.6093    4.5138 H         1 <0>         0.0852
     49 H13        -3.4925    0.0474    4.0334 H         1 <0>         0.0701
     50 H14        -2.8288   -0.3891    1.9212 H         1 <0>         0.0676
     51 H15        -2.3896   -2.0458    2.4016 H         1 <0>         0.0798
     52 H16        -3.3663   -2.7780    8.5480 H         1 <0>         0.1537
     53 H17        -4.3052   -3.8718   10.5399 H         1 <0>         0.1504
     54 H18        -4.2909   -0.1391   12.6159 H         1 <0>         0.1496
     55 H19        -3.3413    0.9685   10.6368 H         1 <0>         0.1475
     56 H20         0.1435    1.5949   -2.1905 H         1 <0>         0.1350
     57 H21        -0.0178    2.1895   -4.5716 H         1 <0>         0.1412
     58 H22        -0.4022    0.4397   -6.2579 H         1 <0>         0.1423
     59 H23        -0.6269   -1.9124   -5.5740 H         1 <0>         0.1474
@<TRIPOS>BOND
     1    1    2 1
     2    1   37 1
     3    1   38 1
     4    1   39 1
     5    2    6 1
     6    2    3 1
     7    3    4 2
     8    3   27 1
     9    4    5 1
    10    5    6 2
    11    6    7 1
    12    7   12 1
    13    7   14 1
    14    7    8 1
    15    8    9 1
    16    8   40 1
    17    8   41 1
    18    9   10 1
    19    9   42 1
    20    9   43 1
    21   10   11 1
    22   10   13 1
    23   10   15 1
    24   11   12 1
    25   11   44 1
    26   11   45 1
    27   12   46 1
    28   12   47 1
    29   13   14 1
    30   13   48 1
    31   13   49 1
    32   14   50 1
    33   14   51 1
    34   15   19 2
    35   15   16 1
    36   16   17 2
    37   17   18 1
    38   17   20 1
    39   18   19 1
    40   20   25 ar
    41   20   21 ar
    42   21   22 ar
    43   21   52 1
    44   22   23 ar
    45   22   53 1
    46   23   24 ar
    47   23   26 1
    48   24   25 ar
    49   24   54 1
    50   25   55 1
    51   27   32 ar
    52   27   28 ar
    53   28   29 ar
    54   28   56 1
    55   29   30 ar
    56   29   57 1
    57   30   31 ar
    58   30   58 1
    59   31   32 ar
    60   31   59 1
    61   32   33 1
    62   33   34 1
    63   33   35 1
    64   33   36 1
@<TRIPOS>MOLECULE
CHEMBL503888
   43    45     0     0     0
SMALL
USER_CHARGES

@<TRIPOS>ATOM
      1 C1         -0.0187    1.5257    0.0104 C.3       1 <0>        -0.1196
      2 C2          1.4170    2.0550   -0.0004 C.3       1 <0>        -0.1454
      3 C3          2.0034    1.9105   -1.4063 C.3       1 <0>        -0.1160
      4 C4          2.3703    0.4465   -1.6575 C.3       1 <0>        -0.1371
      5 C5          3.0768   -0.1217   -0.4253 C.3       1 <0>         0.1345
      6 C6          2.1914   -1.1869    0.2248 C.3       1 <0>        -0.1274
      7 C7          1.0555   -0.5062    0.9912 C.3       1 <0>        -0.1245
      8 C8          0.0021   -0.0041    0.0020 C.3       1 <0>        -0.1303
      9 N1          4.3503   -0.7241   -0.8271 N.pl3     1 <0>        -0.6387
     10 C9          5.3678   -0.8329    0.0746 C.2       1 <0>         0.4769
     11 N2          5.3569   -0.4495    1.3406 N.2       1 <0>        -0.6907
     12 C10         6.3775   -0.5845    2.1584 C.2       1 <0>         0.5481
     13 O1          6.3640   -0.2312    3.3214 O.2       1 <0>        -0.4576
     14 C11         7.5669   -1.2272    1.4900 C.3       1 <0>        -0.1019
     15 S1          6.8973   -1.4905   -0.1918 S.3       1 <0>        -0.1058
     16 C12         8.7906   -0.3146    1.4628 C.3       1 <0>        -0.0890
     17 C13         9.6985   -0.8825    2.5872 C.3       1 <0>        -0.1206
     18 C14         9.4680   -2.4120    2.4820 C.3       1 <0>        -0.1208
     19 C15         7.9667   -2.5481    2.1337 C.3       1 <0>        -0.0940
     20 H1         -0.5288    1.8773    0.9073 H         1 <0>         0.0617
     21 H2         -0.5458    1.8868   -0.8727 H         1 <0>         0.0628
     22 H3          1.4189    3.1062    0.2877 H         1 <0>         0.0632
     23 H4          2.0201    1.4838    0.7053 H         1 <0>         0.0849
     24 H5          1.2664    2.2318   -2.1422 H         1 <0>         0.0700
     25 H6          2.8968    2.5289   -1.4927 H         1 <0>         0.0625
     26 H7          1.4640   -0.1266   -1.8531 H         1 <0>         0.0892
     27 H8          3.0343    0.3812   -2.5193 H         1 <0>         0.0700
     28 H9          3.2636    0.6805    0.2886 H         1 <0>         0.1133
     29 H10         1.7731   -1.8325   -0.5474 H         1 <0>         0.0682
     30 H11         2.7881   -1.7843    0.9141 H         1 <0>         0.0689
     31 H12         0.5994   -1.2214    1.6758 H         1 <0>         0.0654
     32 H13         1.4529    0.3361    1.5575 H         1 <0>         0.0783
     33 H14        -0.9782   -0.3822    0.2922 H         1 <0>         0.0611
     34 H15         0.2461   -0.3585   -0.9995 H         1 <0>         0.0710
     35 H16         4.4699   -1.0456   -1.7344 H         1 <0>         0.4223
     36 H17         9.2928   -0.3760    0.4973 H         1 <0>         0.0885
     37 H18         8.5061    0.7143    1.6831 H         1 <0>         0.0803
     38 H19        10.7437   -0.6363    2.4000 H         1 <0>         0.0783
     39 H20         9.3825   -0.5112    3.5621 H         1 <0>         0.0785
     40 H21        10.0834   -2.8366    1.6888 H         1 <0>         0.0727
     41 H22         9.6840   -2.8966    3.4342 H         1 <0>         0.0771
     42 H23         7.3845   -2.7161    3.0397 H         1 <0>         0.0852
     43 H24         7.8165   -3.3687    1.4321 H         1 <0>         0.0864
@<TRIPOS>BOND
     1    1    8 1
     2    1    2 1
     3    1   20 1
     4    1   21 1
     5    2    3 1
     6    2   22 1
     7    2   23 1
     8    3    4 1
     9    3   24 1
    10    3   25 1
    11    4    5 1
    12    4   26 1
    13    4   27 1
    14    5    6 1
    15    5    9 1
    16    5   28 1
    17    6    7 1
    18    6   29 1
    19    6   30 1
    20    7    8 1
    21    7   31 1
    22    7   32 1
    23    8   33 1
    24    8   34 1
    25    9   10 1
    26    9   35 1
    27   10   15 1
    28   10   11 2
    29   11   12 1
    30   12   13 2
    31   12   14 1
    32   14   19 1
    33   14   15 1
    34   14   16 1
    35   16   17 1
    36   16   36 1
    37   16   37 1
    38   17   18 1
    39   17   38 1
    40   17   39 1
    41   18   19 1
    42   18   40 1
    43   18   41 1
    44   19   42 1
    45   19   43 1
@<TRIPOS>MOLECULE
CHEMBL560849
   57    61     0     0     0
SMALL
USER_CHARGES

@<TRIPOS>ATOM
      1 C1         -0.0187    1.5258    0.0104 C.3       1 <0>        -0.1546
      2 C2          0.0021   -0.0041    0.0020 C.3       1 <0>        -0.0388
      3 C3          0.7421   -0.5109    1.2415 C.3       1 <0>        -0.1597
      4 C4         -1.4333   -0.5336    0.0129 C.3       1 <0>        -0.0351
      5 C5         -2.1387   -0.0476    1.2528 C.2       1 <0>         0.3044
      6 N1         -2.8225    1.0577    1.3594 N.2       1 <0>        -0.5365
      7 C6         -3.3126    1.1768    2.5984 C.2       1 <0>         0.2838
      8 N2         -2.9443    0.1428    3.2988 N.2       1 <0>        -0.3434
      9 O1         -2.1760   -0.6792    2.4328 O.3       1 <0>        -0.1039
     10 C7         -4.1535    2.3216    3.1017 C.3       1 <0>        -0.0917
     11 C8         -4.7854    2.1780    4.4878 C.3       1 <0>        -0.1569
     12 C9         -3.6093    3.1340    4.2785 C.3       1 <0>        -0.1514
     13 C10         0.7182   -0.4975   -1.2568 C.3       1 <0>        -0.1326
     14 C11         2.1320    0.0241   -1.2675 C.2       1 <0>         0.5162
     15 O2          2.5279    0.7218   -0.3579 O.2       1 <0>        -0.5262
     16 N3          2.9565   -0.2847   -2.2879 N.am      1 <0>        -0.7250
     17 C12         4.3309    0.2224   -2.2983 C.3       1 <0>         0.1584
     18 C13         4.3512    1.6287   -2.9006 C.3       1 <0>        -0.0943
     19 C14         3.8155    1.5778   -4.3329 C.3       1 <0>        -0.1062
     20 C15         4.6950    0.6502   -5.1737 C.3       1 <0>        -0.0872
     21 C16         6.1303    1.1798   -5.1845 C.3       1 <0>        -0.1085
     22 C17         6.6660    1.2307   -3.7523 C.3       1 <0>        -0.0885
     23 C18         5.7865    2.1583   -2.9115 C.3       1 <0>        -0.1072
     24 C19         6.6458   -0.1756   -3.1500 C.3       1 <0>        -0.1057
     25 C20         5.2104   -0.7052   -3.1391 C.3       1 <0>        -0.0931
     26 C21         4.6747   -0.7561   -4.5714 C.3       1 <0>        -0.1089
     27 H1          1.0039    1.9031    0.0027 H         1 <0>         0.0879
     28 H2         -0.5459    1.8868   -0.8726 H         1 <0>         0.0540
     29 H3         -0.5289    1.8773    0.9072 H         1 <0>         0.0527
     30 H4          0.2319   -0.1594    2.1383 H         1 <0>         0.0490
     31 H5          0.7568   -1.6008    1.2356 H         1 <0>         0.0539
     32 H6          1.7647   -0.1336    1.2338 H         1 <0>         0.0919
     33 H7         -1.9605   -0.1726   -0.8702 H         1 <0>         0.1154
     34 H8         -1.4185   -1.6235    0.0069 H         1 <0>         0.1057
     35 H9         -4.7230    2.8563    2.3416 H         1 <0>         0.1406
     36 H10        -5.7709    2.6182    4.6397 H         1 <0>         0.1115
     37 H11        -4.5928    1.2555    5.0356 H         1 <0>         0.1049
     38 H12        -2.6430    2.8404    4.6886 H         1 <0>         0.0993
     39 H13        -3.8210    4.2031    4.2927 H         1 <0>         0.1126
     40 H14         0.7330   -1.5874   -1.2628 H         1 <0>         0.0987
     41 H15         0.1910   -0.1364   -2.1398 H         1 <0>         0.0993
     42 H16         2.6400   -0.8427   -3.0154 H         1 <0>         0.3985
     43 H17         4.7126    0.2586   -1.2779 H         1 <0>         0.0877
     44 H18         3.7246    2.2895   -2.3016 H         1 <0>         0.0745
     45 H19         2.7929    1.2006   -4.3251 H         1 <0>         0.0605
     46 H20         3.8299    2.5797   -4.7619 H         1 <0>         0.0622
     47 H21         4.3133    0.6140   -6.1940 H         1 <0>         0.0703
     48 H22         6.7569    0.5190   -5.7835 H         1 <0>         0.0622
     49 H23         6.1447    2.1817   -5.6136 H         1 <0>         0.0625
     50 H24         7.6886    1.6080   -3.7600 H         1 <0>         0.0720
     51 H25         5.8009    3.1602   -3.3406 H         1 <0>         0.0654
     52 H26         6.1682    2.1945   -1.8911 H         1 <0>         0.0641
     53 H27         7.2724   -0.8365   -3.7490 H         1 <0>         0.0680
     54 H28         7.0275   -0.1394   -2.1296 H         1 <0>         0.0652
     55 H29         5.1960   -1.7071   -2.7100 H         1 <0>         0.0756
     56 H30         3.6522   -1.1334   -4.5636 H         1 <0>         0.0591
     57 H31         5.3013   -1.4169   -5.1704 H         1 <0>         0.0673
@<TRIPOS>BOND
     1    1    2 1
     2    1   27 1
     3    1   28 1
     4    1   29 1
     5    2    3 1
     6    2    4 1
     7    2   13 1
     8    3   30 1
     9    3   31 1
    10    3   32 1
    11    4    5 1
    12    4   33 1
    13    4   34 1
    14    5    9 1
    15    5    6 2
    16    6    7 1
    17    7    8 2
    18    7   10 1
    19    8    9 1
    20   10   12 1
    21   10   11 1
    22   10   35 1
    23   11   12 1
    24   11   36 1
    25   11   37 1
    26   12   38 1
    27   12   39 1
    28   13   14 1
    29   13   40 1
    30   13   41 1
    31   14   15 2
    32   14   16 am
    33   16   17 1
    34   16   42 1
    35   17   25 1
    36   17   18 1
    37   17   43 1
    38   18   23 1
    39   18   19 1
    40   18   44 1
    41   19   20 1
    42   19   45 1
    43   19   46 1
    44   20   26 1
    45   20   21 1
    46   20   47 1
    47   21   22 1
    48   21   48 1
    49   21   49 1
    50   22   23 1
    51   22   24 1
    52   22   50 1
    53   23   51 1
    54   23   52 1
    55   24   25 1
    56   24   53 1
    57   24   54 1
    58   25   26 1
    59   25   55 1
    60   26   56 1
    61   26   57 1
@<TRIPOS>MOLECULE
CHEMBL551889
   44    46     0     0     0
SMALL
USER_CHARGES

@<TRIPOS>ATOM
      1 C1         -0.0496    1.2698    0.0735 C.ar      1 <0>        -0.1249
      2 C2          1.1089    2.0245    0.0668 C.ar      1 <0>        -0.0144
      3 C3          2.3409    1.3999    0.0158 C.ar      1 <0>        -0.6682
      4 C4          2.4153    0.0203   -0.0290 C.ar      1 <0>        -0.0146
      5 C5          1.2566   -0.7353   -0.0223 C.ar      1 <0>        -0.0569
      6 C6          0.0236   -0.1094    0.0292 C.ar      1 <0>        -0.0536
      7 Cl1         1.3493   -2.4678   -0.0791 Cl        1 <0>        -0.0534
      8 S1          3.8167    2.3624    0.0072 S.o2      1 <0>         2.6956
      9 O1          4.8222    1.5588   -0.5947 O.2       1 <0>        -0.9474
     10 O2          3.4631    3.6436   -0.4955 O.2       1 <0>        -0.9492
     11 N1          4.2677    2.5813    1.5856 N.pl3     1 <0>        -1.1113
     12 C7          4.6696    1.4309    2.3988 C.3       1 <0>         0.1528
     13 C8          5.3705    1.9150    3.6420 C.ar      1 <0>        -0.0782
     14 C9          6.7415    2.1011    3.6315 C.ar      1 <0>        -0.1062
     15 C10         7.3893    2.5440    4.7661 C.ar      1 <0>        -0.0596
     16 C11         6.6585    2.8045    5.9264 C.ar      1 <0>        -0.1231
     17 C12         5.2757    2.6146    5.9303 C.ar      1 <0>        -0.1259
     18 C13         4.6395    2.1767    4.7871 C.ar      1 <0>        -0.1099
     19 C14         7.3461    3.2789    7.1462 C.2       1 <0>         0.5719
     20 O3          8.5607    3.3051    7.1879 O.2       1 <0>        -0.5318
     21 N2          6.6264    3.6823    8.2119 N.am      1 <0>        -0.6154
     22 C15         5.1643    3.5963    8.3406 C.3       1 <0>         0.0876
     23 C16         4.7889    4.1980    9.7112 C.3       1 <0>        -0.1366
     24 C17         6.0050    5.1045   10.0377 C.3       1 <0>        -0.1345
     25 C18         7.1753    4.2770    9.4441 C.3       1 <0>         0.1043
     26 H1         -1.0118    1.7583    0.1179 H         1 <0>         0.1453
     27 H2          1.0512    3.1024    0.1011 H         1 <0>         0.1485
     28 H3          3.3780   -0.4676   -0.0696 H         1 <0>         0.1518
     29 H4         -0.8815   -0.6988    0.0344 H         1 <0>         0.1440
     30 H5          4.2656    3.4712    1.9716 H         1 <0>         0.4229
     31 H6          3.7859    0.8580    2.6797 H         1 <0>         0.0787
     32 H7          5.3455    0.7979    1.8238 H         1 <0>         0.0947
     33 H8          7.3058    1.8989    2.7331 H         1 <0>         0.1360
     34 H9          8.4595    2.6886    4.7567 H         1 <0>         0.1392
     35 H10         4.7045    2.8143    6.8248 H         1 <0>         0.1616
     36 H11         3.5690    2.0336    4.7874 H         1 <0>         0.1317
     37 H12         4.6878    4.1658    7.5427 H         1 <0>         0.0815
     38 H13         4.8488    2.5540    8.2943 H         1 <0>         0.0803
     39 H14         3.8763    4.7893    9.6359 H         1 <0>         0.0866
     40 H15         4.6806    3.4134   10.4602 H         1 <0>         0.0804
     41 H16         5.9155    6.0715    9.5428 H         1 <0>         0.0785
     42 H17         6.1227    5.2277   11.1143 H         1 <0>         0.0881
     43 H18         7.4809    3.4950   10.1392 H         1 <0>         0.0719
     44 H19         8.0180    4.9271    9.2088 H         1 <0>         0.0811
@<TRIPOS>BOND
     1    1    6 ar
     2    1    2 ar
     3    1   26 1
     4    2    3 ar
     5    2   27 1
     6    3    4 ar
     7    3    8 1
     8    4    5 ar
     9    4   28 1
    10    5    6 ar
    11    5    7 1
    12    6   29 1
    13    8    9 2
    14    8   10 2
    15    8   11 1
    16   11   12 1
    17   11   30 1
    18   12   13 1
    19   12   31 1
    20   12   32 1
    21   13   18 ar
    22   13   14 ar
    23   14   15 ar
    24   14   33 1
    25   15   16 ar
    26   15   34 1
    27   16   17 ar
    28   16   19 1
    29   17   18 ar
    30   17   35 1
    31   18   36 1
    32   19   20 2
    33   19   21 am
    34   21   25 1
    35   21   22 1
    36   22   23 1
    37   22   37 1
    38   22   38 1
    39   23   24 1
    40   23   39 1
    41   23   40 1
    42   24   25 1
    43   24   41 1
    44   24   42 1
    45   25   43 1
    46   25   44 1
@<TRIPOS>MOLECULE
CHEMBL491489
   57    59     0     0     0
SMALL
USER_CHARGES

@<TRIPOS>ATOM
      1 C1         -0.5380    0.8198    0.9408 C.3       1 <0>        -0.1877
      2 C2         -0.3267   -0.6262    0.4879 C.3       1 <0>         0.1584
      3 H1         -1.2833   -1.1483    0.4716 H         1 <0>         0.0876
      4 C3          0.2920   -0.6414   -0.9140 C.3       1 <0>         0.0315
      5 N1          0.6347   -2.0222   -1.2796 N.3       1 <0>        -0.5317
      6 C4          1.6543   -2.5748   -0.3779 C.3       1 <0>         0.0454
      7 C5          1.0916   -2.6388    1.0459 C.3       1 <0>         0.1201
      8 N2          0.5911   -1.3053    1.4152 N.pl3     1 <0>        -0.9955
      9 S1          1.0530   -0.5855    2.8332 S.o2      1 <0>         2.6882
     10 O1          2.1960   -1.2929    3.2942 O.2       1 <0>        -0.9540
     11 O2          1.0701    0.8147    2.5912 O.2       1 <0>        -0.9460
     12 C6         -0.2277   -0.8781    4.0074 C.ar      1 <0>        -0.6645
     13 C7         -1.2743    0.0173    4.1261 C.ar      1 <0>        -0.0209
     14 C8         -2.2791   -0.2123    5.0473 C.ar      1 <0>        -0.1149
     15 C9         -2.2376   -1.3374    5.8494 C.ar      1 <0>        -0.0795
     16 C10        -1.1916   -2.2332    5.7300 C.ar      1 <0>        -0.1120
     17 C11        -0.1890   -2.0058    4.8058 C.ar      1 <0>        -0.0161
     18 C12        -3.3325   -1.5871    6.8543 C.3       1 <0>         0.1392
     19 C13        -2.7639   -2.3584    8.0470 C.3       1 <0>        -0.1510
     20 C14        -4.4469   -2.4071    6.2011 C.3       1 <0>         0.4276
     21 F1         -3.9295   -3.6303    5.7616 F         1 <0>        -0.1728
     22 F2         -5.4634   -2.6389    7.1340 F         1 <0>        -0.1691
     23 F3         -4.9669   -1.7019    5.1105 F         1 <0>        -0.1795
     24 O3         -3.8611   -0.3376    7.3032 O.3       1 <0>        -0.5172
     25 C15         1.0708   -2.1032   -2.6800 C.3       1 <0>         0.0196
     26 C16        -0.1499   -2.0291   -3.5994 C.3       1 <0>         0.3512
     27 C17         0.2769   -2.2823   -5.0224 C.ar      1 <0>        -0.1133
     28 C18         0.6686   -1.2354   -5.8428 C.ar      1 <0>        -0.1406
     29 C19         1.0535   -1.5059   -7.1423 C.ar      1 <0>         0.1038
     30 N3          1.0504   -2.7413   -7.6035 N.ar      1 <0>        -0.4709
     31 C20         0.6841   -3.7611   -6.8519 C.ar      1 <0>         0.1038
     32 C21         0.2925   -3.5682   -5.5406 C.ar      1 <0>        -0.1388
     33 F4         -1.0838   -2.9966   -3.2135 F         1 <0>        -0.1764
     34 F5         -0.7283   -0.7588   -3.5050 F         1 <0>        -0.1879
     35 H2          0.3943    1.3742    0.8333 H         1 <0>         0.0973
     36 H3         -1.3095    1.2839    0.3264 H         1 <0>         0.0761
     37 H4         -0.8494    0.8316    1.9853 H         1 <0>         0.0673
     38 H5         -0.4244   -0.2422   -1.6320 H         1 <0>         0.1059
     39 H6          1.1936   -0.0289   -0.9203 H         1 <0>         0.0484
     40 H7          1.9260   -3.5777   -0.7071 H         1 <0>         0.0947
     41 H8          2.5370   -1.9354   -0.3917 H         1 <0>         0.0470
     42 H9          0.2728   -3.3574    1.0841 H         1 <0>         0.0824
     43 H10         1.8786   -2.9393    1.7376 H         1 <0>         0.1041
     44 H11        -1.3067    0.8963    3.4995 H         1 <0>         0.1511
     45 H12        -3.0963    0.4876    5.1405 H         1 <0>         0.1361
     46 H13        -1.1590   -3.1120    6.3569 H         1 <0>         0.1436
     47 H14         0.6263   -2.7076    4.7100 H         1 <0>         0.1471
     48 H15        -1.9700   -1.7742    8.5123 H         1 <0>         0.0939
     49 H16        -3.5558   -2.5390    8.7739 H         1 <0>         0.0872
     50 H17        -2.3607   -3.3114    7.7046 H         1 <0>         0.0908
     51 H18        -4.2393    0.2055    6.5982 H         1 <0>         0.3878
     52 H19         1.7423   -1.2733   -2.9001 H         1 <0>         0.0738
     53 H20         1.5926   -3.0461   -2.8442 H         1 <0>         0.1088
     54 H21         0.6726   -0.2214   -5.4711 H         1 <0>         0.1441
     55 H22         1.3600   -0.6960   -7.7877 H         1 <0>         0.1649
     56 H23         0.6941   -4.7591   -7.2647 H         1 <0>         0.1653
     57 H24        -0.0016   -4.4080   -4.9285 H         1 <0>         0.1460
@<TRIPOS>BOND
     1    1    2 1
     2    1   35 1
     3    1   36 1
     4    1   37 1
     5    2    3 1
     6    2    8 1
     7    2    4 1
     8    4    5 1
     9    4   38 1
    10    4   39 1
    11    5    6 1
    12    5   25 1
    13    6    7 1
    14    6   40 1
    15    6   41 1
    16    7    8 1
    17    7   42 1
    18    7   43 1
    19    8    9 1
    20    9   10 2
    21    9   11 2
    22    9   12 1
    23   12   17 ar
    24   12   13 ar
    25   13   14 ar
    26   13   44 1
    27   14   15 ar
    28   14   45 1
    29   15   16 ar
    30   15   18 1
    31   16   17 ar
    32   16   46 1
    33   17   47 1
    34   18   19 1
    35   18   20 1
    36   18   24 1
    37   19   48 1
    38   19   49 1
    39   19   50 1
    40   20   21 1
    41   20   22 1
    42   20   23 1
    43   24   51 1
    44   25   26 1
    45   25   52 1
    46   25   53 1
    47   26   27 1
    48   26   33 1
    49   26   34 1
    50   27   32 ar
    51   27   28 ar
    52   28   29 ar
    53   28   54 1
    54   29   30 ar
    55   29   55 1
    56   30   31 ar
    57   31   32 ar
    58   31   56 1
    59   32   57 1
@<TRIPOS>MOLECULE
CHEMBL491489__1
   57    59     0     0     0
SMALL
USER_CHARGES

@<TRIPOS>ATOM
      1 C1         -0.5380    0.8198    0.9408 C.3       1 <0>        -0.1878
      2 C2         -0.3267   -0.6262    0.4879 C.3       1 <0>         0.1588
      3 H1         -1.2833   -1.1483    0.4716 H         1 <0>         0.0877
      4 C3          0.2920   -0.6414   -0.9140 C.3       1 <0>         0.0313
      5 N1          0.6347   -2.0222   -1.2796 N.3       1 <0>        -0.5316
      6 C4          1.6543   -2.5748   -0.3779 C.3       1 <0>         0.0452
      7 C5          1.0916   -2.6388    1.0459 C.3       1 <0>         0.1203
      8 N2          0.5911   -1.3053    1.4152 N.pl3     1 <0>        -0.9954
      9 S1          1.0530   -0.5855    2.8332 S.o2      1 <0>         2.6880
     10 O1          2.1960   -1.2929    3.2942 O.2       1 <0>        -0.9538
     11 O2          1.0701    0.8147    2.5912 O.2       1 <0>        -0.9460
     12 C6         -0.2277   -0.8781    4.0074 C.ar      1 <0>        -0.6644
     13 C7         -1.2743    0.0173    4.1261 C.ar      1 <0>        -0.0209
     14 C8         -2.2791   -0.2123    5.0473 C.ar      1 <0>        -0.1149
     15 C9         -2.2376   -1.3374    5.8494 C.ar      1 <0>        -0.0795
     16 C10        -1.1916   -2.2332    5.7300 C.ar      1 <0>        -0.1120
     17 C11        -0.1890   -2.0058    4.8058 C.ar      1 <0>        -0.0161
     18 C12        -3.3325   -1.5871    6.8543 C.3       1 <0>         0.1393
     19 C13        -3.5077   -3.0939    7.0538 C.3       1 <0>        -0.1504
     20 C14        -2.9592   -0.9361    8.1876 C.3       1 <0>         0.4269
     21 F1         -2.7991    0.4417    8.0052 F         1 <0>        -0.1793
     22 F2         -3.9757   -1.1679    9.1205 F         1 <0>        -0.1690
     23 F3         -1.7616   -1.4868    8.6563 F         1 <0>        -0.1726
     24 O3         -4.5558   -1.0246    6.3755 O.3       1 <0>        -0.5173
     25 C15         1.0708   -2.1032   -2.6800 C.3       1 <0>         0.0195
     26 C16        -0.1499   -2.0291   -3.5994 C.3       1 <0>         0.3513
     27 C17         0.2769   -2.2823   -5.0224 C.ar      1 <0>        -0.1134
     28 C18         0.6686   -1.2354   -5.8428 C.ar      1 <0>        -0.1406
     29 C19         1.0535   -1.5059   -7.1423 C.ar      1 <0>         0.1038
     30 N3          1.0504   -2.7413   -7.6035 N.ar      1 <0>        -0.4709
     31 C20         0.6841   -3.7611   -6.8519 C.ar      1 <0>         0.1038
     32 C21         0.2925   -3.5682   -5.5406 C.ar      1 <0>        -0.1388
     33 F4         -1.0838   -2.9966   -3.2135 F         1 <0>        -0.1764
     34 F5         -0.7283   -0.7588   -3.5050 F         1 <0>        -0.1879
     35 H2          0.3943    1.3742    0.8333 H         1 <0>         0.0972
     36 H3         -1.3095    1.2839    0.3264 H         1 <0>         0.0761
     37 H4         -0.8494    0.8316    1.9853 H         1 <0>         0.0675
     38 H5         -0.4244   -0.2422   -1.6320 H         1 <0>         0.1059
     39 H6          1.1936   -0.0289   -0.9203 H         1 <0>         0.0484
     40 H7          1.9260   -3.5777   -0.7071 H         1 <0>         0.0947
     41 H8          2.5370   -1.9354   -0.3917 H         1 <0>         0.0470
     42 H9          0.2728   -3.3574    1.0841 H         1 <0>         0.0824
     43 H10         1.8786   -2.9393    1.7376 H         1 <0>         0.1040
     44 H11        -1.3067    0.8963    3.4995 H         1 <0>         0.1511
     45 H12        -3.0963    0.4876    5.1405 H         1 <0>         0.1361
     46 H13        -1.1590   -3.1120    6.3569 H         1 <0>         0.1436
     47 H14         0.6263   -2.7076    4.7100 H         1 <0>         0.1471
     48 H15        -2.5746   -3.5229    7.4190 H         1 <0>         0.0908
     49 H16        -4.2997   -3.2745    7.7806 H         1 <0>         0.0870
     50 H17        -3.7737   -3.5577    6.1039 H         1 <0>         0.0937
     51 H18        -4.5179   -0.0699    6.2262 H         1 <0>         0.3879
     52 H19         1.7423   -1.2733   -2.9001 H         1 <0>         0.0738
     53 H20         1.5926   -3.0461   -2.8442 H         1 <0>         0.1088
     54 H21         0.6726   -0.2214   -5.4711 H         1 <0>         0.1442
     55 H22         1.3600   -0.6960   -7.7877 H         1 <0>         0.1649
     56 H23         0.6941   -4.7591   -7.2647 H         1 <0>         0.1653
     57 H24        -0.0016   -4.4080   -4.9285 H         1 <0>         0.1460
@<TRIPOS>BOND
     1    1    2 1
     2    1   35 1
     3    1   36 1
     4    1   37 1
     5    2    3 1
     6    2    8 1
     7    2    4 1
     8    4    5 1
     9    4   38 1
    10    4   39 1
    11    5    6 1
    12    5   25 1
    13    6    7 1
    14    6   40 1
    15    6   41 1
    16    7    8 1
    17    7   42 1
    18    7   43 1
    19    8    9 1
    20    9   10 2
    21    9   11 2
    22    9   12 1
    23   12   17 ar
    24   12   13 ar
    25   13   14 ar
    26   13   44 1
    27   14   15 ar
    28   14   45 1
    29   15   16 ar
    30   15   18 1
    31   16   17 ar
    32   16   46 1
    33   17   47 1
    34   18   19 1
    35   18   20 1
    36   18   24 1
    37   19   48 1
    38   19   49 1
    39   19   50 1
    40   20   21 1
    41   20   22 1
    42   20   23 1
    43   24   51 1
    44   25   26 1
    45   25   52 1
    46   25   53 1
    47   26   27 1
    48   26   33 1
    49   26   34 1
    50   27   32 ar
    51   27   28 ar
    52   28   29 ar
    53   28   54 1
    54   29   30 ar
    55   29   55 1
    56   30   31 ar
    57   31   32 ar
    58   31   56 1
    59   32   57 1
@<TRIPOS>MOLECULE
CHEMBL219049
   61    65     0     0     0
SMALL
USER_CHARGES

@<TRIPOS>ATOM
      1 C1         -0.7228    1.6729    0.2565 C.3       1 <0>        -0.1314
      2 C2         -0.0791    0.2888    0.1532 C.3       1 <0>        -0.0853
      3 C3         -1.1596   -0.7956   -0.0651 C.3       1 <0>        -0.0967
      4 C4         -1.4364   -1.2602    1.3819 C.3       1 <0>         0.1034
      5 N1         -0.2088   -0.9644    2.1298 N.am      1 <0>        -0.6101
      6 C5          0.5696   -0.0928    1.4655 C.2       1 <0>         0.5271
      7 O1          1.6369    0.3265    1.8606 O.2       1 <0>        -0.5146
      8 C6          0.1254   -1.5446    3.4329 C.3       1 <0>         0.1704
      9 C7         -1.1621   -1.9195    4.1695 C.3       1 <0>        -0.0907
     10 C8         -2.0166   -0.6668    4.3730 C.3       1 <0>        -0.1119
     11 C9         -1.2346    0.3550    5.2008 C.3       1 <0>        -0.0846
     12 C10         0.0530    0.7300    4.4641 C.3       1 <0>        -0.1005
     13 C11         0.9074   -0.5227    4.2606 C.3       1 <0>        -0.1038
     14 C12         1.2564   -1.1286    5.6215 C.3       1 <0>        -0.0858
     15 C13        -0.0311   -1.5036    6.3581 C.3       1 <0>        -0.0738
     16 C14        -0.8855   -0.2509    6.5616 C.3       1 <0>        -0.0992
     17 C15        -0.8131   -2.5254    5.5304 C.3       1 <0>        -0.0967
     18 C16         0.3127   -2.1004    7.6985 C.2       1 <0>         0.5260
     19 O2          1.4732   -2.2146    8.0319 O.2       1 <0>        -0.5379
     20 N2         -0.6695   -2.5073    8.5269 N.am      1 <0>        -0.8554
     21 C17        -0.6168   -1.9461   -0.9152 C.3       1 <0>         0.0742
     22 O3         -1.6703   -2.8704   -1.1943 O.3       1 <0>        -0.2975
     23 C18        -1.3547   -3.9554   -1.9428 C.ar      1 <0>         0.3520
     24 C19        -2.3418   -4.8863   -2.2510 C.ar      1 <0>        -0.1885
     25 C20        -2.0150   -5.9888   -3.0136 C.ar      1 <0>         0.0080
     26 C21        -0.6891   -6.1271   -3.4510 C.ar      1 <0>        -0.1205
     27 C22         0.2441   -5.1504   -3.1004 C.ar      1 <0>         0.2003
     28 N3         -0.1131   -4.1113   -2.3746 N.ar      1 <0>        -0.5379
     29 C23        -0.2992   -7.2535   -4.2446 C.1       1 <0>         0.2564
     30 N4          0.0101   -8.1471   -4.8741 N.1       1 <0>        -0.4065
     31 C24         0.9484    0.2607   -0.9801 C.3       1 <0>        -0.1399
     32 H1          0.0447    2.4150    0.4766 H         1 <0>         0.0696
     33 H2         -1.2067    1.9200   -0.6884 H         1 <0>         0.0720
     34 H3         -1.4648    1.6698    1.0549 H         1 <0>         0.0608
     35 H4         -2.0554   -0.3685   -0.5158 H         1 <0>         0.1118
     36 H5         -2.2764   -0.7067    1.8016 H         1 <0>         0.0813
     37 H6         -1.6415   -2.3306    1.4017 H         1 <0>         0.0842
     38 H7          0.7342   -2.4370    3.2879 H         1 <0>         0.0715
     39 H8         -1.7192   -2.6475    3.5798 H         1 <0>         0.0807
     40 H9         -2.2652   -0.2352    3.4035 H         1 <0>         0.0707
     41 H10        -2.9338   -0.9340    4.8978 H         1 <0>         0.0664
     42 H11        -1.8433    1.2475    5.3457 H         1 <0>         0.0751
     43 H12        -0.1957    1.1617    3.4946 H         1 <0>         0.0615
     44 H13         0.6101    1.4580    5.0538 H         1 <0>         0.0637
     45 H14         1.8247   -0.2556    3.7358 H         1 <0>         0.1101
     46 H15         1.8652   -2.0211    5.4765 H         1 <0>         0.0709
     47 H16         1.8136   -0.4007    6.2112 H         1 <0>         0.0757
     48 H17        -0.3284    0.4771    7.1513 H         1 <0>         0.0696
     49 H18        -1.8028   -0.5180    7.0864 H         1 <0>         0.0667
     50 H19        -1.7303   -2.7926    6.0551 H         1 <0>         0.0734
     51 H20        -0.2043   -3.4179    5.3854 H         1 <0>         0.0716
     52 H21        -1.5977   -2.4160    8.2603 H         1 <0>         0.4001
     53 H22        -0.4482   -2.8914    9.3897 H         1 <0>         0.4016
     54 H23        -0.2222   -1.5514   -1.8514 H         1 <0>         0.0844
     55 H24         0.1789   -2.4555   -0.3716 H         1 <0>         0.0735
     56 H25        -3.3527   -4.7477   -1.8968 H         1 <0>         0.1548
     57 H26        -2.7613   -6.7271   -3.2674 H         1 <0>         0.1534
     58 H27         1.2679   -5.2458   -3.4307 H         1 <0>         0.1717
     59 H28         1.7188    1.0081   -0.7906 H         1 <0>         0.0718
     60 H29         1.4056   -0.7274   -1.0316 H         1 <0>         0.0635
     61 H30         0.4527    0.4814   -1.9255 H         1 <0>         0.0693
@<TRIPOS>BOND
     1    1    2 1
     2    1   32 1
     3    1   33 1
     4    1   34 1
     5    2    6 1
     6    2    3 1
     7    2   31 1
     8    3    4 1
     9    3   21 1
    10    3   35 1
    11    4    5 1
    12    4   36 1
    13    4   37 1
    14    5    6 am
    15    5    8 1
    16    6    7 2
    17    8   13 1
    18    8    9 1
    19    8   38 1
    20    9   17 1
    21    9   10 1
    22    9   39 1
    23   10   11 1
    24   10   40 1
    25   10   41 1
    26   11   16 1
    27   11   12 1
    28   11   42 1
    29   12   13 1
    30   12   43 1
    31   12   44 1
    32   13   14 1
    33   13   45 1
    34   14   15 1
    35   14   46 1
    36   14   47 1
    37   15   16 1
    38   15   17 1
    39   15   18 1
    40   16   48 1
    41   16   49 1
    42   17   50 1
    43   17   51 1
    44   18   19 2
    45   18   20 am
    46   20   52 1
    47   20   53 1
    48   21   22 1
    49   21   54 1
    50   21   55 1
    51   22   23 1
    52   23   28 ar
    53   23   24 ar
    54   24   25 ar
    55   24   56 1
    56   25   26 ar
    57   25   57 1
    58   26   27 ar
    59   26   29 1
    60   27   28 ar
    61   27   58 1
    62   29   30 3
    63   31   59 1
    64   31   60 1
    65   31   61 1
@<TRIPOS>MOLECULE
CHEMBL219049__1
   61    65     0     0     0
SMALL
USER_CHARGES

@<TRIPOS>ATOM
      1 C1         -0.7070    1.1317    0.3700 C.3       1 <0>        -0.1331
      2 C2         -0.2113   -0.2680    0.0012 C.3       1 <0>        -0.0853
      3 C3          0.9183   -0.1822   -1.0513 C.3       1 <0>        -0.0969
      4 C4          1.8481   -1.3341   -0.6099 C.3       1 <0>         0.1053
      5 N1          1.5956   -1.5135    0.8246 N.am      1 <0>        -0.6103
      6 C5          0.4426   -0.9295    1.1942 C.2       1 <0>         0.5297
      7 O1         -0.0076   -0.9322    2.3204 O.2       1 <0>        -0.5143
      8 C6          2.4857   -2.2361    1.7367 C.3       1 <0>         0.1699
      9 C7          3.2824   -3.2798    0.9514 C.3       1 <0>        -0.0909
     10 C8          2.3178   -4.2671    0.2913 C.3       1 <0>        -0.1119
     11 C9          1.4861   -4.9653    1.3690 C.3       1 <0>        -0.0847
     12 C10         0.6893   -3.9216    2.1543 C.3       1 <0>        -0.1006
     13 C11         1.6539   -2.9343    2.8144 C.3       1 <0>        -0.1040
     14 C12         2.5835   -3.6890    3.7669 C.3       1 <0>        -0.0857
     15 C13         3.3802   -4.7327    2.9816 C.3       1 <0>        -0.0739
     16 C14         2.4156   -5.7200    2.3215 C.3       1 <0>        -0.0992
     17 C15         4.2120   -4.0345    1.9038 C.3       1 <0>        -0.0967
     18 C16         4.2958   -5.4760    3.9198 C.2       1 <0>         0.5262
     19 O2          4.3097   -5.1984    5.1003 O.2       1 <0>        -0.5379
     20 N2          5.0992   -6.4494    3.4469 N.am      1 <0>        -0.8554
     21 C17         0.3739   -0.4271   -2.4600 C.3       1 <0>         0.0800
     22 O3          1.4173   -0.2262   -3.4155 O.3       1 <0>        -0.2976
     23 C18         1.0990   -0.4047   -4.7209 C.ar      1 <0>         0.3520
     24 C19         2.0766   -0.2283   -5.6952 C.ar      1 <0>        -0.1882
     25 C20         1.7471   -0.4119   -7.0224 C.ar      1 <0>         0.0080
     26 C21         0.4283   -0.7720   -7.3379 C.ar      1 <0>        -0.1203
     27 C22        -0.4954   -0.9302   -6.3039 C.ar      1 <0>         0.2000
     28 N3         -0.1359   -0.7497   -5.0499 N.ar      1 <0>        -0.5381
     29 C23         0.0360   -0.9737   -8.7003 C.1       1 <0>         0.2561
     30 N4         -0.2753   -1.1337   -9.7810 N.1       1 <0>        -0.4064
     31 C24        -1.3677   -1.1244   -0.5188 C.3       1 <0>        -0.1393
     32 H1          0.1316    1.7337    0.7198 H         1 <0>         0.0604
     33 H2         -1.1515    1.6025   -0.5069 H         1 <0>         0.0675
     34 H3         -1.4544    1.0561    1.1598 H         1 <0>         0.0714
     35 H4          1.4321    0.7774   -0.9946 H         1 <0>         0.1054
     36 H5          1.6023   -2.2465   -1.1532 H         1 <0>         0.0775
     37 H6          2.8904   -1.0632   -0.7784 H         1 <0>         0.0840
     38 H7          3.1729   -1.5327    2.2069 H         1 <0>         0.0728
     39 H8          3.8750   -2.7823    0.1836 H         1 <0>         0.0811
     40 H9          1.6556   -3.7294   -0.3873 H         1 <0>         0.0697
     41 H10         2.8854   -5.0106   -0.2682 H         1 <0>         0.0662
     42 H11         0.7989   -5.6687    0.8988 H         1 <0>         0.0749
     43 H12         0.0271   -3.3840    1.4758 H         1 <0>         0.0612
     44 H13         0.0967   -4.4191    2.9221 H         1 <0>         0.0639
     45 H14         1.0863   -2.1908    3.3739 H         1 <0>         0.1103
     46 H15         3.2707   -2.9856    4.2372 H         1 <0>         0.0712
     47 H16         1.9909   -4.1864    4.5347 H         1 <0>         0.0757
     48 H17         1.8231   -6.2175    3.0893 H         1 <0>         0.0697
     49 H18         2.9833   -6.4636    1.7620 H         1 <0>         0.0667
     50 H19         4.7796   -4.7780    1.3444 H         1 <0>         0.0734
     51 H20         4.8992   -3.3311    2.3741 H         1 <0>         0.0722
     52 H21         5.0881   -6.6715    2.5028 H         1 <0>         0.4001
     53 H22         5.6886   -6.9279    4.0508 H         1 <0>         0.4017
     54 H23         0.0052   -1.4501   -2.5343 H         1 <0>         0.0797
     55 H24        -0.4412    0.2683   -2.6605 H         1 <0>         0.0812
     56 H25         3.0821    0.0496   -5.4156 H         1 <0>         0.1547
     57 H26         2.4859   -0.2812   -7.7992 H         1 <0>         0.1533
     58 H27        -1.5137   -1.2069   -6.5339 H         1 <0>         0.1718
     59 H28        -1.7894   -0.6621   -1.4113 H         1 <0>         0.0747
     60 H29        -1.0000   -2.1206   -0.7648 H         1 <0>         0.0608
     61 H30        -2.1374   -1.2006    0.2492 H         1 <0>         0.0703
@<TRIPOS>BOND
     1    1    2 1
     2    1   32 1
     3    1   33 1
     4    1   34 1
     5    2    6 1
     6    2    3 1
     7    2   31 1
     8    3    4 1
     9    3   21 1
    10    3   35 1
    11    4    5 1
    12    4   36 1
    13    4   37 1
    14    5    6 am
    15    5    8 1
    16    6    7 2
    17    8   13 1
    18    8    9 1
    19    8   38 1
    20    9   17 1
    21    9   10 1
    22    9   39 1
    23   10   11 1
    24   10   40 1
    25   10   41 1
    26   11   16 1
    27   11   12 1
    28   11   42 1
    29   12   13 1
    30   12   43 1
    31   12   44 1
    32   13   14 1
    33   13   45 1
    34   14   15 1
    35   14   46 1
    36   14   47 1
    37   15   16 1
    38   15   17 1
    39   15   18 1
    40   16   48 1
    41   16   49 1
    42   17   50 1
    43   17   51 1
    44   18   19 2
    45   18   20 am
    46   20   52 1
    47   20   53 1
    48   21   22 1
    49   21   54 1
    50   21   55 1
    51   22   23 1
    52   23   28 ar
    53   23   24 ar
    54   24   25 ar
    55   24   56 1
    56   25   26 ar
    57   25   57 1
    58   26   27 ar
    59   26   29 1
    60   27   28 ar
    61   27   58 1
    62   29   30 3
    63   31   59 1
    64   31   60 1
    65   31   61 1
@<TRIPOS>MOLECULE
CHEMBL524854
   40    42     0     0     0
SMALL
USER_CHARGES

@<TRIPOS>ATOM
      1 C1         -0.0187    1.5258    0.0104 C.3       1 <0>        -0.1477
      2 C2          0.0021   -0.0041    0.0020 C.3       1 <0>        -0.1359
      3 C3          0.7182   -0.4975   -1.2568 C.3       1 <0>        -0.0852
      4 C4          0.7390   -2.0273   -1.2652 C.3       1 <0>        -0.0985
      5 C5         -0.6243   -2.6052   -0.9017 C.2       1 <0>         0.5485
      6 O1         -1.6288   -2.4261   -1.5624 O.2       1 <0>        -0.4617
      7 N1         -0.5971   -3.3151    0.1977 N.2       1 <0>        -0.6913
      8 C6          0.4870   -3.5172    0.9236 C.2       1 <0>         0.4798
      9 S1          1.7266   -2.6943    0.1368 S.3       1 <0>        -0.1046
     10 N2          0.5826   -4.2431    2.0744 N.pl3     1 <0>        -0.6279
     11 C7         -0.6046   -4.9001    2.6267 C.3       1 <0>         0.1311
     12 C8         -1.2615   -4.0585    3.7772 C.3       1 <0>        -0.1083
     13 C9         -0.1114   -4.0628    4.8302 C.3       1 <0>        -0.1247
     14 C10         0.5705   -5.4394    4.6584 C.3       1 <0>        -0.1281
     15 C11        -0.2318   -6.1372    3.5178 C.3       1 <0>        -0.1082
     16 C12        -1.6171   -6.4604    4.1563 C.3       1 <0>        -0.1175
     17 C13        -2.2990   -5.0838    4.3281 C.3       1 <0>        -0.1207
     18 C14         1.2370   -2.5677   -2.6072 C.3       1 <0>        -0.1195
     19 H1          1.0039    1.9031    0.0027 H         1 <0>         0.0567
     20 H2         -0.5459    1.8868   -0.8726 H         1 <0>         0.0571
     21 H3         -0.5289    1.8773    0.9072 H         1 <0>         0.0568
     22 H4          0.5293   -0.3651    0.8851 H         1 <0>         0.0662
     23 H5         -1.0205   -0.3814    0.0098 H         1 <0>         0.0643
     24 H6          0.1910   -0.1364   -2.1398 H         1 <0>         0.0932
     25 H7          1.7408   -0.1202   -1.2645 H         1 <0>         0.0833
     26 H8          1.4366   -4.3242    2.5270 H         1 <0>         0.4239
     27 H9         -1.3215   -5.1588    1.8475 H         1 <0>         0.1159
     28 H10        -1.6589   -3.0837    3.4944 H         1 <0>         0.1035
     29 H11         0.5961   -3.2599    4.6234 H         1 <0>         0.0631
     30 H12        -0.5175   -3.9629    5.8368 H         1 <0>         0.0721
     31 H13         1.6133   -5.3132    4.3672 H         1 <0>         0.0626
     32 H14         0.4997   -6.0163    5.5805 H         1 <0>         0.0754
     33 H15         0.2753   -6.9593    3.0127 H         1 <0>         0.1075
     34 H16        -2.2033   -7.0945    3.4913 H         1 <0>         0.0702
     35 H17        -1.4858   -6.9429    5.1248 H         1 <0>         0.0739
     36 H18        -2.5029   -4.8896    5.3811 H         1 <0>         0.0722
     37 H19        -3.2205   -5.0412    3.7475 H         1 <0>         0.0702
     38 H20         2.2484   -2.2057   -2.7918 H         1 <0>         0.0773
     39 H21         1.2401   -3.6574   -2.5814 H         1 <0>         0.0681
     40 H22         0.5772   -2.2250   -3.4043 H         1 <0>         0.0871
@<TRIPOS>BOND
     1    1    2 1
     2    1   19 1
     3    1   20 1
     4    1   21 1
     5    2    3 1
     6    2   22 1
     7    2   23 1
     8    3    4 1
     9    3   24 1
    10    3   25 1
    11    4    9 1
    12    4    5 1
    13    4   18 1
    14    5    6 2
    15    5    7 1
    16    7    8 2
    17    8    9 1
    18    8   10 1
    19   10   11 1
    20   10   26 1
    21   11   15 1
    22   11   12 1
    23   11   27 1
    24   12   17 1
    25   12   13 1
    26   12   28 1
    27   13   14 1
    28   13   29 1
    29   13   30 1
    30   14   15 1
    31   14   31 1
    32   14   32 1
    33   15   16 1
    34   15   33 1
    35   16   17 1
    36   16   34 1
    37   16   35 1
    38   17   36 1
    39   17   37 1
    40   18   38 1
    41   18   39 1
    42   18   40 1
@<TRIPOS>MOLECULE
CHEMBL524854__1
   40    42     0     0     0
SMALL
USER_CHARGES

@<TRIPOS>ATOM
      1 C1         -0.0187    1.5258    0.0104 C.3       1 <0>        -0.1477
      2 C2          0.0021   -0.0041    0.0020 C.3       1 <0>        -0.1362
      3 C3          0.7182   -0.4975   -1.2568 C.3       1 <0>        -0.0852
      4 C4          0.7390   -2.0273   -1.2652 C.3       1 <0>        -0.0983
      5 C5          1.1405   -2.5867    0.0950 C.2       1 <0>         0.5485
      6 O1          2.2217   -2.3852    0.6129 O.2       1 <0>        -0.4618
      7 N1          0.1963   -3.3068    0.6458 N.2       1 <0>        -0.6913
      8 C6         -0.9817   -3.5326    0.0941 C.2       1 <0>         0.4799
      9 S1         -0.9609   -2.7224   -1.3811 S.3       1 <0>        -0.1048
     10 N2         -2.0047   -4.2708    0.6125 N.pl3     1 <0>        -0.6279
     11 C7         -1.8545   -4.9137    1.9203 C.3       1 <0>         0.1311
     12 C8         -1.4634   -6.4281    1.7903 C.3       1 <0>        -0.1086
     13 C9         -2.7226   -6.9895    1.0618 C.3       1 <0>        -0.1248
     14 C10        -3.8984   -6.1490    1.6100 C.3       1 <0>        -0.1282
     15 C11        -3.2389   -5.1589    2.6181 C.3       1 <0>        -0.1081
     16 C12        -2.8026   -6.0555    3.8169 C.3       1 <0>        -0.1175
     17 C13        -1.6268   -6.8960    3.2687 C.3       1 <0>        -0.1206
     18 C14         1.6397   -2.5635   -2.3797 C.3       1 <0>        -0.1195
     19 H1          1.0039    1.9031    0.0027 H         1 <0>         0.0571
     20 H2         -0.5459    1.8868   -0.8726 H         1 <0>         0.0568
     21 H3         -0.5289    1.8773    0.9072 H         1 <0>         0.0568
     22 H4          0.5293   -0.3651    0.8851 H         1 <0>         0.0643
     23 H5         -1.0205   -0.3814    0.0098 H         1 <0>         0.0663
     24 H6          0.1910   -0.1364   -2.1398 H         1 <0>         0.0834
     25 H7          1.7408   -0.1202   -1.2645 H         1 <0>         0.0933
     26 H8         -2.8317   -4.3700    0.1154 H         1 <0>         0.4239
     27 H9         -1.1646   -4.3658    2.5621 H         1 <0>         0.1159
     28 H10        -0.4991   -6.6385    1.3277 H         1 <0>         0.1035
     29 H11        -2.6295   -6.8552   -0.0159 H         1 <0>         0.0632
     30 H12        -2.8633   -8.0430    1.3035 H         1 <0>         0.0722
     31 H13        -4.3834   -5.6015    0.8018 H         1 <0>         0.0626
     32 H14        -4.6172   -6.7892    2.1213 H         1 <0>         0.0755
     33 H15        -3.8198   -4.2694    2.8615 H         1 <0>         0.1075
     34 H16        -2.4715   -5.4384    4.6522 H         1 <0>         0.0702
     35 H17        -3.6226   -6.7044    4.1243 H         1 <0>         0.0739
     36 H18        -1.8688   -7.9581    3.3066 H         1 <0>         0.0722
     37 H19        -0.7177   -6.6921    3.8344 H         1 <0>         0.0702
     38 H20         2.6574   -2.2033   -2.2294 H         1 <0>         0.0871
     39 H21         1.6333   -3.6533   -2.3594 H         1 <0>         0.0680
     40 H22         1.2700   -2.2159   -3.3444 H         1 <0>         0.0772
@<TRIPOS>BOND
     1    1    2 1
     2    1   19 1
     3    1   20 1
     4    1   21 1
     5    2    3 1
     6    2   22 1
     7    2   23 1
     8    3    4 1
     9    3   24 1
    10    3   25 1
    11    4    9 1
    12    4    5 1
    13    4   18 1
    14    5    6 2
    15    5    7 1
    16    7    8 2
    17    8    9 1
    18    8   10 1
    19   10   11 1
    20   10   26 1
    21   11   15 1
    22   11   12 1
    23   11   27 1
    24   12   17 1
    25   12   13 1
    26   12   28 1
    27   13   14 1
    28   13   29 1
    29   13   30 1
    30   14   15 1
    31   14   31 1
    32   14   32 1
    33   15   16 1
    34   15   33 1
    35   16   17 1
    36   16   34 1
    37   16   35 1
    38   17   36 1
    39   17   37 1
    40   18   38 1
    41   18   39 1
    42   18   40 1
@<TRIPOS>MOLECULE
CHEMBL219295
   53    55     0     0     0
SMALL
USER_CHARGES

@<TRIPOS>ATOM
      1 C1         -0.0187    1.5258    0.0104 C.3       1 <0>        -0.1814
      2 C2          0.0021   -0.0041    0.0020 C.3       1 <0>         0.1100
      3 C3          0.7421   -0.5109    1.2415 C.3       1 <0>        -0.1823
      4 C4         -1.4117   -0.5257    0.0127 C.2       1 <0>         0.5292
      5 O1         -1.8076   -1.2234   -0.8969 O.2       1 <0>        -0.5155
      6 N1         -2.2363   -0.2169    1.0331 N.am      1 <0>        -0.7141
      7 C5         -3.6082   -0.7230    1.0435 C.3       1 <0>         0.1572
      8 C6         -4.5228    0.2107    0.2489 C.3       1 <0>        -0.0944
      9 C7         -4.4727    1.6142    0.8614 C.3       1 <0>        -0.1126
     10 C8         -5.0297    1.5579    2.2839 C.3       1 <0>        -0.1230
     11 C9         -4.2257    0.5736    3.1274 C.3       1 <0>        -0.1114
     12 C10        -4.1306   -0.7951    2.4784 C.3       1 <0>        -0.0903
     13 C11        -5.4690   -1.5302    2.4858 C.3       1 <0>        -0.0932
     14 C12        -6.0618   -1.6078    1.0814 C.3       1 <0>        -0.1051
     15 C13        -5.9637   -0.2950    0.3206 C.3       1 <0>        -0.1049
     16 C14        -7.5150   -2.0151    1.1856 C.2       1 <0>         0.5187
     17 O2         -8.0113   -2.2185    2.2733 O.2       1 <0>        -0.5411
     18 N2         -8.2581   -2.1518    0.0695 N.am      1 <0>        -0.8561
     19 O3          0.6709   -0.4649   -1.1737 O.3       1 <0>        -0.2685
     20 C15         1.9609   -0.0823   -1.3378 C.ar      1 <0>         0.3553
     21 C16         2.6605   -0.4964   -2.4669 C.ar      1 <0>        -0.1860
     22 C17         3.9732   -0.1035   -2.6290 C.ar      1 <0>         0.0101
     23 C18         4.5538    0.7045   -1.6399 C.ar      1 <0>        -0.1200
     24 C19         3.7866    1.0785   -0.5357 C.ar      1 <0>         0.1931
     25 N3          2.5350    0.6845   -0.4241 N.ar      1 <0>        -0.5323
     26 C20         5.9130    1.1385   -1.7613 C.1       1 <0>         0.2568
     27 N4          6.9913    1.4829   -1.8575 N.1       1 <0>        -0.4076
     28 H1          1.0039    1.9031    0.0027 H         1 <0>         0.1048
     29 H2         -0.5459    1.8868   -0.8726 H         1 <0>         0.0651
     30 H3         -0.5289    1.8773    0.9072 H         1 <0>         0.0742
     31 H4          0.2319   -0.1594    2.1383 H         1 <0>         0.0745
     32 H5          0.7568   -1.6008    1.2356 H         1 <0>         0.0653
     33 H6          1.7647   -0.1336    1.2338 H         1 <0>         0.1049
     34 H7         -1.9197    0.3412    1.7606 H         1 <0>         0.4009
     35 H8         -3.6281   -1.7185    0.5975 H         1 <0>         0.0945
     36 H9         -4.1968    0.2519   -0.7880 H         1 <0>         0.0801
     37 H10        -3.4504    1.9814    0.8759 H         1 <0>         0.0643
     38 H11        -5.0884    2.2869    0.2597 H         1 <0>         0.0635
     39 H12        -4.9592    2.5549    2.7316 H         1 <0>         0.0621
     40 H13        -6.0767    1.2617    2.2672 H         1 <0>         0.0685
     41 H14        -3.2200    0.9774    3.2877 H         1 <0>         0.0590
     42 H15        -4.7035    0.4771    4.1105 H         1 <0>         0.0691
     43 H16        -3.4138   -1.4023    3.0612 H         1 <0>         0.0756
     44 H17        -5.3224   -2.5421    2.8725 H         1 <0>         0.0726
     45 H18        -6.1657   -1.0042    3.1436 H         1 <0>         0.0825
     46 H19        -5.5336   -2.3886    0.5193 H         1 <0>         0.0980
     47 H20        -6.5987    0.4578    0.7875 H         1 <0>         0.0780
     48 H21        -6.3293   -0.4482   -0.7038 H         1 <0>         0.0659
     49 H22        -7.8612   -1.9891   -0.8004 H         1 <0>         0.4019
     50 H23        -9.1899   -2.4129    0.1363 H         1 <0>         0.4018
     51 H24         2.1814   -1.1188   -3.2082 H         1 <0>         0.1558
     52 H25         4.5398   -0.4107   -3.4956 H         1 <0>         0.1538
     53 H26         4.2223    1.7001    0.2326 H         1 <0>         0.1728
@<TRIPOS>BOND
     1    1    2 1
     2    1   28 1
     3    1   29 1
     4    1   30 1
     5    2    3 1
     6    2    4 1
     7    2   19 1
     8    3   31 1
     9    3   32 1
    10    3   33 1
    11    4    5 2
    12    4    6 am
    13    6    7 1
    14    6   34 1
    15    7   12 1
    16    7    8 1
    17    7   35 1
    18    8   15 1
    19    8    9 1
    20    8   36 1
    21    9   10 1
    22    9   37 1
    23    9   38 1
    24   10   11 1
    25   10   39 1
    26   10   40 1
    27   11   12 1
    28   11   41 1
    29   11   42 1
    30   12   13 1
    31   12   43 1
    32   13   14 1
    33   13   44 1
    34   13   45 1
    35   14   15 1
    36   14   16 1
    37   14   46 1
    38   15   47 1
    39   15   48 1
    40   16   17 2
    41   16   18 am
    42   18   49 1
    43   18   50 1
    44   19   20 1
    45   20   25 ar
    46   20   21 ar
    47   21   22 ar
    48   21   51 1
    49   22   23 ar
    50   22   52 1
    51   23   24 ar
    52   23   26 1
    53   24   25 ar
    54   24   53 1
    55   26   27 3
@<TRIPOS>MOLECULE
CHEMBL497552
   42    46     0     0     0
SMALL
USER_CHARGES

@<TRIPOS>ATOM
      1 C1         -0.0189    1.5393    0.0105 C.3       1 <0>        -0.1183
      2 C2          1.4551    1.9998   -0.0011 C.3       1 <0>        -0.1200
      3 C3          2.2429    0.7938    0.5781 C.3       1 <0>        -0.0865
      4 C4          1.4715   -0.4039    0.0220 C.3       1 <0>        -0.1055
      5 C5          0.0021   -0.0041    0.0020 C.3       1 <0>        -0.0888
      6 C6          1.9861   -0.8706   -1.3129 C.2       1 <0>         0.5490
      7 O1          1.9963   -0.1810   -2.3138 O.2       1 <0>        -0.4562
      8 N1          2.4237   -2.1111   -1.2723 N.2       1 <0>        -0.6841
      9 C7          2.4131   -2.8635   -0.1838 C.2       1 <0>         0.4802
     10 S1          1.7499   -1.9010    1.0320 S.3       1 <0>        -0.1052
     11 N2          2.8481   -4.1510   -0.0689 N.pl3     1 <0>        -0.6257
     12 C8          3.4012   -4.8441   -1.2351 C.3       1 <0>         0.1581
     13 C9          4.6071   -4.1077   -1.8892 C.3       1 <0>        -0.1154
     14 C10         5.3169   -5.2862   -2.6137 C.3       1 <0>        -0.0932
     15 C11         4.3750   -5.8213   -3.6959 C.3       1 <0>        -0.1081
     16 C12         2.9924   -6.2114   -3.1663 C.3       1 <0>        -0.0921
     17 C13         2.3953   -4.9881   -2.4149 C.3       1 <0>        -0.1191
     18 C14         3.1739   -7.1950   -1.9782 C.3       1 <0>        -0.1162
     19 C15         3.8885   -6.2906   -0.9297 C.3       1 <0>        -0.0976
     20 C16         5.3791   -6.3173   -1.4540 C.3       1 <0>        -0.1169
     21 H1         -0.5161    1.9011    0.9105 H         1 <0>         0.0722
     22 H2         -0.5332    1.9107   -0.8759 H         1 <0>         0.0741
     23 H3          1.7794    2.2124   -1.0198 H         1 <0>         0.0786
     24 H4          1.5844    2.8780    0.6315 H         1 <0>         0.0766
     25 H5          3.2711    0.7936    0.2165 H         1 <0>         0.0791
     26 H6          2.2146    0.8004    1.6677 H         1 <0>         0.0882
     27 H7         -0.5045   -0.3913    0.8861 H         1 <0>         0.0858
     28 H8         -0.4773   -0.3811   -0.9014 H         1 <0>         0.0788
     29 H9          2.7912   -4.6079    0.7849 H         1 <0>         0.4244
     30 H10         4.2684   -3.3556   -2.6017 H         1 <0>         0.0898
     31 H11         5.2545   -3.6653   -1.1321 H         1 <0>         0.0643
     32 H12         6.3018   -5.0180   -2.9959 H         1 <0>         0.0932
     33 H13         4.2519   -5.0549   -4.4612 H         1 <0>         0.0654
     34 H14         4.8329   -6.6977   -4.1546 H         1 <0>         0.0641
     35 H15         2.3354   -6.5906   -3.9491 H         1 <0>         0.0931
     36 H16         1.3908   -5.2031   -2.0505 H         1 <0>         0.0647
     37 H17         2.4003   -4.0992   -3.0458 H         1 <0>         0.0877
     38 H18         2.2098   -7.5273   -1.5934 H         1 <0>         0.0661
     39 H19         3.7942   -8.0446   -2.2637 H         1 <0>         0.0770
     40 H20         3.7518   -6.5912    0.1091 H         1 <0>         0.0960
     41 H21         5.6466   -7.3073   -1.8234 H         1 <0>         0.0753
     42 H22         6.0693   -5.9912   -0.6759 H         1 <0>         0.0669
@<TRIPOS>BOND
     1    1    5 1
     2    1    2 1
     3    1   21 1
     4    1   22 1
     5    2    3 1
     6    2   23 1
     7    2   24 1
     8    3    4 1
     9    3   25 1
    10    3   26 1
    11    4   10 1
    12    4    5 1
    13    4    6 1
    14    5   27 1
    15    5   28 1
    16    6    7 2
    17    6    8 1
    18    8    9 2
    19    9   10 1
    20    9   11 1
    21   11   12 1
    22   11   29 1
    23   12   17 1
    24   12   19 1
    25   12   13 1
    26   13   14 1
    27   13   30 1
    28   13   31 1
    29   14   20 1
    30   14   15 1
    31   14   32 1
    32   15   16 1
    33   15   33 1
    34   15   34 1
    35   16   17 1
    36   16   18 1
    37   16   35 1
    38   17   36 1
    39   17   37 1
    40   18   19 1
    41   18   38 1
    42   18   39 1
    43   19   20 1
    44   19   40 1
    45   20   41 1
    46   20   42 1
@<TRIPOS>MOLECULE
CHEMBL526276
   47    50     0     0     0
SMALL
USER_CHARGES

@<TRIPOS>ATOM
      1 C1         -0.0187    1.5258    0.0104 C.3       1 <0>        -0.1643
      2 C2          0.0021   -0.0041    0.0020 C.3       1 <0>        -0.0893
      3 C3          0.7182   -0.4975   -1.2568 C.3       1 <0>        -0.0975
      4 C4          2.0116    0.2723   -1.5001 C.2       1 <0>         0.5514
      5 O1          2.9535    0.2652   -0.7317 O.2       1 <0>        -0.4643
      6 N1          1.9993    0.9412   -2.6251 N.2       1 <0>        -0.6846
      7 C5          0.9832    0.9567   -3.4680 C.2       1 <0>         0.4825
      8 S1         -0.1985   -0.0254   -2.7809 S.3       1 <0>        -0.1052
      9 N2          0.9067    1.6302   -4.6515 N.pl3     1 <0>        -0.6381
     10 C6          2.0359    2.4464   -5.1042 C.3       1 <0>         0.1833
     11 C7          2.3195    3.5411   -4.0736 C.3       1 <0>        -0.1233
     12 C8          3.4989    4.3934   -4.5464 C.3       1 <0>        -0.0801
     13 C9          3.1566    5.0361   -5.8920 C.3       1 <0>        -0.1128
     14 C10         2.8730    3.9414   -6.9226 C.3       1 <0>        -0.0782
     15 C11         1.6936    3.0890   -6.4498 C.3       1 <0>        -0.1163
     16 C12         4.1110    3.0564   -7.0804 C.3       1 <0>        -0.1128
     17 C13         4.4533    2.4137   -5.7348 C.3       1 <0>        -0.0801
     18 C14         4.7369    3.5084   -4.7042 C.3       1 <0>        -0.1103
     19 C15         3.2740    1.5613   -5.2620 C.3       1 <0>        -0.1233
     20 C16         0.9665   -2.0061   -1.1981 C.3       1 <0>        -0.0896
     21 C17         1.7913   -2.4348   -2.4133 C.3       1 <0>        -0.1646
     22 H1          1.0039    1.9031    0.0027 H         1 <0>         0.0579
     23 H2         -0.5459    1.8868   -0.8726 H         1 <0>         0.0598
     24 H3         -0.5289    1.8773    0.9072 H         1 <0>         0.0687
     25 H4          0.5293   -0.3651    0.8851 H         1 <0>         0.0922
     26 H5         -1.0205   -0.3814    0.0098 H         1 <0>         0.0822
     27 H6          0.1046    1.5688   -5.1935 H         1 <0>         0.4226
     28 H7          1.4375    4.1716   -3.9612 H         1 <0>         0.0604
     29 H8          2.5634    3.0832   -3.1150 H         1 <0>         0.0942
     30 H9          3.7009    5.1733   -3.8122 H         1 <0>         0.0747
     31 H10         2.2746    5.6666   -5.7796 H         1 <0>         0.0631
     32 H11         3.9968    5.6433   -6.2289 H         1 <0>         0.0672
     33 H12         2.6291    4.3993   -7.8813 H         1 <0>         0.0781
     34 H13         1.4916    2.3092   -7.1840 H         1 <0>         0.0717
     35 H14         0.8116    3.7196   -6.3374 H         1 <0>         0.0717
     36 H15         3.9089    2.2765   -7.8146 H         1 <0>         0.0631
     37 H16         4.9512    3.6636   -7.4172 H         1 <0>         0.0672
     38 H17         5.3353    1.7832   -5.8472 H         1 <0>         0.0747
     39 H18         5.5771    4.1156   -5.0410 H         1 <0>         0.0640
     40 H19         4.9808    3.0505   -3.7455 H         1 <0>         0.0680
     41 H20         3.5178    1.1035   -4.3033 H         1 <0>         0.0942
     42 H21         3.0719    0.7814   -5.9962 H         1 <0>         0.0604
     43 H22         1.5105   -2.2496   -0.2855 H         1 <0>         0.0921
     44 H23         0.0117   -2.5319   -1.2033 H         1 <0>         0.0822
     45 H24         2.7461   -1.9090   -2.4082 H         1 <0>         0.0562
     46 H25         1.9682   -3.5096   -2.3716 H         1 <0>         0.0686
     47 H26         1.2473   -2.1913   -3.3260 H         1 <0>         0.0621
@<TRIPOS>BOND
     1    1    2 1
     2    1   22 1
     3    1   23 1
     4    1   24 1
     5    2    3 1
     6    2   25 1
     7    2   26 1
     8    3    8 1
     9    3    4 1
    10    3   20 1
    11    4    5 2
    12    4    6 1
    13    6    7 2
    14    7    8 1
    15    7    9 1
    16    9   10 1
    17    9   27 1
    18   10   15 1
    19   10   19 1
    20   10   11 1
    21   11   12 1
    22   11   28 1
    23   11   29 1
    24   12   18 1
    25   12   13 1
    26   12   30 1
    27   13   14 1
    28   13   31 1
    29   13   32 1
    30   14   15 1
    31   14   16 1
    32   14   33 1
    33   15   34 1
    34   15   35 1
    35   16   17 1
    36   16   36 1
    37   16   37 1
    38   17   18 1
    39   17   19 1
    40   17   38 1
    41   18   39 1
    42   18   40 1
    43   19   41 1
    44   19   42 1
    45   20   21 1
    46   20   43 1
    47   20   44 1
    48   21   45 1
    49   21   46 1
    50   21   47 1
@<TRIPOS>MOLECULE
CHEMBL450684
   45    49     0     0     0
SMALL
USER_CHARGES

@<TRIPOS>ATOM
      1 C1         -0.0189    1.5430    0.0105 C.3       1 <0>        -0.1208
      2 C2          1.4783    1.9452   -0.0016 C.3       1 <0>        -0.1205
      3 C3          2.1198    0.8746   -0.9254 C.3       1 <0>        -0.0889
      4 C4          1.3461   -0.3994   -0.5947 C.3       1 <0>        -0.1015
      5 C5          0.0021   -0.0041    0.0020 C.3       1 <0>        -0.0937
      6 C6          2.1267   -1.3404    0.2882 C.2       1 <0>         0.5465
      7 O1          2.5008   -1.0614    1.4107 O.2       1 <0>        -0.4584
      8 N1          2.3562   -2.4970   -0.2934 N.2       1 <0>        -0.6859
      9 C7          1.9500   -2.8045   -1.5142 C.2       1 <0>         0.4812
     10 S1          1.1318   -1.4438   -2.0811 S.3       1 <0>        -0.1078
     11 N2          2.1515   -3.9793   -2.1771 N.pl3     1 <0>        -0.6370
     12 C8          2.8896   -5.0675   -1.5313 C.3       1 <0>         0.1824
     13 C9          4.3019   -4.5912   -1.1858 C.3       1 <0>        -0.1235
     14 C10         5.0727   -5.7278   -0.5114 C.3       1 <0>        -0.0801
     15 C11         5.1561   -6.9227   -1.4633 C.3       1 <0>        -0.1128
     16 C12         3.7438   -7.3990   -1.8088 C.3       1 <0>        -0.0782
     17 C13         2.9729   -6.2624   -2.4833 C.3       1 <0>        -0.1163
     18 C14         3.0189   -7.8170   -0.5279 C.3       1 <0>        -0.1128
     19 C15         2.9355   -6.6221    0.4241 C.3       1 <0>        -0.0802
     20 C16         4.3479   -6.1458    0.7696 C.3       1 <0>        -0.1105
     21 C17         2.1647   -5.4856   -0.2504 C.3       1 <0>        -0.1235
     22 H1         -0.5057    1.9127    0.9130 H         1 <0>         0.0769
     23 H2         -0.5228    1.9223   -0.8784 H         1 <0>         0.0725
     24 H3          1.6060    2.9430   -0.4213 H         1 <0>         0.0780
     25 H4          1.9001    1.8911    1.0020 H         1 <0>         0.0784
     26 H5          1.9858    1.1430   -1.9734 H         1 <0>         0.0879
     27 H6          3.1775    0.7518   -0.6926 H         1 <0>         0.0801
     28 H7         -0.0847   -0.3867    1.0190 H         1 <0>         0.0850
     29 H8         -0.8105   -0.3875   -0.6151 H         1 <0>         0.0860
     30 H9          1.8060   -4.0942   -3.0762 H         1 <0>         0.4230
     31 H10         4.8183   -4.2934   -2.0984 H         1 <0>         0.0607
     32 H11         4.2425   -3.7399   -0.5077 H         1 <0>         0.0939
     33 H12         6.0789   -5.3884   -0.2652 H         1 <0>         0.0750
     34 H13         5.6725   -6.6249   -2.3758 H         1 <0>         0.0633
     35 H14         5.7053   -7.7324   -0.9828 H         1 <0>         0.0674
     36 H15         3.8032   -8.2503   -2.4870 H         1 <0>         0.0783
     37 H16         1.9668   -6.6018   -2.7294 H         1 <0>         0.0719
     38 H17         3.4893   -5.9646   -3.3958 H         1 <0>         0.0719
     39 H18         2.0128   -8.1564   -0.7740 H         1 <0>         0.0633
     40 H19         3.5681   -8.6267   -0.0474 H         1 <0>         0.0674
     41 H20         2.4191   -6.9199    1.3366 H         1 <0>         0.0750
     42 H21         4.8970   -6.9555    1.2501 H         1 <0>         0.0644
     43 H22         4.2885   -5.2945    1.4477 H         1 <0>         0.0681
     44 H23         2.1053   -4.6343    0.4278 H         1 <0>         0.0939
     45 H24         1.1585   -5.8249   -0.4965 H         1 <0>         0.0607
@<TRIPOS>BOND
     1    1    5 1
     2    1    2 1
     3    1   22 1
     4    1   23 1
     5    2    3 1
     6    2   24 1
     7    2   25 1
     8    3    4 1
     9    3   26 1
    10    3   27 1
    11    4   10 1
    12    4    5 1
    13    4    6 1
    14    5   28 1
    15    5   29 1
    16    6    7 2
    17    6    8 1
    18    8    9 2
    19    9   10 1
    20    9   11 1
    21   11   12 1
    22   11   30 1
    23   12   17 1
    24   12   21 1
    25   12   13 1
    26   13   14 1
    27   13   31 1
    28   13   32 1
    29   14   20 1
    30   14   15 1
    31   14   33 1
    32   15   16 1
    33   15   34 1
    34   15   35 1
    35   16   17 1
    36   16   18 1
    37   16   36 1
    38   17   37 1
    39   17   38 1
    40   18   19 1
    41   18   39 1
    42   18   40 1
    43   19   20 1
    44   19   21 1
    45   19   41 1
    46   20   42 1
    47   20   43 1
    48   21   44 1
    49   21   45 1
@<TRIPOS>MOLECULE
CHEMBL260271
   43    45     0     0     0
SMALL
USER_CHARGES

@<TRIPOS>ATOM
      1 C1          0.7243   -3.5801   -3.0439 C.3       1 <0>        -0.1475
      2 C2          0.3853   -2.9067   -1.7126 C.3       1 <0>        -0.0945
      3 C3          1.1786   -3.5743   -0.5869 C.3       1 <0>        -0.1313
      4 C4          0.8630   -2.8751    0.7391 C.3       1 <0>         0.0756
      5 N1         -0.5923   -2.8799    0.9415 N.am      1 <0>        -0.5897
      6 C5         -1.4549   -2.3435   -0.1201 C.3       1 <0>         0.1077
      7 C6         -1.1133   -3.0487   -1.4364 C.3       1 <0>        -0.1287
      8 C7         -1.1257   -3.3674    2.0791 C.2       1 <0>         0.5725
      9 O1         -2.3310   -3.3668    2.2340 O.2       1 <0>        -0.5322
     10 C8         -0.2427   -3.9041    3.1408 C.ar      1 <0>         0.1258
     11 C9         -0.7503   -4.8112    4.0658 C.ar      1 <0>        -0.1590
     12 C10         0.0853   -5.3080    5.0565 C.ar      1 <0>        -0.0380
     13 C11         1.4002   -4.8808    5.0886 C.ar      1 <0>        -0.1958
     14 C12         1.8452   -3.9696    4.1313 C.ar      1 <0>         0.4005
     15 N2          1.0272   -3.5187    3.1971 N.ar      1 <0>        -0.5051
     16 N3          3.1659   -3.5352    4.1569 N.pl3     1 <0>        -0.6746
     17 C13         4.0729   -4.1076    5.0541 C.ar      1 <0>         0.1527
     18 C14         4.5393   -3.3726    6.1363 C.ar      1 <0>        -0.1081
     19 C15         5.4348   -3.9409    7.0210 C.ar      1 <0>        -0.1029
     20 C16         5.8678   -5.2405    6.8304 C.ar      1 <0>        -0.1043
     21 C17         5.4059   -5.9758    5.7544 C.ar      1 <0>        -0.1016
     22 C18         4.5054   -5.4154    4.8683 C.ar      1 <0>        -0.0437
     23 Cl1         3.9207   -6.3411    3.5211 Cl        1 <0>        -0.0535
     24 H1          0.1602   -3.1040   -3.8459 H         1 <0>         0.0554
     25 H2          1.7916   -3.4791   -3.2408 H         1 <0>         0.0551
     26 H3          0.4625   -4.6370   -2.9935 H         1 <0>         0.0536
     27 H4          0.6466   -1.8497   -1.7633 H         1 <0>         0.0715
     28 H5          0.8995   -4.6258   -0.5192 H         1 <0>         0.0623
     29 H6          2.2453   -3.4933   -0.7961 H         1 <0>         0.0732
     30 H7          1.3475   -3.4078    1.5574 H         1 <0>         0.1427
     31 H8          1.2238   -1.8471    0.7050 H         1 <0>         0.0647
     32 H9         -2.4998   -2.5254    0.1314 H         1 <0>         0.0935
     33 H10        -1.2831   -1.2722   -0.2241 H         1 <0>         0.0697
     34 H11        -1.6779   -2.5935   -2.2502 H         1 <0>         0.0763
     35 H12        -1.3708   -4.1051   -1.3607 H         1 <0>         0.0665
     36 H13        -1.7824   -5.1248    4.0138 H         1 <0>         0.1461
     37 H14        -0.2836   -6.0128    5.7869 H         1 <0>         0.1442
     38 H15         2.0752   -5.2486    5.8473 H         1 <0>         0.1341
     39 H16         3.4580   -2.8351    3.5523 H         1 <0>         0.4174
     40 H17         4.2024   -2.3574    6.2857 H         1 <0>         0.1376
     41 H18         5.7976   -3.3696    7.8626 H         1 <0>         0.1359
     42 H19         6.5686   -5.6819    7.5236 H         1 <0>         0.1370
     43 H20         5.7464   -6.9903    5.6083 H         1 <0>         0.1389
@<TRIPOS>BOND
     1    1    2 1
     2    1   24 1
     3    1   25 1
     4    1   26 1
     5    2    7 1
     6    2    3 1
     7    2   27 1
     8    3    4 1
     9    3   28 1
    10    3   29 1
    11    4    5 1
    12    4   30 1
    13    4   31 1
    14    5    6 1
    15    5    8 am
    16    6    7 1
    17    6   32 1
    18    6   33 1
    19    7   34 1
    20    7   35 1
    21    8    9 2
    22    8   10 1
    23   10   15 ar
    24   10   11 ar
    25   11   12 ar
    26   11   36 1
    27   12   13 ar
    28   12   37 1
    29   13   14 ar
    30   13   38 1
    31   14   15 ar
    32   14   16 1
    33   16   17 1
    34   16   39 1
    35   17   22 ar
    36   17   18 ar
    37   18   19 ar
    38   18   40 1
    39   19   20 ar
    40   19   41 1
    41   20   21 ar
    42   20   42 1
    43   21   22 ar
    44   21   43 1
    45   22   23 1
@<TRIPOS>MOLECULE
CHEMBL260270
   42    44     0     0     0
SMALL
USER_CHARGES

@<TRIPOS>ATOM
      1 C1         -1.4600    2.0892    2.2153 C.3       1 <0>        -0.1477
      2 C2         -1.0405    0.7077    1.7090 C.3       1 <0>        -0.0940
      3 C3         -2.2881   -0.1152    1.3799 C.3       1 <0>        -0.1288
      4 C4         -1.8640   -1.4849    0.8407 C.3       1 <0>         0.1078
      5 N1         -0.9631   -2.1178    1.8136 N.am      1 <0>        -0.5880
      6 C5          0.2205   -1.3750    2.2677 C.3       1 <0>         0.0721
      7 C6         -0.2271   -0.0064    2.7909 C.3       1 <0>        -0.1313
      8 C7         -1.2177   -3.3560    2.2810 C.2       1 <0>         0.5706
      9 O1         -2.2624   -3.9089    1.9990 O.2       1 <0>        -0.5284
     10 C8         -0.2240   -4.0429    3.1387 C.ar      1 <0>         0.1058
     11 C9         -0.5730   -5.2232    3.7884 C.ar      1 <0>        -0.1197
     12 C10         0.3659   -5.8581    4.5887 C.ar      1 <0>        -0.0506
     13 C11         1.6219   -5.2909    4.7121 C.ar      1 <0>        -0.1385
     14 C12         1.9051   -4.1078    4.0342 C.ar      1 <0>         0.2921
     15 N2          0.9932   -3.5295    3.2760 N.ar      1 <0>        -0.4793
     16 O2          3.1344   -3.5460    4.1510 O.3       1 <0>        -0.2258
     17 C13         3.7273   -3.0684    3.0251 C.ar      1 <0>         0.1200
     18 C14         3.0905   -3.1913    1.7987 C.ar      1 <0>        -0.1644
     19 C15         3.6951   -2.7052    0.6557 C.ar      1 <0>        -0.0831
     20 C16         4.9345   -2.0967    0.7325 C.ar      1 <0>        -0.1294
     21 C17         5.5723   -1.9730    1.9528 C.ar      1 <0>        -0.0808
     22 C18         4.9688   -2.4517    3.1009 C.ar      1 <0>        -0.0543
     23 Cl1         5.7663   -2.2894    4.6343 Cl        1 <0>        -0.0522
     24 H1         -0.5714    2.6759    2.4486 H         1 <0>         0.0557
     25 H2         -2.0393    2.5980    1.4448 H         1 <0>         0.0557
     26 H3         -2.0680    1.9780    3.1131 H         1 <0>         0.0539
     27 H4         -0.4321    0.8192    0.8115 H         1 <0>         0.0716
     28 H5         -2.8847   -0.2482    2.2824 H         1 <0>         0.0672
     29 H6         -2.8789    0.4054    0.6262 H         1 <0>         0.0769
     30 H7         -2.7452   -2.1103    0.6981 H         1 <0>         0.0942
     31 H8         -1.3451   -1.3589   -0.1096 H         1 <0>         0.0708
     32 H9          0.7146   -1.9278    3.0667 H         1 <0>         0.1446
     33 H10         0.9093   -1.2400    1.4338 H         1 <0>         0.0661
     34 H11         0.6491    0.5915    3.0414 H         1 <0>         0.0743
     35 H12        -0.8430   -0.1405    3.6801 H         1 <0>         0.0631
     36 H13        -1.5625   -5.6396    3.6713 H         1 <0>         0.1575
     37 H14         0.1215   -6.7750    5.1045 H         1 <0>         0.1578
     38 H15         2.3747   -5.7606    5.3278 H         1 <0>         0.1547
     39 H16         2.1228   -3.6669    1.7377 H         1 <0>         0.1513
     40 H17         3.1994   -2.8008   -0.2990 H         1 <0>         0.1327
     41 H18         5.4053   -1.7178   -0.1626 H         1 <0>         0.1364
     42 H19         6.5405   -1.4980    2.0099 H         1 <0>         0.1432
@<TRIPOS>BOND
     1    1    2 1
     2    1   24 1
     3    1   25 1
     4    1   26 1
     5    2    7 1
     6    2    3 1
     7    2   27 1
     8    3    4 1
     9    3   28 1
    10    3   29 1
    11    4    5 1
    12    4   30 1
    13    4   31 1
    14    5    6 1
    15    5    8 am
    16    6    7 1
    17    6   32 1
    18    6   33 1
    19    7   34 1
    20    7   35 1
    21    8    9 2
    22    8   10 1
    23   10   15 ar
    24   10   11 ar
    25   11   12 ar
    26   11   36 1
    27   12   13 ar
    28   12   37 1
    29   13   14 ar
    30   13   38 1
    31   14   15 ar
    32   14   16 1
    33   16   17 1
    34   17   22 ar
    35   17   18 ar
    36   18   19 ar
    37   18   39 1
    38   19   20 ar
    39   19   40 1
    40   20   21 ar
    41   20   41 1
    42   21   22 ar
    43   21   42 1
    44   22   23 1
@<TRIPOS>MOLECULE
CHEMBL256760
   53    55     0     0     0
SMALL
USER_CHARGES

@<TRIPOS>ATOM
      1 C1         -0.2078    1.5575   -0.0095 C.3       1 <0>        -0.1397
      2 C2          0.0271    0.0461    0.0239 C.3       1 <0>        -0.0386
      3 C3          0.7661   -0.3269    1.3107 C.3       1 <0>        -0.1408
      4 C4         -1.3187   -0.6804   -0.0201 C.3       1 <0>        -0.1475
      5 C5          0.8562   -0.3599   -1.1672 C.ar      1 <0>        -0.0115
      6 C6          0.3502   -1.2586   -2.0876 C.ar      1 <0>        -0.1414
      7 C7          1.1108   -1.6310   -3.1802 C.ar      1 <0>        -0.0163
      8 C8          2.3772   -1.1043   -3.3527 C.ar      1 <0>        -0.6820
      9 C9          2.8828   -0.2048   -2.4328 C.ar      1 <0>        -0.0167
     10 C10         2.1206    0.1708   -1.3424 C.ar      1 <0>        -0.1358
     11 S1          3.3471   -1.5798   -4.7447 S.o2      1 <0>         2.6890
     12 O1          4.7051   -1.3641   -4.3863 O.2       1 <0>        -0.9536
     13 O2          2.8619   -2.8481   -5.1636 O.2       1 <0>        -0.9536
     14 N1          3.0052   -0.5153   -5.9663 N.pl3     1 <0>        -0.9923
     15 C11         1.9106   -0.7852   -6.9092 C.3       1 <0>         0.1049
     16 C12         0.9517    0.4117   -6.9025 C.3       1 <0>         0.1334
     17 N2          1.7371    1.6435   -7.0629 N.pl3     1 <0>        -0.6655
     18 C13         2.8316    1.9135   -6.1200 C.3       1 <0>         0.1333
     19 C14         3.7869    0.7192   -6.1233 C.3       1 <0>         0.1048
     20 C15         1.4501    2.5371   -8.0882 C.ar      1 <0>         0.4319
     21 C16         0.5389    3.5660   -7.8713 C.ar      1 <0>        -0.2406
     22 C17         0.2627    4.4478   -8.9002 C.ar      1 <0>        -0.0223
     23 C18         0.9094    4.2707  -10.1165 C.ar      1 <0>        -0.1785
     24 C19         1.8019    3.2280  -10.2621 C.ar      1 <0>         0.1438
     25 N3          2.0502    2.4047   -9.2610 N.ar      1 <0>        -0.4890
     26 C20        -0.1382    3.7171   -6.5335 C.3       1 <0>         0.5224
     27 F1         -1.0017    4.8172   -6.5695 F         1 <0>        -0.1792
     28 F2         -0.8696    2.5593   -6.2475 F         1 <0>        -0.1721
     29 F3          0.8282    3.9151   -5.5414 F         1 <0>        -0.1720
     30 H1          0.7510    2.0751    0.0218 H         1 <0>         0.0591
     31 H2         -0.7343    1.8232   -0.9262 H         1 <0>         0.0579
     32 H3         -0.8075    1.8512    0.8520 H         1 <0>         0.0633
     33 H4          0.1664   -0.0332    2.1722 H         1 <0>         0.0636
     34 H5          0.9335   -1.4037    1.3345 H         1 <0>         0.0585
     35 H6          1.7249    0.1906    1.3420 H         1 <0>         0.0593
     36 H7         -1.8452   -0.4147   -0.9368 H         1 <0>         0.0607
     37 H8         -1.1514   -1.7572    0.0037 H         1 <0>         0.0609
     38 H9         -1.9184   -0.3867    0.8414 H         1 <0>         0.0627
     39 H10        -0.6391   -1.6702   -1.9529 H         1 <0>         0.1368
     40 H11         0.7157   -2.3337   -3.8989 H         1 <0>         0.1380
     41 H12         3.8723    0.2064   -2.5673 H         1 <0>         0.1380
     42 H13         2.5142    0.8764   -0.6257 H         1 <0>         0.1313
     43 H14         2.3167   -0.9231   -7.9113 H         1 <0>         0.0835
     44 H15         1.3760   -1.6839   -6.6015 H         1 <0>         0.0986
     45 H16         0.2447    0.3187   -7.7269 H         1 <0>         0.0829
     46 H17         0.4118    0.4427   -5.9561 H         1 <0>         0.0687
     47 H18         3.3662    2.8122   -6.4277 H         1 <0>         0.0832
     48 H19         2.4256    2.0513   -5.1179 H         1 <0>         0.0682
     49 H20         4.4912    0.8138   -5.2967 H         1 <0>         0.0987
     50 H21         4.3296    0.6909   -7.0682 H         1 <0>         0.0832
     51 H22        -0.4403    5.2558   -8.7612 H         1 <0>         0.1509
     52 H23         0.7156    4.9418  -10.9401 H         1 <0>         0.1499
     53 H24         2.3067    3.0864  -11.2063 H         1 <0>         0.1677
@<TRIPOS>BOND
     1    1    2 1
     2    1   30 1
     3    1   31 1
     4    1   32 1
     5    2    3 1
     6    2    4 1
     7    2    5 1
     8    3   33 1
     9    3   34 1
    10    3   35 1
    11    4   36 1
    12    4   37 1
    13    4   38 1
    14    5   10 ar
    15    5    6 ar
    16    6    7 ar
    17    6   39 1
    18    7    8 ar
    19    7   40 1
    20    8    9 ar
    21    8   11 1
    22    9   10 ar
    23    9   41 1
    24   10   42 1
    25   11   12 2
    26   11   13 2
    27   11   14 1
    28   14   19 1
    29   14   15 1
    30   15   16 1
    31   15   43 1
    32   15   44 1
    33   16   17 1
    34   16   45 1
    35   16   46 1
    36   17   18 1
    37   17   20 1
    38   18   19 1
    39   18   47 1
    40   18   48 1
    41   19   49 1
    42   19   50 1
    43   20   25 ar
    44   20   21 ar
    45   21   22 ar
    46   21   26 1
    47   22   23 ar
    48   22   51 1
    49   23   24 ar
    50   23   52 1
    51   24   25 ar
    52   24   53 1
    53   26   27 1
    54   26   28 1
    55   26   29 1
@<TRIPOS>MOLECULE
CHEMBL1082497
   34    36     0     0     0
SMALL
USER_CHARGES

@<TRIPOS>ATOM
      1 C1          8.7126    2.6084   -1.5869 C.ar      1 <0>        -0.0818
      2 C2          7.3685    2.9373   -1.6175 C.ar      1 <0>        -0.1292
      3 C3          6.4124    1.9654   -1.4114 C.ar      1 <0>        -0.0554
      4 C4          6.8038    0.6444   -1.1713 C.ar      1 <0>        -0.1678
      5 C5          8.1639    0.3201   -1.1424 C.ar      1 <0>        -0.0760
      6 C6          9.1080    1.3034   -1.3499 C.ar      1 <0>        -0.1291
      7 C7          5.7897   -0.3988   -0.9498 C.2       1 <0>         0.4003
      8 O1          4.6169   -0.0991   -0.8792 O.2       1 <0>        -0.4212
      9 C8          6.2089   -1.8397   -0.8107 C.3       1 <0>         0.0206
     10 O2          5.0473   -2.6673   -0.7224 O.3       1 <0>        -0.2780
     11 C9          5.2489   -3.9898   -0.4900 C.2       1 <0>         0.2611
     12 C10         6.4439   -4.6287   -0.4297 C.2       1 <0>        -0.1407
     13 N1          6.2304   -5.9216   -0.1830 N.2       1 <0>        -0.2033
     14 N2          4.9671   -6.1478   -0.0817 N.2       1 <0>        -0.0519
     15 N3          4.2893   -4.9332   -0.2657 N.pl3     1 <0>        -0.3176
     16 C11         2.9021   -4.7300   -0.2296 C.ar      1 <0>         0.1260
     17 C12         2.3804   -3.6007    0.3865 C.ar      1 <0>        -0.1018
     18 C13         1.0138   -3.4030    0.4201 C.ar      1 <0>        -0.1009
     19 C14         0.1655   -4.3290   -0.1587 C.ar      1 <0>        -0.1069
     20 C15         0.6822   -5.4549   -0.7731 C.ar      1 <0>        -0.1047
     21 C16         2.0483   -5.6550   -0.8148 C.ar      1 <0>        -0.0975
     22 H1          9.4567    3.3733   -1.7532 H         1 <0>         0.1312
     23 H2          7.0679    3.9579   -1.8030 H         1 <0>         0.1333
     24 H3          5.3640    2.2237   -1.4348 H         1 <0>         0.1364
     25 H4          8.4739   -0.6978   -0.9573 H         1 <0>         0.1327
     26 H5         10.1587    1.0545   -1.3278 H         1 <0>         0.1336
     27 H6          6.7982   -2.1321   -1.6798 H         1 <0>         0.1103
     28 H7          6.8088   -1.9580    0.0916 H         1 <0>         0.1104
     29 H8          7.4108   -4.1658   -0.5607 H         1 <0>         0.1927
     30 H9          3.0425   -2.8775    0.8394 H         1 <0>         0.1323
     31 H10         0.6074   -2.5246    0.8993 H         1 <0>         0.1362
     32 H11        -0.9028   -4.1727   -0.1305 H         1 <0>         0.1334
     33 H12         0.0172   -6.1766   -1.2240 H         1 <0>         0.1370
     34 H13         2.4515   -6.5323   -1.2987 H         1 <0>         0.1362
@<TRIPOS>BOND
     1    1    6 ar
     2    1    2 ar
     3    1   22 1
     4    2    3 ar
     5    2   23 1
     6    3    4 ar
     7    3   24 1
     8    4    5 ar
     9    4    7 1
    10    5    6 ar
    11    5   25 1
    12    6   26 1
    13    7    8 2
    14    7    9 1
    15    9   10 1
    16    9   27 1
    17    9   28 1
    18   10   11 1
    19   11   15 1
    20   11   12 2
    21   12   13 1
    22   12   29 1
    23   13   14 2
    24   14   15 1
    25   15   16 1
    26   16   21 ar
    27   16   17 ar
    28   17   18 ar
    29   17   30 1
    30   18   19 ar
    31   18   31 1
    32   19   20 ar
    33   19   32 1
    34   20   21 ar
    35   20   33 1
    36   21   34 1
@<TRIPOS>MOLECULE
CHEMBL552394
   58    61     0     0     0
SMALL
USER_CHARGES

@<TRIPOS>ATOM
      1 C1         -0.7203    1.2217    0.5785 C.3       1 <0>        -0.2018
      2 C2         -0.2948   -0.2305    0.3523 C.3       1 <0>         0.1418
      3 H1         -1.1121   -0.8979    0.6257 H         1 <0>         0.0875
      4 C3          0.0665   -0.4371   -1.1239 C.3       1 <0>         0.1350
      5 N1          0.7143   -1.7482   -1.2697 N.pl3     1 <0>        -0.6789
      6 C4          1.8966   -2.0491   -0.4503 C.3       1 <0>         0.1228
      7 C5          1.5353   -1.8425    1.0259 C.3       1 <0>         0.1010
      8 N2          0.8850   -0.5326    1.1749 N.pl3     1 <0>        -0.9872
      9 S1          1.4744    0.5846    2.2457 S.o2      1 <0>         2.6945
     10 O1          0.3503    1.2809    2.7660 O.2       1 <0>        -0.9543
     11 O2          2.3991   -0.1003    3.0794 O.2       1 <0>        -0.9480
     12 C6          2.4063    1.7560    1.3161 C.ar      1 <0>        -0.7334
     13 C7          1.9547    3.0575    1.1955 C.ar      1 <0>         0.0387
     14 C8          2.6825    3.9782    0.4678 C.ar      1 <0>        -0.2149
     15 C9          3.8703    3.5964   -0.1436 C.ar      1 <0>         0.2843
     16 C10         4.3222    2.2890   -0.0208 C.ar      1 <0>        -0.2095
     17 C11         3.5916    1.3732    0.7131 C.ar      1 <0>         0.1082
     18 Cl1         4.1583   -0.2599    0.8732 Cl        1 <0>        -0.0399
     19 N3          4.6081    4.5255   -0.8806 N.pl3     1 <0>        -0.6189
     20 C12         5.7980    4.1147   -1.6427 C.3       1 <0>         0.0784
     21 C13         5.6652    4.6511   -3.0726 C.3       1 <0>         0.0463
     22 O3          5.3944    6.0541   -3.0258 O.3       1 <0>        -0.3760
     23 C14         4.1625    6.3912   -2.3835 C.3       1 <0>         0.0454
     24 C15         4.2150    5.9429   -0.9229 C.3       1 <0>         0.0792
     25 C16         0.2150   -2.6921   -2.1723 C.ar      1 <0>         0.2152
     26 C17        -0.8064   -3.5508   -1.7866 C.ar      1 <0>        -0.0969
     27 C18        -1.2983   -4.4820   -2.6799 C.ar      1 <0>        -0.1126
     28 C19        -0.7741   -4.5602   -3.9593 C.ar      1 <0>         0.0969
     29 C20         0.2440   -3.7054   -4.3458 C.ar      1 <0>        -0.1032
     30 C21         0.7356   -2.7688   -3.4573 C.ar      1 <0>        -0.1676
     31 C22         1.8395   -1.8343   -3.8806 C.3       1 <0>         0.5175
     32 F1          2.1189   -2.0272   -5.2378 F         1 <0>        -0.1791
     33 F2          1.4365   -0.5112   -3.6709 F         1 <0>        -0.1705
     34 F3          2.9880   -2.0972   -3.1261 F         1 <0>        -0.1722
     35 F4         -1.2565   -5.4723   -4.8313 F         1 <0>        -0.1297
     36 H2          0.1540    1.8699    0.5190 H         1 <0>         0.0589
     37 H3         -1.4408    1.5124   -0.1860 H         1 <0>         0.0803
     38 H4         -1.1772    1.3172    1.5635 H         1 <0>         0.1101
     39 H5         -0.8391   -0.4070   -1.7298 H         1 <0>         0.0836
     40 H6          0.7514    0.3473   -1.4460 H         1 <0>         0.0644
     41 H7          2.1997   -3.0836   -0.6114 H         1 <0>         0.0838
     42 H8          2.7118   -1.3795   -0.7245 H         1 <0>         0.0687
     43 H9          0.8504   -2.6268    1.3481 H         1 <0>         0.0795
     44 H10         2.4408   -1.8725    1.6318 H         1 <0>         0.1028
     45 H11         1.0314    3.3542    1.6708 H         1 <0>         0.1529
     46 H12         2.3285    4.9941    0.3736 H         1 <0>         0.1388
     47 H13         5.2449    1.9890   -0.4951 H         1 <0>         0.1414
     48 H14         6.6928    4.5279   -1.1772 H         1 <0>         0.0804
     49 H15         5.8633    3.0269   -1.6633 H         1 <0>         0.0960
     50 H16         6.5951    4.4777   -3.6143 H         1 <0>         0.1101
     51 H17         4.8471    4.1391   -3.5791 H         1 <0>         0.0583
     52 H18         4.0112    7.4697   -2.4294 H         1 <0>         0.1103
     53 H19         3.3388    5.8855   -2.8874 H         1 <0>         0.0580
     54 H20         3.2325    6.0651   -0.4670 H         1 <0>         0.0981
     55 H21         4.9477    6.5433   -0.3837 H         1 <0>         0.0801
     56 H22        -1.2153   -3.4904   -0.7889 H         1 <0>         0.1469
     57 H23        -2.0923   -5.1501   -2.3803 H         1 <0>         0.1474
     58 H24         0.6515   -3.7681   -5.3440 H         1 <0>         0.1511
@<TRIPOS>BOND
     1    1    2 1
     2    1   36 1
     3    1   37 1
     4    1   38 1
     5    2    3 1
     6    2    8 1
     7    2    4 1
     8    4    5 1
     9    4   39 1
    10    4   40 1
    11    5    6 1
    12    5   25 1
    13    6    7 1
    14    6   41 1
    15    6   42 1
    16    7    8 1
    17    7   43 1
    18    7   44 1
    19    8    9 1
    20    9   10 2
    21    9   11 2
    22    9   12 1
    23   12   17 ar
    24   12   13 ar
    25   13   14 ar
    26   13   45 1
    27   14   15 ar
    28   14   46 1
    29   15   16 ar
    30   15   19 1
    31   16   17 ar
    32   16   47 1
    33   17   18 1
    34   19   24 1
    35   19   20 1
    36   20   21 1
    37   20   48 1
    38   20   49 1
    39   21   22 1
    40   21   50 1
    41   21   51 1
    42   22   23 1
    43   23   24 1
    44   23   52 1
    45   23   53 1
    46   24   54 1
    47   24   55 1
    48   25   30 ar
    49   25   26 ar
    50   26   27 ar
    51   26   56 1
    52   27   28 ar
    53   27   57 1
    54   28   29 ar
    55   28   35 1
    56   29   30 ar
    57   29   58 1
    58   30   31 1
    59   31   32 1
    60   31   33 1
    61   31   34 1
@<TRIPOS>MOLECULE
CHEMBL495691
   54    58     0     0     0
SMALL
USER_CHARGES

@<TRIPOS>ATOM
      1 C1          0.3765    1.5731    0.1853 C.3       1 <0>         0.0624
      2 N1          0.2526    0.1171    0.0813 N.pl3     1 <0>        -0.4666
      3 C2          0.1185   -0.6204   -1.0638 C.2       1 <0>         0.2178
      4 N2          0.0415   -1.8816   -0.7014 N.2       1 <0>        -0.2758
      5 N3          0.1184   -1.9705    0.5786 N.2       1 <0>        -0.2808
      6 C3          0.2530   -0.7818    1.1030 C.2       1 <0>         0.2014
      7 C4          0.3820   -0.4639    2.5704 C.3       1 <0>         0.0353
      8 C5         -0.0763   -1.6072    3.4910 C.3       1 <0>        -0.1061
      9 C6         -0.7063   -0.5279    4.3871 C.3       1 <0>        -0.1378
     10 C7         -0.7950    0.3528    3.1295 C.3       1 <0>        -0.1323
     11 C8          1.7326    0.0993    2.9306 C.ar      1 <0>        -0.0605
     12 C9          2.8621   -0.6900    2.8199 C.ar      1 <0>        -0.0884
     13 C10         4.1011   -0.1741    3.1502 C.ar      1 <0>        -0.1052
     14 C11         4.2108    1.1325    3.5916 C.ar      1 <0>        -0.0314
     15 C12         3.0800    1.9219    3.7021 C.ar      1 <0>        -0.1069
     16 C13         1.8422    1.4067    3.3662 C.ar      1 <0>        -0.1056
     17 Cl1         5.7666    1.7810    4.0071 Cl        1 <0>        -0.0650
     18 C14         0.0695   -0.0974   -2.4468 C.ar      1 <0>        -0.0200
     19 C15        -0.1494    1.2615   -2.6745 C.ar      1 <0>        -0.1168
     20 C16        -0.1940    1.7430   -3.9668 C.ar      1 <0>        -0.1101
     21 C17        -0.0222    0.8814   -5.0355 C.ar      1 <0>        -0.0604
     22 C18         0.1952   -0.4672   -4.8163 C.ar      1 <0>        -0.1099
     23 C19         0.2477   -0.9602   -3.5287 C.ar      1 <0>        -0.0707
     24 C20        -0.0726    1.4140   -6.4443 C.3       1 <0>        -0.0456
     25 C21         1.3117    1.8241   -6.8761 C.ar      1 <0>        -0.0787
     26 C22         1.7543    3.1131   -6.6453 C.ar      1 <0>        -0.1147
     27 C23         3.0241    3.4893   -7.0415 C.ar      1 <0>        -0.1183
     28 C24         3.8515    2.5762   -7.6680 C.ar      1 <0>        -0.1226
     29 C25         3.4093    1.2869   -7.8980 C.ar      1 <0>        -0.1173
     30 C26         2.1410    0.9095   -7.4980 C.ar      1 <0>        -0.1138
     31 H1          1.3494    1.8831   -0.1962 H         1 <0>         0.0875
     32 H2         -0.4112    2.0475   -0.4000 H         1 <0>         0.0957
     33 H3          0.2836    1.8720    1.2294 H         1 <0>         0.0956
     34 H4         -0.8062   -2.2729    3.0303 H         1 <0>         0.0998
     35 H5          0.7464   -2.1426    3.9650 H         1 <0>         0.0797
     36 H6         -1.6782   -0.8095    4.7923 H         1 <0>         0.0788
     37 H7         -0.0269   -0.1389    5.1455 H         1 <0>         0.0870
     38 H8         -0.5525    1.3997    3.3117 H         1 <0>         0.0802
     39 H9         -1.7214    0.2229    2.5700 H         1 <0>         0.0902
     40 H10         2.7764   -1.7101    2.4757 H         1 <0>         0.1343
     41 H11         4.9834   -0.7909    3.0640 H         1 <0>         0.1366
     42 H12         3.1649    2.9419    4.0470 H         1 <0>         0.1371
     43 H13         0.9600    2.0243    3.4480 H         1 <0>         0.1370
     44 H14        -0.2839    1.9351   -1.8411 H         1 <0>         0.1305
     45 H15        -0.3637    2.7947   -4.1444 H         1 <0>         0.1280
     46 H16         0.3286   -1.1347   -5.6548 H         1 <0>         0.1304
     47 H17         0.4220   -2.0124   -3.3588 H         1 <0>         0.1372
     48 H18        -0.4470    0.6386   -7.1127 H         1 <0>         0.0863
     49 H19        -0.7360    2.2781   -6.4825 H         1 <0>         0.0853
     50 H20         1.1079    3.8265   -6.1558 H         1 <0>         0.1203
     51 H21         3.3697    4.4966   -6.8617 H         1 <0>         0.1217
     52 H22         4.8434    2.8703   -7.9781 H         1 <0>         0.1213
     53 H23         4.0556    0.5736   -8.3878 H         1 <0>         0.1224
     54 H24         1.7968   -0.0989   -7.6744 H         1 <0>         0.1216
@<TRIPOS>BOND
     1    1    2 1
     2    1   31 1
     3    1   32 1
     4    1   33 1
     5    2    6 1
     6    2    3 1
     7    3    4 2
     8    3   18 1
     9    4    5 1
    10    5    6 2
    11    6    7 1
    12    7   10 1
    13    7    8 1
    14    7   11 1
    15    8    9 1
    16    8   34 1
    17    8   35 1
    18    9   10 1
    19    9   36 1
    20    9   37 1
    21   10   38 1
    22   10   39 1
    23   11   16 ar
    24   11   12 ar
    25   12   13 ar
    26   12   40 1
    27   13   14 ar
    28   13   41 1
    29   14   15 ar
    30   14   17 1
    31   15   16 ar
    32   15   42 1
    33   16   43 1
    34   18   23 ar
    35   18   19 ar
    36   19   20 ar
    37   19   44 1
    38   20   21 ar
    39   20   45 1
    40   21   22 ar
    41   21   24 1
    42   22   23 ar
    43   22   46 1
    44   23   47 1
    45   24   25 1
    46   24   48 1
    47   24   49 1
    48   25   30 ar
    49   25   26 ar
    50   26   27 ar
    51   26   50 1
    52   27   28 ar
    53   27   51 1
    54   28   29 ar
    55   28   52 1
    56   29   30 ar
    57   29   53 1
    58   30   54 1
@<TRIPOS>MOLECULE
CHEMBL491141
   64    67     0     0     0
SMALL
USER_CHARGES

@<TRIPOS>ATOM
      1 C1         -1.0369    1.4647   -0.1228 C.3       1 <0>        -0.1858
      2 C2         -0.8577   -0.0486   -0.2598 C.3       1 <0>         0.1574
      3 H1         -1.8258   -0.5175   -0.4355 H         1 <0>         0.0863
      4 C3          0.0815   -0.3517   -1.4321 C.3       1 <0>         0.0449
      5 N1          0.3722   -1.7913   -1.4629 N.3       1 <0>        -0.5296
      6 C4          1.0832   -2.2174   -0.2501 C.3       1 <0>         0.0326
      7 C5          0.1851   -1.9908    0.9707 C.3       1 <0>         0.1204
      8 N2         -0.2632   -0.5892    0.9721 N.pl3     1 <0>        -0.9931
      9 S1         -0.0974    0.3559    2.3217 S.o2      1 <0>         2.6877
     10 O1          0.8396   -0.3004    3.1646 O.2       1 <0>        -0.9545
     11 O2          0.0919    1.6878    1.8640 O.2       1 <0>        -0.9469
     12 C6         -1.6420    0.3294    3.1692 C.ar      1 <0>        -0.6645
     13 C7         -2.6094    1.2712    2.8725 C.ar      1 <0>        -0.0206
     14 C8         -3.8212    1.2505    3.5373 C.ar      1 <0>        -0.1149
     15 C9         -4.0658    0.2876    4.4986 C.ar      1 <0>        -0.0794
     16 C10        -3.0987   -0.6548    4.7946 C.ar      1 <0>        -0.1117
     17 C11        -1.8885   -0.6366    4.1267 C.ar      1 <0>        -0.0162
     18 C12        -5.3864    0.2655    5.2241 C.3       1 <0>         0.1393
     19 C13        -5.1857   -0.2995    6.6316 C.3       1 <0>        -0.1512
     20 C14        -6.3750   -0.6151    4.4571 C.3       1 <0>         0.4277
     21 F1         -5.8693   -1.9166    4.3694 F         1 <0>        -0.1726
     22 F2         -7.6010   -0.6356    5.1307 F         1 <0>        -0.1691
     23 F3         -6.5585   -0.0984    3.1701 F         1 <0>        -0.1795
     24 O3         -5.9030    1.5949    5.3137 O.3       1 <0>        -0.5172
     25 C15         1.1287   -2.1499   -2.6700 C.3       1 <0>         0.0765
     26 C16         1.1756   -3.6729   -2.8088 C.3       1 <0>        -0.0426
     27 C17         1.9196   -4.1543   -4.0656 C.3       1 <0>        -0.1228
     28 C18         3.2018   -4.1388   -3.2167 C.3       1 <0>        -0.1421
     29 C19         2.2969   -4.3320   -1.9884 C.3       1 <0>        -0.1389
     30 C20        -0.1721   -4.3197   -2.6180 C.ar      1 <0>        -0.0155
     31 C21        -1.3202   -3.5497   -2.5116 C.ar      1 <0>        -0.1357
     32 C22        -2.5387   -4.1780   -2.3372 C.ar      1 <0>         0.0866
     33 N3         -2.6164   -5.4928   -2.2714 N.ar      1 <0>        -0.4896
     34 C23        -1.5457   -6.2564   -2.3687 C.ar      1 <0>         0.0909
     35 C24        -0.2941   -5.6991   -2.5504 C.ar      1 <0>        -0.1734
     36 H2         -0.0592    1.9465   -0.1082 H         1 <0>         0.0939
     37 H3         -1.6144    1.8401   -0.9676 H         1 <0>         0.0740
     38 H4         -1.5647    1.6856    0.8049 H         1 <0>         0.0681
     39 H5         -0.3963   -0.0570   -2.3665 H         1 <0>         0.0907
     40 H6          1.0105    0.2044   -1.3071 H         1 <0>         0.0459
     41 H7          1.3318   -3.2759   -0.3272 H         1 <0>         0.1029
     42 H8          1.9983   -1.6353   -0.1415 H         1 <0>         0.0428
     43 H9         -0.6818   -2.6492    0.9148 H         1 <0>         0.0785
     44 H10         0.7468   -2.1967    1.8818 H         1 <0>         0.0994
     45 H11        -2.4184    2.0235    2.1215 H         1 <0>         0.1503
     46 H12        -4.5767    1.9867    3.3060 H         1 <0>         0.1359
     47 H13        -3.2896   -1.4068    5.5458 H         1 <0>         0.1434
     48 H14        -1.1344   -1.3751    4.3554 H         1 <0>         0.1464
     49 H15        -4.4814    0.3278    7.1780 H         1 <0>         0.0938
     50 H16        -6.1409   -0.3155    7.1564 H         1 <0>         0.0872
     51 H17        -4.7917   -1.3136    6.5633 H         1 <0>         0.0908
     52 H18        -6.0552    2.0163    4.4567 H         1 <0>         0.3877
     53 H19         0.6414   -1.7201   -3.5452 H         1 <0>         0.0839
     54 H20         2.1438   -1.7608   -2.5916 H         1 <0>         0.0478
     55 H21         1.6245   -5.1513   -4.3927 H         1 <0>         0.0871
     56 H22         1.9239   -3.4257   -4.8764 H         1 <0>         0.0719
     57 H23         3.8630   -4.9837   -3.4091 H         1 <0>         0.0715
     58 H24         3.7223   -3.1812   -3.2293 H         1 <0>         0.0811
     59 H25         2.6058   -3.7469   -1.1222 H         1 <0>         0.0780
     60 H26         2.1049   -5.3776   -1.7476 H         1 <0>         0.0879
     61 H27        -1.2630   -2.4724   -2.5640 H         1 <0>         0.1504
     62 H28        -3.4377   -3.5854   -2.2534 H         1 <0>         0.1481
     63 H29        -1.6486   -7.3299   -2.3098 H         1 <0>         0.1496
     64 H30         0.5784   -6.3300   -2.6344 H         1 <0>         0.1279
@<TRIPOS>BOND
     1    1    2 1
     2    1   36 1
     3    1   37 1
     4    1   38 1
     5    2    3 1
     6    2    8 1
     7    2    4 1
     8    4    5 1
     9    4   39 1
    10    4   40 1
    11    5    6 1
    12    5   25 1
    13    6    7 1
    14    6   41 1
    15    6   42 1
    16    7    8 1
    17    7   43 1
    18    7   44 1
    19    8    9 1
    20    9   10 2
    21    9   11 2
    22    9   12 1
    23   12   17 ar
    24   12   13 ar
    25   13   14 ar
    26   13   45 1
    27   14   15 ar
    28   14   46 1
    29   15   16 ar
    30   15   18 1
    31   16   17 ar
    32   16   47 1
    33   17   48 1
    34   18   19 1
    35   18   20 1
    36   18   24 1
    37   19   49 1
    38   19   50 1
    39   19   51 1
    40   20   21 1
    41   20   22 1
    42   20   23 1
    43   24   52 1
    44   25   26 1
    45   25   53 1
    46   25   54 1
    47   26   29 1
    48   26   27 1
    49   26   30 1
    50   27   28 1
    51   27   55 1
    52   27   56 1
    53   28   29 1
    54   28   57 1
    55   28   58 1
    56   29   59 1
    57   29   60 1
    58   30   35 ar
    59   30   31 ar
    60   31   32 ar
    61   31   61 1
    62   32   33 ar
    63   32   62 1
    64   33   34 ar
    65   34   35 ar
    66   34   63 1
    67   35   64 1
@<TRIPOS>MOLECULE
CHEMBL491141__1
   65    68     0     0     0
SMALL
USER_CHARGES

@<TRIPOS>ATOM
      1 C1         -3.8048   -4.1153   -0.4488 C.3       1 <0>        -0.1913
      2 C2         -2.4969   -4.6498   -1.0359 C.3       1 <0>         0.1340
      3 H1         -2.6443   -4.9064   -2.0850 H         1 <0>         0.1038
      4 C3         -1.4043   -3.5823   -0.9155 C.3       1 <0>        -0.0191
      5 N1         -0.1209   -4.1454   -1.3536 N.4       1 <0>        -0.3810
      6 C4          0.2844   -5.2292   -0.4496 C.3       1 <0>        -0.0401
      7 C5         -0.7246   -6.3782   -0.5469 C.3       1 <0>         0.0909
      8 N2         -2.0718   -5.8443   -0.2898 N.pl3     1 <0>        -1.0095
      9 S1         -3.0779   -6.5627    0.8121 S.o2      1 <0>         2.6906
     10 O1         -2.2643   -7.4074    1.6145 O.2       1 <0>        -0.9384
     11 O2         -3.8796   -5.5280    1.3650 O.2       1 <0>        -0.9331
     12 C6         -4.1663   -7.6175   -0.0865 C.ar      1 <0>        -0.6724
     13 C7         -5.3671   -7.1264   -0.5637 C.ar      1 <0>        -0.0218
     14 C8         -6.2211   -7.9539   -1.2686 C.ar      1 <0>        -0.1123
     15 C9         -5.8740   -9.2724   -1.4967 C.ar      1 <0>        -0.0682
     16 C10        -4.6727   -9.7632   -1.0203 C.ar      1 <0>        -0.1087
     17 C11        -3.8169   -8.9346   -0.3190 C.ar      1 <0>        -0.0164
     18 C12        -6.8054  -10.1748   -2.2643 C.3       1 <0>         0.1362
     19 C13        -6.6349  -11.6156   -1.7786 C.3       1 <0>        -0.1535
     20 C14        -6.4759  -10.0973   -3.7564 C.3       1 <0>         0.4284
     21 F1         -5.1542  -10.5061   -3.9640 F         1 <0>        -0.1740
     22 F2         -7.3405  -10.9350   -4.4690 F         1 <0>        -0.1644
     23 F3         -6.6317   -8.7798   -4.2006 F         1 <0>        -0.1812
     24 O3         -8.1554   -9.7572   -2.0523 O.3       1 <0>        -0.5134
     25 C15         0.9031   -3.0922   -1.3424 C.3       1 <0>         0.0175
     26 C16         2.2291   -3.6648   -1.8472 C.3       1 <0>        -0.0788
     27 C17         3.3865   -2.6524   -1.8226 C.3       1 <0>        -0.1075
     28 C18         3.6669   -3.1269   -0.3869 C.3       1 <0>        -0.1435
     29 C19         3.0037   -4.4572   -0.7809 C.3       1 <0>        -0.1524
     30 C20         2.0902   -4.3938   -3.1588 C.ar      1 <0>        -0.0661
     31 C21         1.5940   -3.7479   -4.2808 C.ar      1 <0>        -0.1765
     32 C22         1.4808   -4.4489   -5.4665 C.ar      1 <0>         0.1151
     33 N3          1.8378   -5.7163   -5.5375 N.ar      1 <0>        -0.4710
     34 C23         2.3136   -6.3624   -4.4910 C.ar      1 <0>         0.1158
     35 C24         2.4610   -5.7249   -3.2736 C.ar      1 <0>        -0.1733
     36 H2         -3.6274   -3.7539    0.5641 H         1 <0>         0.1093
     37 H3         -4.1730   -3.2969   -1.0674 H         1 <0>         0.0893
     38 H4         -4.5457   -4.9145   -0.4249 H         1 <0>         0.0855
     39 H5         -1.6597   -2.7284   -1.5430 H         1 <0>         0.1469
     40 H6         -1.3242   -3.2597    0.1226 H         1 <0>         0.1407
     41 H7          1.2733   -5.5888   -0.7337 H         1 <0>         0.1581
     42 H8          0.3133   -4.8567    0.5744 H         1 <0>         0.1403
     43 H9         -0.6904   -6.8120   -1.5463 H         1 <0>         0.0988
     44 H10        -0.4846   -7.1402    0.1947 H         1 <0>         0.1437
     45 H11        -5.6383   -6.0963   -0.3855 H         1 <0>         0.1502
     46 H12        -7.1596   -7.5704   -1.6408 H         1 <0>         0.1401
     47 H13        -4.4017  -10.7934   -1.1982 H         1 <0>         0.1478
     48 H14        -2.8767   -9.3171    0.0500 H         1 <0>         0.1480
     49 H15        -6.8697  -11.6708   -0.7156 H         1 <0>         0.0955
     50 H16        -7.3086  -12.2683   -2.3338 H         1 <0>         0.0911
     51 H17        -5.6052  -11.9341   -1.9403 H         1 <0>         0.0912
     52 H18        -8.3363   -8.8511   -2.3378 H         1 <0>         0.3879
     53 H19         0.5901   -2.2742   -1.9913 H         1 <0>         0.1391
     54 H20         1.0313   -2.7208   -0.3257 H         1 <0>         0.1420
     55 H21         4.1869   -2.8871   -2.5242 H         1 <0>         0.1015
     56 H22         3.0598   -1.6143   -1.8834 H         1 <0>         0.0847
     57 H23         4.7283   -3.2194   -0.1571 H         1 <0>         0.0872
     58 H24         3.1153   -2.5719    0.3719 H         1 <0>         0.0891
     59 H25         2.3680   -4.8761   -0.0008 H         1 <0>         0.0867
     60 H26         3.6995   -5.1853   -1.1978 H         1 <0>         0.1082
     61 H27         1.2993   -2.7102   -4.2288 H         1 <0>         0.1391
     62 H28         1.0952   -3.9530   -6.3450 H         1 <0>         0.1641
     63 H29         2.5953   -7.4006   -4.5874 H         1 <0>         0.1648
     64 H30         2.8559   -6.2580   -2.4214 H         1 <0>         0.1435
     65 H31        -0.2164   -4.5083   -2.2902 H         1 <0>         0.4213
@<TRIPOS>BOND
     1    1    2 1
     2    1   36 1
     3    1   37 1
     4    1   38 1
     5    2    3 1
     6    2    8 1
     7    2    4 1
     8    4    5 1
     9    4   39 1
    10    4   40 1
    11    5    6 1
    12    5   25 1
    13    5   65 1
    14    6    7 1
    15    6   41 1
    16    6   42 1
    17    7    8 1
    18    7   43 1
    19    7   44 1
    20    8    9 1
    21    9   10 2
    22    9   11 2
    23    9   12 1
    24   12   17 ar
    25   12   13 ar
    26   13   14 ar
    27   13   45 1
    28   14   15 ar
    29   14   46 1
    30   15   16 ar
    31   15   18 1
    32   16   17 ar
    33   16   47 1
    34   17   48 1
    35   18   19 1
    36   18   20 1
    37   18   24 1
    38   19   49 1
    39   19   50 1
    40   19   51 1
    41   20   21 1
    42   20   22 1
    43   20   23 1
    44   24   52 1
    45   25   26 1
    46   25   53 1
    47   25   54 1
    48   26   29 1
    49   26   27 1
    50   26   30 1
    51   27   28 1
    52   27   55 1
    53   27   56 1
    54   28   29 1
    55   28   57 1
    56   28   58 1
    57   29   59 1
    58   29   60 1
    59   30   35 ar
    60   30   31 ar
    61   31   32 ar
    62   31   61 1
    63   32   33 ar
    64   32   62 1
    65   33   34 ar
    66   34   35 ar
    67   34   63 1
    68   35   64 1
@<TRIPOS>MOLECULE
CHEMBL491141__2
   65    68     0     0     0
SMALL
USER_CHARGES

@<TRIPOS>ATOM
      1 C1         -1.0369    1.4647   -0.1228 C.3       1 <0>        -0.1903
      2 C2         -0.8577   -0.0486   -0.2598 C.3       1 <0>         0.1595
      3 H1         -1.8258   -0.5175   -0.4355 H         1 <0>         0.0829
      4 C3          0.0815   -0.3517   -1.4321 C.3       1 <0>         0.0403
      5 N1          0.3722   -1.7913   -1.4629 N.3       1 <0>        -0.5440
      6 C4          1.0832   -2.2174   -0.2501 C.3       1 <0>         0.0258
      7 C5          0.1851   -1.9908    0.9707 C.3       1 <0>         0.1212
      8 N2         -0.2632   -0.5892    0.9721 N.pl3     1 <0>        -0.9968
      9 S1         -0.0974    0.3559    2.3217 S.o2      1 <0>         2.6868
     10 O1          0.8396   -0.3004    3.1646 O.2       1 <0>        -0.9502
     11 O2          0.0919    1.6878    1.8640 O.2       1 <0>        -0.9414
     12 C6         -1.6420    0.3294    3.1692 C.ar      1 <0>        -0.6667
     13 C7         -2.6094    1.2712    2.8725 C.ar      1 <0>        -0.0209
     14 C8         -3.8212    1.2505    3.5373 C.ar      1 <0>        -0.1139
     15 C9         -4.0658    0.2876    4.4986 C.ar      1 <0>        -0.0758
     16 C10        -3.0987   -0.6548    4.7946 C.ar      1 <0>        -0.1116
     17 C11        -1.8885   -0.6366    4.1267 C.ar      1 <0>        -0.0180
     18 C12        -5.3864    0.2655    5.2241 C.3       1 <0>         0.1380
     19 C13        -5.1857   -0.2995    6.6316 C.3       1 <0>        -0.1527
     20 C14        -6.3750   -0.6151    4.4571 C.3       1 <0>         0.4284
     21 F1         -5.8693   -1.9166    4.3694 F         1 <0>        -0.1755
     22 F2         -7.6010   -0.6356    5.1307 F         1 <0>        -0.1660
     23 F3         -6.5585   -0.0984    3.1701 F         1 <0>        -0.1811
     24 O3         -5.9030    1.5949    5.3137 O.3       1 <0>        -0.5145
     25 C15         1.1287   -2.1499   -2.6700 C.3       1 <0>         0.0641
     26 C16         1.1756   -3.6729   -2.8088 C.3       1 <0>        -0.0653
     27 C17         1.9196   -4.1543   -4.0656 C.3       1 <0>        -0.1200
     28 C18         3.2018   -4.1388   -3.2167 C.3       1 <0>        -0.1404
     29 C19         2.2969   -4.3320   -1.9884 C.3       1 <0>        -0.1381
     30 C20        -0.1721   -4.3197   -2.6180 C.ar      1 <0>         0.0711
     31 C21        -1.3202   -3.5497   -2.5116 C.ar      1 <0>        -0.0970
     32 C22        -2.5387   -4.1780   -2.3372 C.ar      1 <0>         0.1191
     33 N3         -2.6164   -5.4928   -2.2714 N.ar      1 <0>        -0.4486
     34 C23        -1.5457   -6.2564   -2.3687 C.ar      1 <0>         0.1288
     35 C24        -0.2941   -5.6991   -2.5504 C.ar      1 <0>        -0.1342
     36 H2         -0.0592    1.9465   -0.1082 H         1 <0>         0.0970
     37 H3         -1.6144    1.8401   -0.9676 H         1 <0>         0.0763
     38 H4         -1.5647    1.6856    0.8049 H         1 <0>         0.0714
     39 H5         -0.3963   -0.0570   -2.3665 H         1 <0>         0.0950
     40 H6          1.0105    0.2044   -1.3071 H         1 <0>         0.0556
     41 H7          1.3318   -3.2759   -0.3272 H         1 <0>         0.0999
     42 H8          1.9983   -1.6353   -0.1415 H         1 <0>         0.0539
     43 H9         -0.6818   -2.6492    0.9148 H         1 <0>         0.0722
     44 H10         0.7468   -2.1967    1.8818 H         1 <0>         0.1039
     45 H11        -2.4184    2.0235    2.1215 H         1 <0>         0.1506
     46 H12        -4.5767    1.9867    3.3060 H         1 <0>         0.1376
     47 H13        -3.2896   -1.4068    5.5458 H         1 <0>         0.1443
     48 H14        -1.1344   -1.3751    4.3554 H         1 <0>         0.1459
     49 H15        -4.4814    0.3278    7.1780 H         1 <0>         0.0953
     50 H16        -6.1409   -0.3155    7.1564 H         1 <0>         0.0893
     51 H17        -4.7917   -1.3136    6.5633 H         1 <0>         0.0903
     52 H18        -6.0552    2.0163    4.4567 H         1 <0>         0.3878
     53 H19         0.6414   -1.7201   -3.5452 H         1 <0>         0.0933
     54 H20         2.1438   -1.7608   -2.5916 H         1 <0>         0.0652
     55 H21         1.6245   -5.1513   -4.3927 H         1 <0>         0.0919
     56 H22         1.9239   -3.4257   -4.8764 H         1 <0>         0.0856
     57 H23         3.8630   -4.9837   -3.4091 H         1 <0>         0.0825
     58 H24         3.7223   -3.1812   -3.2293 H         1 <0>         0.0906
     59 H25         2.6058   -3.7469   -1.1222 H         1 <0>         0.0907
     60 H26         2.1049   -5.3776   -1.7476 H         1 <0>         0.0920
     61 H27        -1.2630   -2.4724   -2.5640 H         1 <0>         0.1979
     62 H28        -3.4377   -3.5854   -2.2534 H         1 <0>         0.2050
     63 H29        -1.6486   -7.3299   -2.3098 H         1 <0>         0.2067
     64 H30         0.5784   -6.3300   -2.6344 H         1 <0>         0.1800
     65 H31        -3.4838   -5.9090   -2.1479 H         1 <0>         0.4493
@<TRIPOS>BOND
     1    1    2 1
     2    1   36 1
     3    1   37 1
     4    1   38 1
     5    2    3 1
     6    2    8 1
     7    2    4 1
     8    4    5 1
     9    4   39 1
    10    4   40 1
    11    5    6 1
    12    5   25 1
    13    6    7 1
    14    6   41 1
    15    6   42 1
    16    7    8 1
    17    7   43 1
    18    7   44 1
    19    8    9 1
    20    9   10 2
    21    9   11 2
    22    9   12 1
    23   12   17 ar
    24   12   13 ar
    25   13   14 ar
    26   13   45 1
    27   14   15 ar
    28   14   46 1
    29   15   16 ar
    30   15   18 1
    31   16   17 ar
    32   16   47 1
    33   17   48 1
    34   18   19 1
    35   18   20 1
    36   18   24 1
    37   19   49 1
    38   19   50 1
    39   19   51 1
    40   20   21 1
    41   20   22 1
    42   20   23 1
    43   24   52 1
    44   25   26 1
    45   25   53 1
    46   25   54 1
    47   26   29 1
    48   26   27 1
    49   26   30 1
    50   27   28 1
    51   27   55 1
    52   27   56 1
    53   28   29 1
    54   28   57 1
    55   28   58 1
    56   29   59 1
    57   29   60 1
    58   30   35 ar
    59   30   31 ar
    60   31   32 ar
    61   31   61 1
    62   32   33 ar
    63   32   62 1
    64   33   34 ar
    65   33   65 1
    66   34   35 ar
    67   34   63 1
    68   35   64 1
@<TRIPOS>MOLECULE
CHEMBL491141__3
   64    67     0     0     0
SMALL
USER_CHARGES

@<TRIPOS>ATOM
      1 C1         -1.0369    1.4647   -0.1228 C.3       1 <0>        -0.1860
      2 C2         -0.8577   -0.0486   -0.2598 C.3       1 <0>         0.1578
      3 H1         -1.8258   -0.5175   -0.4355 H         1 <0>         0.0864
      4 C3          0.0815   -0.3517   -1.4321 C.3       1 <0>         0.0447
      5 N1          0.3722   -1.7913   -1.4629 N.3       1 <0>        -0.5294
      6 C4          1.0832   -2.2174   -0.2501 C.3       1 <0>         0.0324
      7 C5          0.1851   -1.9908    0.9707 C.3       1 <0>         0.1206
      8 N2         -0.2632   -0.5892    0.9721 N.pl3     1 <0>        -0.9930
      9 S1         -0.0974    0.3559    2.3217 S.o2      1 <0>         2.6875
     10 O1          0.8396   -0.3004    3.1646 O.2       1 <0>        -0.9544
     11 O2          0.0919    1.6878    1.8640 O.2       1 <0>        -0.9469
     12 C6         -1.6420    0.3294    3.1692 C.ar      1 <0>        -0.6645
     13 C7         -2.6094    1.2712    2.8725 C.ar      1 <0>        -0.0207
     14 C8         -3.8212    1.2505    3.5373 C.ar      1 <0>        -0.1149
     15 C9         -4.0658    0.2876    4.4986 C.ar      1 <0>        -0.0794
     16 C10        -3.0987   -0.6548    4.7946 C.ar      1 <0>        -0.1117
     17 C11        -1.8885   -0.6366    4.1267 C.ar      1 <0>        -0.0162
     18 C12        -5.3864    0.2655    5.2241 C.3       1 <0>         0.1395
     19 C13        -5.7273   -1.1727    5.6192 C.3       1 <0>        -0.1506
     20 C14        -5.2918    1.1312    6.4820 C.3       1 <0>         0.4269
     21 F1         -4.9801    2.4464    6.1207 F         1 <0>        -0.1794
     22 F2         -6.5178    1.1108    7.1556 F         1 <0>        -0.1690
     23 F3         -4.2909    0.6282    7.3201 F         1 <0>        -0.1726
     24 O3         -6.4088    0.7794    4.3680 O.3       1 <0>        -0.5171
     25 C15         1.1287   -2.1499   -2.6700 C.3       1 <0>         0.0763
     26 C16         1.1756   -3.6729   -2.8088 C.3       1 <0>        -0.0426
     27 C17         1.9196   -4.1543   -4.0656 C.3       1 <0>        -0.1229
     28 C18         3.2018   -4.1388   -3.2167 C.3       1 <0>        -0.1422
     29 C19         2.2969   -4.3320   -1.9884 C.3       1 <0>        -0.1390
     30 C20        -0.1721   -4.3197   -2.6180 C.ar      1 <0>        -0.0153
     31 C21        -1.3202   -3.5497   -2.5116 C.ar      1 <0>        -0.1358
     32 C22        -2.5387   -4.1780   -2.3372 C.ar      1 <0>         0.0865
     33 N3         -2.6164   -5.4928   -2.2714 N.ar      1 <0>        -0.4897
     34 C23        -1.5457   -6.2564   -2.3687 C.ar      1 <0>         0.0909
     35 C24        -0.2941   -5.6991   -2.5504 C.ar      1 <0>        -0.1735
     36 H2         -0.0592    1.9465   -0.1082 H         1 <0>         0.0938
     37 H3         -1.6144    1.8401   -0.9676 H         1 <0>         0.0740
     38 H4         -1.5647    1.6856    0.8049 H         1 <0>         0.0682
     39 H5         -0.3963   -0.0570   -2.3665 H         1 <0>         0.0907
     40 H6          1.0105    0.2044   -1.3071 H         1 <0>         0.0459
     41 H7          1.3318   -3.2759   -0.3272 H         1 <0>         0.1029
     42 H8          1.9983   -1.6353   -0.1415 H         1 <0>         0.0427
     43 H9         -0.6818   -2.6492    0.9148 H         1 <0>         0.0784
     44 H10         0.7468   -2.1967    1.8818 H         1 <0>         0.0993
     45 H11        -2.4184    2.0235    2.1215 H         1 <0>         0.1503
     46 H12        -4.5767    1.9867    3.3060 H         1 <0>         0.1359
     47 H13        -3.2896   -1.4068    5.5458 H         1 <0>         0.1434
     48 H14        -1.1344   -1.3751    4.3554 H         1 <0>         0.1464
     49 H15        -4.9475   -1.5647    6.2721 H         1 <0>         0.0906
     50 H16        -6.6825   -1.1887    6.1440 H         1 <0>         0.0871
     51 H17        -5.7947   -1.7895    4.7230 H         1 <0>         0.0938
     52 H18        -6.2580    1.6893    4.0775 H         1 <0>         0.3877
     53 H19         0.6414   -1.7201   -3.5452 H         1 <0>         0.0839
     54 H20         2.1438   -1.7608   -2.5916 H         1 <0>         0.0478
     55 H21         1.6245   -5.1513   -4.3927 H         1 <0>         0.0871
     56 H22         1.9239   -3.4257   -4.8764 H         1 <0>         0.0719
     57 H23         3.8630   -4.9837   -3.4091 H         1 <0>         0.0715
     58 H24         3.7223   -3.1812   -3.2293 H         1 <0>         0.0812
     59 H25         2.6058   -3.7469   -1.1222 H         1 <0>         0.0780
     60 H26         2.1049   -5.3776   -1.7476 H         1 <0>         0.0879
     61 H27        -1.2630   -2.4724   -2.5640 H         1 <0>         0.1504
     62 H28        -3.4377   -3.5854   -2.2534 H         1 <0>         0.1482
     63 H29        -1.6486   -7.3299   -2.3098 H         1 <0>         0.1496
     64 H30         0.5784   -6.3300   -2.6344 H         1 <0>         0.1279
@<TRIPOS>BOND
     1    1    2 1
     2    1   36 1
     3    1   37 1
     4    1   38 1
     5    2    3 1
     6    2    8 1
     7    2    4 1
     8    4    5 1
     9    4   39 1
    10    4   40 1
    11    5    6 1
    12    5   25 1
    13    6    7 1
    14    6   41 1
    15    6   42 1
    16    7    8 1
    17    7   43 1
    18    7   44 1
    19    8    9 1
    20    9   10 2
    21    9   11 2
    22    9   12 1
    23   12   17 ar
    24   12   13 ar
    25   13   14 ar
    26   13   45 1
    27   14   15 ar
    28   14   46 1
    29   15   16 ar
    30   15   18 1
    31   16   17 ar
    32   16   47 1
    33   17   48 1
    34   18   19 1
    35   18   20 1
    36   18   24 1
    37   19   49 1
    38   19   50 1
    39   19   51 1
    40   20   21 1
    41   20   22 1
    42   20   23 1
    43   24   52 1
    44   25   26 1
    45   25   53 1
    46   25   54 1
    47   26   29 1
    48   26   27 1
    49   26   30 1
    50   27   28 1
    51   27   55 1
    52   27   56 1
    53   28   29 1
    54   28   57 1
    55   28   58 1
    56   29   59 1
    57   29   60 1
    58   30   35 ar
    59   30   31 ar
    60   31   32 ar
    61   31   61 1
    62   32   33 ar
    63   32   62 1
    64   33   34 ar
    65   34   35 ar
    66   34   63 1
    67   35   64 1
@<TRIPOS>MOLECULE
CHEMBL491141__4
   65    68     0     0     0
SMALL
USER_CHARGES

@<TRIPOS>ATOM
      1 C1         -3.8048   -4.1153   -0.4488 C.3       1 <0>        -0.1915
      2 C2         -2.4969   -4.6498   -1.0359 C.3       1 <0>         0.1344
      3 H1         -2.6443   -4.9064   -2.0850 H         1 <0>         0.1038
      4 C3         -1.4043   -3.5823   -0.9155 C.3       1 <0>        -0.0192
      5 N1         -0.1209   -4.1454   -1.3536 N.4       1 <0>        -0.3808
      6 C4          0.2844   -5.2292   -0.4496 C.3       1 <0>        -0.0402
      7 C5         -0.7246   -6.3782   -0.5469 C.3       1 <0>         0.0911
      8 N2         -2.0718   -5.8443   -0.2898 N.pl3     1 <0>        -1.0094
      9 S1         -3.0779   -6.5627    0.8121 S.o2      1 <0>         2.6903
     10 O1         -2.2643   -7.4074    1.6145 O.2       1 <0>        -0.9382
     11 O2         -3.8796   -5.5280    1.3650 O.2       1 <0>        -0.9331
     12 C6         -4.1663   -7.6175   -0.0865 C.ar      1 <0>        -0.6724
     13 C7         -5.3671   -7.1264   -0.5637 C.ar      1 <0>        -0.0218
     14 C8         -6.2211   -7.9539   -1.2686 C.ar      1 <0>        -0.1122
     15 C9         -5.8740   -9.2724   -1.4967 C.ar      1 <0>        -0.0682
     16 C10        -4.6727   -9.7632   -1.0203 C.ar      1 <0>        -0.1088
     17 C11        -3.8169   -8.9346   -0.3190 C.ar      1 <0>        -0.0164
     18 C12        -6.8054  -10.1748   -2.2643 C.3       1 <0>         0.1361
     19 C13        -5.9903  -11.2327   -3.0109 C.3       1 <0>        -0.1518
     20 C14        -7.7652  -10.8631   -1.2918 C.3       1 <0>         0.4271
     21 F1         -8.5105   -9.8957   -0.6092 F         1 <0>        -0.1791
     22 F2         -8.6299  -11.7008   -2.0044 F         1 <0>        -0.1651
     23 F3         -7.0330  -11.6220   -0.3726 F         1 <0>        -0.1722
     24 O3         -7.5533   -9.3996   -3.2033 O.3       1 <0>        -0.5154
     25 C15         0.9031   -3.0922   -1.3424 C.3       1 <0>         0.0175
     26 C16         2.2291   -3.6648   -1.8472 C.3       1 <0>        -0.0788
     27 C17         3.3865   -2.6524   -1.8226 C.3       1 <0>        -0.1075
     28 C18         3.6669   -3.1269   -0.3869 C.3       1 <0>        -0.1435
     29 C19         3.0037   -4.4572   -0.7809 C.3       1 <0>        -0.1524
     30 C20         2.0902   -4.3938   -3.1588 C.ar      1 <0>        -0.0659
     31 C21         1.5940   -3.7479   -4.2808 C.ar      1 <0>        -0.1765
     32 C22         1.4808   -4.4489   -5.4665 C.ar      1 <0>         0.1151
     33 N3          1.8378   -5.7163   -5.5375 N.ar      1 <0>        -0.4711
     34 C23         2.3136   -6.3624   -4.4910 C.ar      1 <0>         0.1157
     35 C24         2.4610   -5.7249   -3.2736 C.ar      1 <0>        -0.1733
     36 H2         -3.6274   -3.7539    0.5641 H         1 <0>         0.1092
     37 H3         -4.1730   -3.2969   -1.0674 H         1 <0>         0.0893
     38 H4         -4.5457   -4.9145   -0.4249 H         1 <0>         0.0856
     39 H5         -1.6597   -2.7284   -1.5430 H         1 <0>         0.1469
     40 H6         -1.3242   -3.2597    0.1226 H         1 <0>         0.1406
     41 H7          1.2733   -5.5888   -0.7337 H         1 <0>         0.1581
     42 H8          0.3133   -4.8567    0.5744 H         1 <0>         0.1403
     43 H9         -0.6904   -6.8120   -1.5463 H         1 <0>         0.0988
     44 H10        -0.4846   -7.1402    0.1947 H         1 <0>         0.1435
     45 H11        -5.6383   -6.0963   -0.3855 H         1 <0>         0.1501
     46 H12        -7.1596   -7.5704   -1.6408 H         1 <0>         0.1401
     47 H13        -4.4017  -10.7934   -1.1982 H         1 <0>         0.1478
     48 H14        -2.8767   -9.3171    0.0500 H         1 <0>         0.1481
     49 H15        -5.4198  -11.8240   -2.2947 H         1 <0>         0.0916
     50 H16        -6.6639  -11.8854   -3.5661 H         1 <0>         0.0910
     51 H17        -5.3064  -10.7423   -3.7037 H         1 <0>         0.0929
     52 H18        -8.0949   -8.7077   -2.7993 H         1 <0>         0.3885
     53 H19         0.5901   -2.2742   -1.9913 H         1 <0>         0.1391
     54 H20         1.0313   -2.7208   -0.3257 H         1 <0>         0.1420
     55 H21         4.1869   -2.8871   -2.5242 H         1 <0>         0.1015
     56 H22         3.0598   -1.6143   -1.8834 H         1 <0>         0.0847
     57 H23         4.7283   -3.2194   -0.1571 H         1 <0>         0.0872
     58 H24         3.1153   -2.5719    0.3719 H         1 <0>         0.0891
     59 H25         2.3680   -4.8761   -0.0008 H         1 <0>         0.0867
     60 H26         3.6995   -5.1853   -1.1978 H         1 <0>         0.1082
     61 H27         1.2993   -2.7102   -4.2288 H         1 <0>         0.1391
     62 H28         1.0952   -3.9530   -6.3450 H         1 <0>         0.1641
     63 H29         2.5953   -7.4006   -4.5874 H         1 <0>         0.1648
     64 H30         2.8559   -6.2580   -2.4214 H         1 <0>         0.1435
     65 H31        -0.2164   -4.5083   -2.2902 H         1 <0>         0.4213
@<TRIPOS>BOND
     1    1    2 1
     2    1   36 1
     3    1   37 1
     4    1   38 1
     5    2    3 1
     6    2    8 1
     7    2    4 1
     8    4    5 1
     9    4   39 1
    10    4   40 1
    11    5    6 1
    12    5   25 1
    13    5   65 1
    14    6    7 1
    15    6   41 1
    16    6   42 1
    17    7    8 1
    18    7   43 1
    19    7   44 1
    20    8    9 1
    21    9   10 2
    22    9   11 2
    23    9   12 1
    24   12   17 ar
    25   12   13 ar
    26   13   14 ar
    27   13   45 1
    28   14   15 ar
    29   14   46 1
    30   15   16 ar
    31   15   18 1
    32   16   17 ar
    33   16   47 1
    34   17   48 1
    35   18   19 1
    36   18   20 1
    37   18   24 1
    38   19   49 1
    39   19   50 1
    40   19   51 1
    41   20   21 1
    42   20   22 1
    43   20   23 1
    44   24   52 1
    45   25   26 1
    46   25   53 1
    47   25   54 1
    48   26   29 1
    49   26   27 1
    50   26   30 1
    51   27   28 1
    52   27   55 1
    53   27   56 1
    54   28   29 1
    55   28   57 1
    56   28   58 1
    57   29   59 1
    58   29   60 1
    59   30   35 ar
    60   30   31 ar
    61   31   32 ar
    62   31   61 1
    63   32   33 ar
    64   32   62 1
    65   33   34 ar
    66   34   35 ar
    67   34   63 1
    68   35   64 1
@<TRIPOS>MOLECULE
CHEMBL491141__5
   65    68     0     0     0
SMALL
USER_CHARGES

@<TRIPOS>ATOM
      1 C1         -1.0369    1.4647   -0.1228 C.3       1 <0>        -0.1905
      2 C2         -0.8577   -0.0486   -0.2598 C.3       1 <0>         0.1599
      3 H1         -1.8258   -0.5175   -0.4355 H         1 <0>         0.0829
      4 C3          0.0815   -0.3517   -1.4321 C.3       1 <0>         0.0401
      5 N1          0.3722   -1.7913   -1.4629 N.3       1 <0>        -0.5438
      6 C4          1.0832   -2.2174   -0.2501 C.3       1 <0>         0.0256
      7 C5          0.1851   -1.9908    0.9707 C.3       1 <0>         0.1214
      8 N2         -0.2632   -0.5892    0.9721 N.pl3     1 <0>        -0.9967
      9 S1         -0.0974    0.3559    2.3217 S.o2      1 <0>         2.6865
     10 O1          0.8396   -0.3004    3.1646 O.2       1 <0>        -0.9501
     11 O2          0.0919    1.6878    1.8640 O.2       1 <0>        -0.9414
     12 C6         -1.6420    0.3294    3.1692 C.ar      1 <0>        -0.6667
     13 C7         -2.6094    1.2712    2.8725 C.ar      1 <0>        -0.0209
     14 C8         -3.8212    1.2505    3.5373 C.ar      1 <0>        -0.1139
     15 C9         -4.0658    0.2876    4.4986 C.ar      1 <0>        -0.0758
     16 C10        -3.0987   -0.6548    4.7946 C.ar      1 <0>        -0.1118
     17 C11        -1.8885   -0.6366    4.1267 C.ar      1 <0>        -0.0179
     18 C12        -5.3864    0.2655    5.2241 C.3       1 <0>         0.1381
     19 C13        -5.7273   -1.1727    5.6192 C.3       1 <0>        -0.1500
     20 C14        -5.2918    1.1312    6.4820 C.3       1 <0>         0.4266
     21 F1         -4.9801    2.4464    6.1207 F         1 <0>        -0.1786
     22 F2         -6.5178    1.1108    7.1556 F         1 <0>        -0.1669
     23 F3         -4.2909    0.6282    7.3201 F         1 <0>        -0.1723
     24 O3         -6.4088    0.7794    4.3680 O.3       1 <0>        -0.5176
     25 C15         1.1287   -2.1499   -2.6700 C.3       1 <0>         0.0640
     26 C16         1.1756   -3.6729   -2.8088 C.3       1 <0>        -0.0653
     27 C17         1.9196   -4.1543   -4.0656 C.3       1 <0>        -0.1200
     28 C18         3.2018   -4.1388   -3.2167 C.3       1 <0>        -0.1404
     29 C19         2.2969   -4.3320   -1.9884 C.3       1 <0>        -0.1381
     30 C20        -0.1721   -4.3197   -2.6180 C.ar      1 <0>         0.0712
     31 C21        -1.3202   -3.5497   -2.5116 C.ar      1 <0>        -0.0970
     32 C22        -2.5387   -4.1780   -2.3372 C.ar      1 <0>         0.1189
     33 N3         -2.6164   -5.4928   -2.2714 N.ar      1 <0>        -0.4487
     34 C23        -1.5457   -6.2564   -2.3687 C.ar      1 <0>         0.1287
     35 C24        -0.2941   -5.6991   -2.5504 C.ar      1 <0>        -0.1341
     36 H2         -0.0592    1.9465   -0.1082 H         1 <0>         0.0969
     37 H3         -1.6144    1.8401   -0.9676 H         1 <0>         0.0763
     38 H4         -1.5647    1.6856    0.8049 H         1 <0>         0.0715
     39 H5         -0.3963   -0.0570   -2.3665 H         1 <0>         0.0950
     40 H6          1.0105    0.2044   -1.3071 H         1 <0>         0.0555
     41 H7          1.3318   -3.2759   -0.3272 H         1 <0>         0.0999
     42 H8          1.9983   -1.6353   -0.1415 H         1 <0>         0.0538
     43 H9         -0.6818   -2.6492    0.9148 H         1 <0>         0.0721
     44 H10         0.7468   -2.1967    1.8818 H         1 <0>         0.1038
     45 H11        -2.4184    2.0235    2.1215 H         1 <0>         0.1506
     46 H12        -4.5767    1.9867    3.3060 H         1 <0>         0.1376
     47 H13        -3.2896   -1.4068    5.5458 H         1 <0>         0.1443
     48 H14        -1.1344   -1.3751    4.3554 H         1 <0>         0.1460
     49 H15        -4.9475   -1.5647    6.2721 H         1 <0>         0.0910
     50 H16        -6.6825   -1.1887    6.1440 H         1 <0>         0.0891
     51 H17        -5.7947   -1.7895    4.7230 H         1 <0>         0.0911
     52 H18        -6.2580    1.6893    4.0775 H         1 <0>         0.3888
     53 H19         0.6414   -1.7201   -3.5452 H         1 <0>         0.0933
     54 H20         2.1438   -1.7608   -2.5916 H         1 <0>         0.0652
     55 H21         1.6245   -5.1513   -4.3927 H         1 <0>         0.0919
     56 H22         1.9239   -3.4257   -4.8764 H         1 <0>         0.0856
     57 H23         3.8630   -4.9837   -3.4091 H         1 <0>         0.0825
     58 H24         3.7223   -3.1812   -3.2293 H         1 <0>         0.0906
     59 H25         2.6058   -3.7469   -1.1222 H         1 <0>         0.0907
     60 H26         2.1049   -5.3776   -1.7476 H         1 <0>         0.0921
     61 H27        -1.2630   -2.4724   -2.5640 H         1 <0>         0.1979
     62 H28        -3.4377   -3.5854   -2.2534 H         1 <0>         0.2051
     63 H29        -1.6486   -7.3299   -2.3098 H         1 <0>         0.2067
     64 H30         0.5784   -6.3300   -2.6344 H         1 <0>         0.1799
     65 H31        -3.4838   -5.9090   -2.1479 H         1 <0>         0.4493
@<TRIPOS>BOND
     1    1    2 1
     2    1   36 1
     3    1   37 1
     4    1   38 1
     5    2    3 1
     6    2    8 1
     7    2    4 1
     8    4    5 1
     9    4   39 1
    10    4   40 1
    11    5    6 1
    12    5   25 1
    13    6    7 1
    14    6   41 1
    15    6   42 1
    16    7    8 1
    17    7   43 1
    18    7   44 1
    19    8    9 1
    20    9   10 2
    21    9   11 2
    22    9   12 1
    23   12   17 ar
    24   12   13 ar
    25   13   14 ar
    26   13   45 1
    27   14   15 ar
    28   14   46 1
    29   15   16 ar
    30   15   18 1
    31   16   17 ar
    32   16   47 1
    33   17   48 1
    34   18   19 1
    35   18   20 1
    36   18   24 1
    37   19   49 1
    38   19   50 1
    39   19   51 1
    40   20   21 1
    41   20   22 1
    42   20   23 1
    43   24   52 1
    44   25   26 1
    45   25   53 1
    46   25   54 1
    47   26   29 1
    48   26   27 1
    49   26   30 1
    50   27   28 1
    51   27   55 1
    52   27   56 1
    53   28   29 1
    54   28   57 1
    55   28   58 1
    56   29   59 1
    57   29   60 1
    58   30   35 ar
    59   30   31 ar
    60   31   32 ar
    61   31   61 1
    62   32   33 ar
    63   32   62 1
    64   33   34 ar
    65   33   65 1
    66   34   35 ar
    67   34   63 1
    68   35   64 1
@<TRIPOS>MOLECULE
CHEMBL376087
   44    46     0     0     0
SMALL
USER_CHARGES

@<TRIPOS>ATOM
      1 C1         -0.0338    1.5828   -0.0206 C.3       1 <0>        -0.1443
      2 C2         -0.0328    0.0465   -0.0212 C.3       1 <0>        -0.0518
      3 C3          0.4867   -0.4645   -1.3528 C.3       1 <0>        -0.1178
      4 C4          1.9852   -0.7636   -1.3558 C.3       1 <0>         0.1397
      5 C5          2.2442   -1.7760   -0.2100 C.3       1 <0>        -0.1241
      6 C6          2.1536   -0.8159    1.0080 C.3       1 <0>        -0.0692
      7 C7          0.6801   -0.4721    1.2126 C.3       1 <0>        -0.0965
      8 C8          2.8978    0.4375    0.4937 C.3       1 <0>         0.1020
      9 N1          2.7268    0.4509   -0.9673 N.am      1 <0>        -0.6043
     10 C9          3.1820    1.4049   -1.8050 C.2       1 <0>         0.5865
     11 O1          3.0805    1.2568   -3.0076 O.2       1 <0>        -0.5305
     12 C10         3.8029    2.6280   -1.2622 C.ar      1 <0>        -0.1698
     13 C11         4.5973    2.5598   -0.1140 C.ar      1 <0>        -0.0310
     14 C12         5.1758    3.7034    0.3905 C.ar      1 <0>        -0.1172
     15 C13         4.9699    4.9269   -0.2421 C.ar      1 <0>         0.2661
     16 C14         4.1786    4.9979   -1.3859 C.ar      1 <0>        -0.1173
     17 C15         3.6027    3.8566   -1.8984 C.ar      1 <0>         0.0036
     18 Cl1         3.9237    6.5253   -2.1705 Cl        1 <0>        -0.0501
     19 N2          5.5557    6.0808    0.2700 N.pl3     1 <0>        -0.8515
     20 Cl2         6.1620    3.6197    1.8167 Cl        1 <0>        -0.0522
     21 C16         2.8063   -1.4065    2.2671 C.3       1 <0>        -0.1319
     22 C17        -1.5152   -0.3902    0.0881 C.3       1 <0>        -0.1472
     23 H1          0.9936    1.9468   -0.0206 H         1 <0>         0.0563
     24 H2         -0.5479    1.9461   -0.9105 H         1 <0>         0.0525
     25 H3         -0.5478    1.9455    0.8695 H         1 <0>         0.0528
     26 H4         -0.0596   -1.3813   -1.6207 H         1 <0>         0.0720
     27 H5          0.2652    0.2756   -2.1341 H         1 <0>         0.0665
     28 H6          2.3267   -1.1528   -2.3230 H         1 <0>         0.0990
     29 H7          1.4701   -2.5408   -0.1720 H         1 <0>         0.0887
     30 H8          3.2356   -2.2213   -0.2906 H         1 <0>         0.0767
     31 H9          0.5978    0.2788    2.0145 H         1 <0>         0.0641
     32 H10         0.1535   -1.3696    1.5764 H         1 <0>         0.0655
     33 H11         2.4918    1.3391    0.9411 H         1 <0>         0.0789
     34 H12         3.9612    0.3575    0.7352 H         1 <0>         0.0681
     35 H13         4.7570    1.6113    0.3772 H         1 <0>         0.1514
     36 H14         2.9931    3.9115   -2.7882 H         1 <0>         0.1486
     37 H15         6.1067    6.0325    1.0668 H         1 <0>         0.4083
     38 H16         5.4129    6.9335   -0.1699 H         1 <0>         0.4086
     39 H17         3.8573   -1.6157    2.0674 H         1 <0>         0.0619
     40 H18         2.7274   -0.6920    3.0865 H         1 <0>         0.0613
     41 H19         2.2974   -2.3308    2.5406 H         1 <0>         0.0646
     42 H20        -2.0728    0.0007   -0.7630 H         1 <0>         0.0543
     43 H21        -1.5741   -1.4786    0.0921 H         1 <0>         0.0544
     44 H22        -1.9418    0.0002    1.0121 H         1 <0>         0.0543
@<TRIPOS>BOND
     1    1    2 1
     2    1   23 1
     3    1   24 1
     4    1   25 1
     5    2    7 1
     6    2    3 1
     7    2   22 1
     8    3    4 1
     9    3   26 1
    10    3   27 1
    11    4    9 1
    12    4    5 1
    13    4   28 1
    14    5    6 1
    15    5   29 1
    16    5   30 1
    17    6    7 1
    18    6    8 1
    19    6   21 1
    20    7   31 1
    21    7   32 1
    22    8    9 1
    23    8   33 1
    24    8   34 1
    25    9   10 am
    26   10   11 2
    27   10   12 1
    28   12   17 ar
    29   12   13 ar
    30   13   14 ar
    31   13   35 1
    32   14   15 ar
    33   14   20 1
    34   15   16 ar
    35   15   19 1
    36   16   17 ar
    37   16   18 1
    38   17   36 1
    39   19   37 1
    40   19   38 1
    41   21   39 1
    42   21   40 1
    43   21   41 1
    44   22   42 1
    45   22   43 1
    46   22   44 1
@<TRIPOS>MOLECULE
CHEMBL376087__1
   44    46     0     0     0
SMALL
USER_CHARGES

@<TRIPOS>ATOM
      1 C1         -0.7776    1.7031   -0.7177 C.3       1 <0>        -0.1472
      2 C2         -0.6208    0.1775   -0.4979 C.3       1 <0>        -0.0514
      3 C3          0.2602   -0.3465   -1.6169 C.3       1 <0>        -0.1179
      4 C4          1.0989   -1.5626   -1.2266 C.3       1 <0>         0.1408
      5 C5          1.9200   -1.1603    0.0257 C.3       1 <0>        -0.1241
      6 C6          0.8028   -1.2366    1.1024 C.3       1 <0>        -0.0688
      7 C7         -0.1008   -0.0208    0.9124 C.3       1 <0>        -0.0966
      8 C8          0.0299   -2.5088    0.6858 C.3       1 <0>         0.1030
      9 N1          0.2062   -2.6440   -0.7683 N.am      1 <0>        -0.6047
     10 C9         -0.3447   -3.6006   -1.5430 C.2       1 <0>         0.5862
     11 O1         -0.1991   -3.5642   -2.7497 O.2       1 <0>        -0.5293
     12 C10        -1.1239   -4.6910   -0.9266 C.ar      1 <0>        -0.1696
     13 C11        -2.2863   -5.1584   -1.5469 C.ar      1 <0>         0.0024
     14 C12        -3.0118   -6.1765   -0.9691 C.ar      1 <0>        -0.1171
     15 C13        -2.5886   -6.7404    0.2319 C.ar      1 <0>         0.2659
     16 C14        -1.4313   -6.2765    0.8523 C.ar      1 <0>        -0.1171
     17 C15        -0.6983   -5.2628    0.2759 C.ar      1 <0>        -0.0240
     18 Cl1        -0.9080   -6.9815    2.3499 Cl        1 <0>        -0.0520
     19 N2         -3.3238   -7.7691    0.8134 N.pl3     1 <0>        -0.8515
     20 Cl2        -4.4557   -6.7572   -1.7384 Cl        1 <0>        -0.0502
     21 C16         1.3701   -1.3390    2.5266 C.3       1 <0>        -0.1315
     22 C17        -2.0289   -0.4245   -0.6251 C.3       1 <0>        -0.1433
     23 H1          0.1900    2.1894   -0.5938 H         1 <0>         0.0544
     24 H2         -1.1512    1.8886   -1.7248 H         1 <0>         0.0543
     25 H3         -1.4820    2.1047    0.0107 H         1 <0>         0.0541
     26 H4         -0.3706   -0.6067   -2.4790 H         1 <0>         0.0679
     27 H5          0.9328    0.4581   -1.9496 H         1 <0>         0.0711
     28 H6          1.7488   -1.8962   -2.0454 H         1 <0>         0.0974
     29 H7          2.7152   -1.8773    0.2269 H         1 <0>         0.0766
     30 H8          2.3144   -0.1489   -0.0659 H         1 <0>         0.0887
     31 H9          0.4504    0.8829    1.2195 H         1 <0>         0.0653
     32 H10        -0.9586   -0.1055    1.5994 H         1 <0>         0.0636
     33 H11         0.4599   -3.3802    1.1875 H         1 <0>         0.0675
     34 H12        -1.0212   -2.4240    0.9433 H         1 <0>         0.0769
     35 H13        -2.6152   -4.7213   -2.4781 H         1 <0>         0.1481
     36 H14         0.2017   -4.9067    0.7550 H         1 <0>         0.1479
     37 H15        -4.1302   -8.0927    0.3823 H         1 <0>         0.4086
     38 H16        -3.0298   -8.1625    1.6499 H         1 <0>         0.4083
     39 H17         1.9723   -0.4564    2.7421 H         1 <0>         0.0643
     40 H18         0.5492   -1.4021    3.2410 H         1 <0>         0.0611
     41 H19         1.9912   -2.2311    2.6070 H         1 <0>         0.0618
     42 H20        -2.4269   -0.2114   -1.6172 H         1 <0>         0.0528
     43 H21        -1.9775   -1.5034   -0.4783 H         1 <0>         0.0551
     44 H22        -2.6812    0.0142    0.1300 H         1 <0>         0.0525
@<TRIPOS>BOND
     1    1    2 1
     2    1   23 1
     3    1   24 1
     4    1   25 1
     5    2    7 1
     6    2    3 1
     7    2   22 1
     8    3    4 1
     9    3   26 1
    10    3   27 1
    11    4    9 1
    12    4    5 1
    13    4   28 1
    14    5    6 1
    15    5   29 1
    16    5   30 1
    17    6    7 1
    18    6    8 1
    19    6   21 1
    20    7   31 1
    21    7   32 1
    22    8    9 1
    23    8   33 1
    24    8   34 1
    25    9   10 am
    26   10   11 2
    27   10   12 1
    28   12   17 ar
    29   12   13 ar
    30   13   14 ar
    31   13   35 1
    32   14   15 ar
    33   14   20 1
    34   15   16 ar
    35   15   19 1
    36   16   17 ar
    37   16   18 1
    38   17   36 1
    39   19   37 1
    40   19   38 1
    41   21   39 1
    42   21   40 1
    43   21   41 1
    44   22   42 1
    45   22   43 1
    46   22   44 1
@<TRIPOS>MOLECULE
CHEMBL491146
   67    70     0     0     0
SMALL
USER_CHARGES

@<TRIPOS>ATOM
      1 C1         -0.7129    1.4505    0.0897 C.3       1 <0>        -0.1849
      2 C2         -0.4487   -0.0542    0.0049 C.3       1 <0>         0.1557
      3 H1         -1.3833   -0.5983    0.1410 H         1 <0>         0.0893
      4 C3          0.1510   -0.3952   -1.3634 C.3       1 <0>         0.0410
      5 N1          0.5450   -1.8102   -1.3828 N.3       1 <0>        -0.5306
      6 C4          1.5985   -2.0836   -0.3963 C.3       1 <0>         0.0183
      7 C5          1.0582   -1.8118    1.0117 C.3       1 <0>         0.1199
      8 N2          0.5085   -0.4473    1.0501 N.pl3     1 <0>        -0.9926
      9 S1          0.9598    0.6189    2.2340 S.o2      1 <0>         2.6881
     10 O1          2.1464    0.0991    2.8180 O.2       1 <0>        -0.9551
     11 O2          0.8999    1.9160    1.6568 O.2       1 <0>        -0.9470
     12 C6         -0.2814    0.5660    3.4835 C.ar      1 <0>        -0.6645
     13 C7         -1.3703    1.4146    3.4124 C.ar      1 <0>        -0.0201
     14 C8         -2.3441    1.3731    4.3927 C.ar      1 <0>        -0.1147
     15 C9         -2.2293    0.4826    5.4437 C.ar      1 <0>        -0.0796
     16 C10        -1.1408   -0.3667    5.5143 C.ar      1 <0>        -0.1120
     17 C11        -0.1692   -0.3281    4.5318 C.ar      1 <0>        -0.0163
     18 C12        -3.2904    0.4380    6.5129 C.3       1 <0>         0.1394
     19 C13        -2.6599    0.0100    7.8396 C.3       1 <0>        -0.1509
     20 C14        -4.3732   -0.5671    6.1151 C.3       1 <0>         0.4275
     21 F1         -3.8018   -1.8360    5.9720 F         1 <0>        -0.1727
     22 F2         -5.3583   -0.6085    7.1077 F         1 <0>        -0.1694
     23 F3         -4.9497   -0.1757    4.9020 F         1 <0>        -0.1791
     24 O3         -3.8740    1.7341    6.6591 O.3       1 <0>        -0.5174
     25 C15         0.9651   -2.2213   -2.7291 C.3       1 <0>         0.0594
     26 C16         0.9757   -3.7488   -2.8159 C.3       1 <0>        -0.0108
     27 C17         2.1667   -4.3136   -2.0221 C.3       1 <0>        -0.1276
     28 C18         3.0446   -5.0818   -3.0316 C.3       1 <0>        -0.1261
     29 C19         2.6947   -4.4462   -4.4000 C.3       1 <0>        -0.1254
     30 C20         1.1713   -4.1935   -4.2801 C.3       1 <0>        -0.1119
     31 C21        -0.3165   -4.3051   -2.2757 C.ar      1 <0>        -0.1186
     32 C22        -0.5338   -5.6744   -2.2471 C.ar      1 <0>        -0.0759
     33 C23        -1.7373   -6.1411   -1.7414 C.ar      1 <0>        -0.1819
     34 C24        -2.6740   -5.2324   -1.2858 C.ar      1 <0>         0.0898
     35 N3         -2.4332   -3.9367   -1.3287 N.ar      1 <0>        -0.4920
     36 C25        -1.2974   -3.4576   -1.7973 C.ar      1 <0>         0.1169
     37 H2          0.1781    1.9941   -0.2243 H         1 <0>         0.0924
     38 H3         -1.5461    1.7104   -0.5633 H         1 <0>         0.0744
     39 H4         -0.9591    1.7188    1.1171 H         1 <0>         0.0688
     40 H5         -0.5908   -0.2135   -2.1411 H         1 <0>         0.0923
     41 H6          1.0266    0.2287   -1.5425 H         1 <0>         0.0486
     42 H7          1.9066   -3.1264   -0.4726 H         1 <0>         0.1147
     43 H8          2.4540   -1.4362   -0.5888 H         1 <0>         0.0452
     44 H9          0.2701   -2.5275    1.2460 H         1 <0>         0.0781
     45 H10         1.8662   -1.9019    1.7377 H         1 <0>         0.0995
     46 H11        -1.4601    2.1103    2.5913 H         1 <0>         0.1505
     47 H12        -3.1945    2.0366    4.3375 H         1 <0>         0.1359
     48 H13        -1.0509   -1.0622    6.3357 H         1 <0>         0.1430
     49 H14         0.6793   -0.9942    4.5849 H         1 <0>         0.1462
     50 H15        -1.8884    0.7260    8.1230 H         1 <0>         0.0938
     51 H16        -3.4274   -0.0223    8.6130 H         1 <0>         0.0870
     52 H17        -2.2147   -0.9787    7.7281 H         1 <0>         0.0907
     53 H18        -4.2932    2.0697    5.8549 H         1 <0>         0.3878
     54 H19         0.2684   -1.8204   -3.4654 H         1 <0>         0.0821
     55 H20         1.9659   -1.8390   -2.9301 H         1 <0>         0.0502
     56 H21         2.7372   -3.4995   -1.5750 H         1 <0>         0.0814
     57 H22         1.8106   -4.9908   -1.2458 H         1 <0>         0.0705
     58 H23         4.1010   -4.9399   -2.8039 H         1 <0>         0.0668
     59 H24         2.7916   -6.1421   -3.0276 H         1 <0>         0.0652
     60 H25         3.2321   -3.5081   -4.5389 H         1 <0>         0.0675
     61 H26         2.9085   -5.1392   -5.2138 H         1 <0>         0.0681
     62 H27         0.6158   -5.1103   -4.4778 H         1 <0>         0.0720
     63 H28         0.8607   -3.4033   -4.9636 H         1 <0>         0.0698
     64 H29         0.2166   -6.3610   -2.6105 H         1 <0>         0.1262
     65 H30        -1.9405   -7.2011   -1.7043 H         1 <0>         0.1280
     66 H31        -3.6140   -5.5878   -0.8903 H         1 <0>         0.1473
     67 H32        -1.1339   -2.3901   -1.8116 H         1 <0>         0.1883
@<TRIPOS>BOND
     1    1    2 1
     2    1   37 1
     3    1   38 1
     4    1   39 1
     5    2    3 1
     6    2    8 1
     7    2    4 1
     8    4    5 1
     9    4   40 1
    10    4   41 1
    11    5    6 1
    12    5   25 1
    13    6    7 1
    14    6   42 1
    15    6   43 1
    16    7    8 1
    17    7   44 1
    18    7   45 1
    19    8    9 1
    20    9   10 2
    21    9   11 2
    22    9   12 1
    23   12   17 ar
    24   12   13 ar
    25   13   14 ar
    26   13   46 1
    27   14   15 ar
    28   14   47 1
    29   15   16 ar
    30   15   18 1
    31   16   17 ar
    32   16   48 1
    33   17   49 1
    34   18   19 1
    35   18   20 1
    36   18   24 1
    37   19   50 1
    38   19   51 1
    39   19   52 1
    40   20   21 1
    41   20   22 1
    42   20   23 1
    43   24   53 1
    44   25   26 1
    45   25   54 1
    46   25   55 1
    47   26   30 1
    48   26   27 1
    49   26   31 1
    50   27   28 1
    51   27   56 1
    52   27   57 1
    53   28   29 1
    54   28   58 1
    55   28   59 1
    56   29   30 1
    57   29   60 1
    58   29   61 1
    59   30   62 1
    60   30   63 1
    61   31   36 ar
    62   31   32 ar
    63   32   33 ar
    64   32   64 1
    65   33   34 ar
    66   33   65 1
    67   34   35 ar
    68   34   66 1
    69   35   36 ar
    70   36   67 1
@<TRIPOS>MOLECULE
CHEMBL491146__1
   68    71     0     0     0
SMALL
USER_CHARGES

@<TRIPOS>ATOM
      1 C1          0.7405   -0.9551    2.9744 C.3       1 <0>        -0.1939
      2 C2          0.6586   -2.0944    1.9564 C.3       1 <0>         0.1336
      3 H1         -0.3782   -2.4117    1.8445 H         1 <0>         0.1034
      4 C3          1.1998   -1.6171    0.6047 C.3       1 <0>        -0.0202
      5 N1          1.2468   -2.7487   -0.3298 N.4       1 <0>        -0.3843
      6 C4          2.2063   -3.7523    0.1478 C.3       1 <0>        -0.0406
      7 C5          1.7150   -4.3354    1.4769 C.3       1 <0>         0.0911
      8 N2          1.4755   -3.2281    2.4165 N.pl3     1 <0>        -1.0092
      9 S1          2.1125   -3.2538    3.9448 S.o2      1 <0>         2.6907
     10 O1          3.1227   -4.2532    3.9471 O.2       1 <0>        -0.9388
     11 O2          2.3767   -1.9028    4.2975 O.2       1 <0>        -0.9329
     12 C6          0.8433   -3.8182    5.0288 C.ar      1 <0>        -0.6722
     13 C7         -0.0167   -2.9104    5.6180 C.ar      1 <0>        -0.0217
     14 C8         -1.0125   -3.3533    6.4684 C.ar      1 <0>        -0.1121
     15 C9         -1.1486   -4.7040    6.7293 C.ar      1 <0>        -0.0684
     16 C10        -0.2891   -5.6119    6.1394 C.ar      1 <0>        -0.1090
     17 C11         0.7039   -5.1694    5.2856 C.ar      1 <0>        -0.0166
     18 C12        -2.2335   -5.1867    7.6572 C.3       1 <0>         0.1362
     19 C13        -1.7727   -6.4658    8.3589 C.3       1 <0>        -0.1534
     20 C14        -3.5021   -5.4754    6.8520 C.3       1 <0>         0.4283
     21 F1         -3.2335   -6.4608    5.8960 F         1 <0>        -0.1743
     22 F2         -4.5093   -5.9235    7.7134 F         1 <0>        -0.1645
     23 F3         -3.9234   -4.3058    6.2104 F         1 <0>        -0.1809
     24 O3         -2.5079   -4.1801    8.6336 O.3       1 <0>        -0.5134
     25 C15         1.6608   -2.2698   -1.6554 C.3       1 <0>        -0.0017
     26 C16         1.5479   -3.4111   -2.6681 C.3       1 <0>        -0.0335
     27 C17         2.7374   -4.3746   -2.5113 C.3       1 <0>        -0.1511
     28 C18         3.4906   -4.3677   -3.8576 C.3       1 <0>        -0.1247
     29 C19         3.1091   -3.0105   -4.4993 C.3       1 <0>        -0.1290
     30 C20         1.6198   -2.8523   -4.1042 C.3       1 <0>        -0.1055
     31 C21         0.2515   -4.1528   -2.4671 C.ar      1 <0>        -0.1703
     32 C22         0.2234   -5.5388   -2.4986 C.ar      1 <0>        -0.0685
     33 C23        -0.9917   -6.1786   -2.3087 C.ar      1 <0>        -0.1519
     34 C24        -2.1268   -5.4191   -2.0959 C.ar      1 <0>         0.1134
     35 N3         -2.0626   -4.1023   -2.0728 N.ar      1 <0>        -0.4646
     36 C25        -0.9232   -3.4604   -2.2434 C.ar      1 <0>         0.0754
     37 H2          1.7651   -0.5867    3.0257 H         1 <0>         0.1126
     38 H3          0.0783   -0.1456    2.6677 H         1 <0>         0.0904
     39 H4          0.4366   -1.3215    3.9549 H         1 <0>         0.0839
     40 H5          0.5460   -0.8422    0.2046 H         1 <0>         0.1469
     41 H6          2.2035   -1.2133    0.7372 H         1 <0>         0.1412
     42 H7          2.2942   -4.5507   -0.5890 H         1 <0>         0.1569
     43 H8          3.1796   -3.2838    0.2941 H         1 <0>         0.1405
     44 H9          0.7860   -4.8823    1.3158 H         1 <0>         0.0964
     45 H10         2.4718   -5.0053    1.8850 H         1 <0>         0.1436
     46 H11         0.0895   -1.8552    5.4142 H         1 <0>         0.1508
     47 H12        -1.6840   -2.6440    6.9293 H         1 <0>         0.1402
     48 H13        -0.3952   -6.6671    6.3434 H         1 <0>         0.1476
     49 H14         1.3731   -5.8790    4.8218 H         1 <0>         0.1478
     50 H15        -0.8689   -6.2601    8.9325 H         1 <0>         0.0955
     51 H16        -2.5574   -6.8149    9.0300 H         1 <0>         0.0910
     52 H17        -1.5634   -7.2336    7.6141 H         1 <0>         0.0910
     53 H18        -2.8056   -3.3397    8.2592 H         1 <0>         0.3880
     54 H19         1.0156   -1.4466   -1.9622 H         1 <0>         0.1375
     55 H20         2.6938   -1.9246   -1.6107 H         1 <0>         0.1429
     56 H21         3.3951   -4.0291   -1.7137 H         1 <0>         0.0818
     57 H22         2.3773   -5.3794   -2.2901 H         1 <0>         0.0918
     58 H23         4.5666   -4.4227   -3.6930 H         1 <0>         0.0790
     59 H24         3.1570   -5.1938   -4.4856 H         1 <0>         0.0753
     60 H25         3.7081   -2.2026   -4.0792 H         1 <0>         0.0736
     61 H26         3.2190   -3.0512   -5.5830 H         1 <0>         0.0811
     62 H27         0.9841   -3.4337   -4.7721 H         1 <0>         0.0864
     63 H28         1.3306   -1.8015   -4.1196 H         1 <0>         0.0810
     64 H29         1.1266   -6.1064   -2.6673 H         1 <0>         0.1511
     65 H30        -1.0507   -7.2568   -2.3273 H         1 <0>         0.1488
     66 H31        -3.0772   -5.9098   -1.9471 H         1 <0>         0.1679
     67 H32        -0.9089   -2.3809   -2.2126 H         1 <0>         0.1543
     68 H33         0.3307   -3.1662   -0.3968 H         1 <0>         0.4183
@<TRIPOS>BOND
     1    1    2 1
     2    1   37 1
     3    1   38 1
     4    1   39 1
     5    2    3 1
     6    2    8 1
     7    2    4 1
     8    4    5 1
     9    4   40 1
    10    4   41 1
    11    5    6 1
    12    5   25 1
    13    5   68 1
    14    6    7 1
    15    6   42 1
    16    6   43 1
    17    7    8 1
    18    7   44 1
    19    7   45 1
    20    8    9 1
    21    9   10 2
    22    9   11 2
    23    9   12 1
    24   12   17 ar
    25   12   13 ar
    26   13   14 ar
    27   13   46 1
    28   14   15 ar
    29   14   47 1
    30   15   16 ar
    31   15   18 1
    32   16   17 ar
    33   16   48 1
    34   17   49 1
    35   18   19 1
    36   18   20 1
    37   18   24 1
    38   19   50 1
    39   19   51 1
    40   19   52 1
    41   20   21 1
    42   20   22 1
    43   20   23 1
    44   24   53 1
    45   25   26 1
    46   25   54 1
    47   25   55 1
    48   26   30 1
    49   26   27 1
    50   26   31 1
    51   27   28 1
    52   27   56 1
    53   27   57 1
    54   28   29 1
    55   28   58 1
    56   28   59 1
    57   29   30 1
    58   29   60 1
    59   29   61 1
    60   30   62 1
    61   30   63 1
    62   31   36 ar
    63   31   32 ar
    64   32   33 ar
    65   32   64 1
    66   33   34 ar
    67   33   65 1
    68   34   35 ar
    69   34   66 1
    70   35   36 ar
    71   36   67 1
@<TRIPOS>MOLECULE
CHEMBL491146__2
   67    70     0     0     0
SMALL
USER_CHARGES

@<TRIPOS>ATOM
      1 C1         -0.7129    1.4505    0.0897 C.3       1 <0>        -0.1851
      2 C2         -0.4487   -0.0542    0.0049 C.3       1 <0>         0.1560
      3 H1         -1.3833   -0.5983    0.1410 H         1 <0>         0.0893
      4 C3          0.1510   -0.3952   -1.3634 C.3       1 <0>         0.0407
      5 N1          0.5450   -1.8102   -1.3828 N.3       1 <0>        -0.5304
      6 C4          1.5985   -2.0836   -0.3963 C.3       1 <0>         0.0181
      7 C5          1.0582   -1.8118    1.0117 C.3       1 <0>         0.1201
      8 N2          0.5085   -0.4473    1.0501 N.pl3     1 <0>        -0.9926
      9 S1          0.9598    0.6189    2.2340 S.o2      1 <0>         2.6879
     10 O1          2.1464    0.0991    2.8180 O.2       1 <0>        -0.9549
     11 O2          0.8999    1.9160    1.6568 O.2       1 <0>        -0.9470
     12 C6         -0.2814    0.5660    3.4835 C.ar      1 <0>        -0.6644
     13 C7         -1.3703    1.4146    3.4124 C.ar      1 <0>        -0.0201
     14 C8         -2.3441    1.3731    4.3927 C.ar      1 <0>        -0.1146
     15 C9         -2.2293    0.4826    5.4437 C.ar      1 <0>        -0.0796
     16 C10        -1.1408   -0.3667    5.5143 C.ar      1 <0>        -0.1120
     17 C11        -0.1692   -0.3281    4.5318 C.ar      1 <0>        -0.0163
     18 C12        -3.2904    0.4380    6.5129 C.3       1 <0>         0.1396
     19 C13        -3.3836   -0.9800    7.0800 C.3       1 <0>        -0.1504
     20 C14        -2.9257    1.4128    7.6343 C.3       1 <0>         0.4269
     21 F1         -2.8404    2.7093    7.1158 F         1 <0>        -0.1793
     22 F2         -3.9108    1.3714    8.6269 F         1 <0>        -0.1692
     23 F3         -1.6925    1.0490    8.1858 F         1 <0>        -0.1727
     24 O3         -4.5500    0.8095    5.9497 O.3       1 <0>        -0.5171
     25 C15         0.9651   -2.2213   -2.7291 C.3       1 <0>         0.0593
     26 C16         0.9757   -3.7488   -2.8159 C.3       1 <0>        -0.0107
     27 C17         2.1667   -4.3136   -2.0221 C.3       1 <0>        -0.1275
     28 C18         3.0446   -5.0818   -3.0316 C.3       1 <0>        -0.1261
     29 C19         2.6947   -4.4462   -4.4000 C.3       1 <0>        -0.1255
     30 C20         1.1713   -4.1935   -4.2801 C.3       1 <0>        -0.1120
     31 C21        -0.3165   -4.3051   -2.2757 C.ar      1 <0>        -0.1185
     32 C22        -0.5338   -5.6744   -2.2471 C.ar      1 <0>        -0.0759
     33 C23        -1.7373   -6.1411   -1.7414 C.ar      1 <0>        -0.1820
     34 C24        -2.6740   -5.2324   -1.2858 C.ar      1 <0>         0.0896
     35 N3         -2.4332   -3.9367   -1.3287 N.ar      1 <0>        -0.4920
     36 C25        -1.2974   -3.4576   -1.7973 C.ar      1 <0>         0.1169
     37 H2          0.1781    1.9941   -0.2243 H         1 <0>         0.0923
     38 H3         -1.5461    1.7104   -0.5633 H         1 <0>         0.0744
     39 H4         -0.9591    1.7188    1.1171 H         1 <0>         0.0689
     40 H5         -0.5908   -0.2135   -2.1411 H         1 <0>         0.0923
     41 H6          1.0266    0.2287   -1.5425 H         1 <0>         0.0485
     42 H7          1.9066   -3.1264   -0.4726 H         1 <0>         0.1147
     43 H8          2.4540   -1.4362   -0.5888 H         1 <0>         0.0451
     44 H9          0.2701   -2.5275    1.2460 H         1 <0>         0.0780
     45 H10         1.8662   -1.9019    1.7377 H         1 <0>         0.0994
     46 H11        -1.4601    2.1103    2.5913 H         1 <0>         0.1504
     47 H12        -3.1945    2.0366    4.3375 H         1 <0>         0.1359
     48 H13        -1.0509   -1.0622    6.3357 H         1 <0>         0.1431
     49 H14         0.6793   -0.9942    4.5849 H         1 <0>         0.1462
     50 H15        -2.4228   -1.2634    7.5097 H         1 <0>         0.0905
     51 H16        -4.1511   -1.0122    7.8533 H         1 <0>         0.0869
     52 H17        -3.6434   -1.6745    6.2811 H         1 <0>         0.0938
     53 H18        -4.5643    1.6990    5.5704 H         1 <0>         0.3878
     54 H19         0.2684   -1.8204   -3.4654 H         1 <0>         0.0821
     55 H20         1.9659   -1.8390   -2.9301 H         1 <0>         0.0502
     56 H21         2.7372   -3.4995   -1.5750 H         1 <0>         0.0814
     57 H22         1.8106   -4.9908   -1.2458 H         1 <0>         0.0705
     58 H23         4.1010   -4.9399   -2.8039 H         1 <0>         0.0668
     59 H24         2.7916   -6.1421   -3.0276 H         1 <0>         0.0652
     60 H25         3.2321   -3.5081   -4.5389 H         1 <0>         0.0675
     61 H26         2.9085   -5.1392   -5.2138 H         1 <0>         0.0681
     62 H27         0.6158   -5.1103   -4.4778 H         1 <0>         0.0721
     63 H28         0.8607   -3.4033   -4.9636 H         1 <0>         0.0698
     64 H29         0.2166   -6.3610   -2.6105 H         1 <0>         0.1261
     65 H30        -1.9405   -7.2011   -1.7043 H         1 <0>         0.1280
     66 H31        -3.6140   -5.5878   -0.8903 H         1 <0>         0.1473
     67 H32        -1.1339   -2.3901   -1.8116 H         1 <0>         0.1884
@<TRIPOS>BOND
     1    1    2 1
     2    1   37 1
     3    1   38 1
     4    1   39 1
     5    2    3 1
     6    2    8 1
     7    2    4 1
     8    4    5 1
     9    4   40 1
    10    4   41 1
    11    5    6 1
    12    5   25 1
    13    6    7 1
    14    6   42 1
    15    6   43 1
    16    7    8 1
    17    7   44 1
    18    7   45 1
    19    8    9 1
    20    9   10 2
    21    9   11 2
    22    9   12 1
    23   12   17 ar
    24   12   13 ar
    25   13   14 ar
    26   13   46 1
    27   14   15 ar
    28   14   47 1
    29   15   16 ar
    30   15   18 1
    31   16   17 ar
    32   16   48 1
    33   17   49 1
    34   18   19 1
    35   18   20 1
    36   18   24 1
    37   19   50 1
    38   19   51 1
    39   19   52 1
    40   20   21 1
    41   20   22 1
    42   20   23 1
    43   24   53 1
    44   25   26 1
    45   25   54 1
    46   25   55 1
    47   26   30 1
    48   26   27 1
    49   26   31 1
    50   27   28 1
    51   27   56 1
    52   27   57 1
    53   28   29 1
    54   28   58 1
    55   28   59 1
    56   29   30 1
    57   29   60 1
    58   29   61 1
    59   30   62 1
    60   30   63 1
    61   31   36 ar
    62   31   32 ar
    63   32   33 ar
    64   32   64 1
    65   33   34 ar
    66   33   65 1
    67   34   35 ar
    68   34   66 1
    69   35   36 ar
    70   36   67 1
@<TRIPOS>MOLECULE
CHEMBL491146__3
   68    71     0     0     0
SMALL
USER_CHARGES

@<TRIPOS>ATOM
      1 C1          0.7405   -0.9551    2.9744 C.3       1 <0>        -0.1941
      2 C2          0.6586   -2.0944    1.9564 C.3       1 <0>         0.1340
      3 H1         -0.3782   -2.4117    1.8445 H         1 <0>         0.1034
      4 C3          1.1998   -1.6171    0.6047 C.3       1 <0>        -0.0204
      5 N1          1.2468   -2.7487   -0.3298 N.4       1 <0>        -0.3841
      6 C4          2.2063   -3.7523    0.1478 C.3       1 <0>        -0.0408
      7 C5          1.7150   -4.3354    1.4769 C.3       1 <0>         0.0913
      8 N2          1.4755   -3.2281    2.4165 N.pl3     1 <0>        -1.0091
      9 S1          2.1125   -3.2538    3.9448 S.o2      1 <0>         2.6903
     10 O1          3.1227   -4.2532    3.9471 O.2       1 <0>        -0.9386
     11 O2          2.3767   -1.9028    4.2975 O.2       1 <0>        -0.9329
     12 C6          0.8433   -3.8182    5.0288 C.ar      1 <0>        -0.6722
     13 C7         -0.0167   -2.9104    5.6180 C.ar      1 <0>        -0.0217
     14 C8         -1.0125   -3.3533    6.4684 C.ar      1 <0>        -0.1121
     15 C9         -1.1486   -4.7040    6.7293 C.ar      1 <0>        -0.0684
     16 C10        -0.2891   -5.6119    6.1394 C.ar      1 <0>        -0.1090
     17 C11         0.7039   -5.1694    5.2856 C.ar      1 <0>        -0.0166
     18 C12        -2.2335   -5.1867    7.6572 C.3       1 <0>         0.1362
     19 C13        -2.6741   -6.5911    7.2397 C.3       1 <0>        -0.1516
     20 C14        -1.6993   -5.2247    9.0904 C.3       1 <0>         0.4272
     21 F1         -1.2964   -3.9405    9.4721 F         1 <0>        -0.1790
     22 F2         -2.7065   -5.6728    9.9517 F         1 <0>        -0.1651
     23 F3         -0.6065   -6.0955    9.1578 F         1 <0>        -0.1723
     24 O3         -3.3498   -4.2971    7.5883 O.3       1 <0>        -0.5154
     25 C15         1.6608   -2.2698   -1.6554 C.3       1 <0>        -0.0017
     26 C16         1.5479   -3.4111   -2.6681 C.3       1 <0>        -0.0336
     27 C17         2.7374   -4.3746   -2.5113 C.3       1 <0>        -0.1511
     28 C18         3.4906   -4.3677   -3.8576 C.3       1 <0>        -0.1247
     29 C19         3.1091   -3.0105   -4.4993 C.3       1 <0>        -0.1291
     30 C20         1.6198   -2.8523   -4.1042 C.3       1 <0>        -0.1055
     31 C21         0.2515   -4.1528   -2.4671 C.ar      1 <0>        -0.1700
     32 C22         0.2234   -5.5388   -2.4986 C.ar      1 <0>        -0.0686
     33 C23        -0.9917   -6.1786   -2.3087 C.ar      1 <0>        -0.1519
     34 C24        -2.1268   -5.4191   -2.0959 C.ar      1 <0>         0.1132
     35 N3         -2.0626   -4.1023   -2.0728 N.ar      1 <0>        -0.4646
     36 C25        -0.9232   -3.4604   -2.2434 C.ar      1 <0>         0.0755
     37 H2          1.7651   -0.5867    3.0257 H         1 <0>         0.1125
     38 H3          0.0783   -0.1456    2.6677 H         1 <0>         0.0903
     39 H4          0.4366   -1.3215    3.9549 H         1 <0>         0.0840
     40 H5          0.5460   -0.8422    0.2046 H         1 <0>         0.1469
     41 H6          2.2035   -1.2133    0.7372 H         1 <0>         0.1411
     42 H7          2.2942   -4.5507   -0.5890 H         1 <0>         0.1570
     43 H8          3.1796   -3.2838    0.2941 H         1 <0>         0.1405
     44 H9          0.7860   -4.8823    1.3158 H         1 <0>         0.0963
     45 H10         2.4718   -5.0053    1.8850 H         1 <0>         0.1435
     46 H11         0.0895   -1.8552    5.4142 H         1 <0>         0.1508
     47 H12        -1.6840   -2.6440    6.9293 H         1 <0>         0.1402
     48 H13        -0.3952   -6.6671    6.3434 H         1 <0>         0.1476
     49 H14         1.3731   -5.8790    4.8218 H         1 <0>         0.1478
     50 H15        -1.8226   -7.2696    7.2922 H         1 <0>         0.0914
     51 H16        -3.4588   -6.9403    7.9108 H         1 <0>         0.0909
     52 H17        -3.0547   -6.5641    6.2187 H         1 <0>         0.0928
     53 H18        -3.1432   -3.3866    7.8401 H         1 <0>         0.3886
     54 H19         1.0156   -1.4466   -1.9622 H         1 <0>         0.1375
     55 H20         2.6938   -1.9246   -1.6107 H         1 <0>         0.1429
     56 H21         3.3951   -4.0291   -1.7137 H         1 <0>         0.0818
     57 H22         2.3773   -5.3794   -2.2901 H         1 <0>         0.0918
     58 H23         4.5666   -4.4227   -3.6930 H         1 <0>         0.0790
     59 H24         3.1570   -5.1938   -4.4856 H         1 <0>         0.0753
     60 H25         3.7081   -2.2026   -4.0792 H         1 <0>         0.0737
     61 H26         3.2190   -3.0512   -5.5830 H         1 <0>         0.0811
     62 H27         0.9841   -3.4337   -4.7721 H         1 <0>         0.0864
     63 H28         1.3306   -1.8015   -4.1196 H         1 <0>         0.0810
     64 H29         1.1266   -6.1064   -2.6673 H         1 <0>         0.1511
     65 H30        -1.0507   -7.2568   -2.3273 H         1 <0>         0.1487
     66 H31        -3.0772   -5.9098   -1.9471 H         1 <0>         0.1679
     67 H32        -0.9089   -2.3809   -2.2126 H         1 <0>         0.1543
     68 H33         0.3307   -3.1662   -0.3968 H         1 <0>         0.4183
@<TRIPOS>BOND
     1    1    2 1
     2    1   37 1
     3    1   38 1
     4    1   39 1
     5    2    3 1
     6    2    8 1
     7    2    4 1
     8    4    5 1
     9    4   40 1
    10    4   41 1
    11    5    6 1
    12    5   25 1
    13    5   68 1
    14    6    7 1
    15    6   42 1
    16    6   43 1
    17    7    8 1
    18    7   44 1
    19    7   45 1
    20    8    9 1
    21    9   10 2
    22    9   11 2
    23    9   12 1
    24   12   17 ar
    25   12   13 ar
    26   13   14 ar
    27   13   46 1
    28   14   15 ar
    29   14   47 1
    30   15   16 ar
    31   15   18 1
    32   16   17 ar
    33   16   48 1
    34   17   49 1
    35   18   19 1
    36   18   20 1
    37   18   24 1
    38   19   50 1
    39   19   51 1
    40   19   52 1
    41   20   21 1
    42   20   22 1
    43   20   23 1
    44   24   53 1
    45   25   26 1
    46   25   54 1
    47   25   55 1
    48   26   30 1
    49   26   27 1
    50   26   31 1
    51   27   28 1
    52   27   56 1
    53   27   57 1
    54   28   29 1
    55   28   58 1
    56   28   59 1
    57   29   30 1
    58   29   60 1
    59   29   61 1
    60   30   62 1
    61   30   63 1
    62   31   36 ar
    63   31   32 ar
    64   32   33 ar
    65   32   64 1
    66   33   34 ar
    67   33   65 1
    68   34   35 ar
    69   34   66 1
    70   35   36 ar
    71   36   67 1
@<TRIPOS>MOLECULE
CHEMBL385584
   55    57     0     0     0
SMALL
USER_CHARGES

@<TRIPOS>ATOM
      1 C1          0.0089    1.5304   -0.0053 C.3       1 <0>        -0.1403
      2 C2          0.0260    0.0005   -0.0125 C.3       1 <0>        -0.0860
      3 C3          0.8300   -0.5261   -1.2238 C.3       1 <0>        -0.0965
      4 C4          1.5233   -1.7699   -0.6250 C.3       1 <0>         0.1070
      5 N1          1.6129   -1.5121    0.8170 N.am      1 <0>        -0.6214
      6 C5          0.7785   -0.5262    1.1895 C.2       1 <0>         0.5255
      7 O1          0.6483   -0.1181    2.3242 O.2       1 <0>        -0.5141
      8 C6          2.4980   -2.2361    1.7328 C.3       1 <0>         0.1703
      9 C7          1.6378   -3.0164    2.7222 C.3       1 <0>        -0.1262
     10 C8          2.4095   -4.2134    3.2203 C.3       1 <0>        -0.1293
     11 C9          3.1724   -3.8524    4.5079 C.3       1 <0>         0.1258
     12 N2          3.7720   -2.5054    4.4401 N.am      1 <0>        -0.6210
     13 C10         4.4379   -2.0051    3.2583 C.3       1 <0>         0.1173
     14 C11         3.4149   -1.2703    2.3573 C.3       1 <0>        -0.1616
     15 C12         3.6953   -1.7087    5.5245 C.2       1 <0>         0.7064
     16 O2          3.0654   -2.0689    6.5002 O.2       1 <0>        -0.5912
     17 N3          4.3168   -0.5128    5.5274 N.am      1 <0>        -0.8670
     18 C13         1.8607    0.5054   -1.6871 C.3       1 <0>         0.0751
     19 O3          2.5030    0.0369   -2.8744 O.3       1 <0>        -0.2975
     20 C14         3.4506    0.8387   -3.4188 C.ar      1 <0>         0.3516
     21 C15         4.1054    0.4364   -4.5787 C.ar      1 <0>        -0.1881
     22 C16         5.0688    1.2568   -5.1287 C.ar      1 <0>         0.0081
     23 C17         5.3512    2.4738   -4.4903 C.ar      1 <0>        -0.1200
     24 C18         4.6514    2.8071   -3.3298 C.ar      1 <0>         0.1998
     25 N4          3.7358    1.9957   -2.8422 N.ar      1 <0>        -0.5382
     26 C19         6.3427    3.3602   -5.0211 C.1       1 <0>         0.2560
     27 N5          7.1293    4.0634   -5.4421 N.1       1 <0>        -0.4060
     28 C20        -1.4016   -0.5496   -0.0337 C.3       1 <0>        -0.1315
     29 H1          1.0324    1.9052   -0.0097 H         1 <0>         0.0634
     30 H2         -0.5143    1.8920   -0.8906 H         1 <0>         0.0699
     31 H3         -0.5037    1.8838    0.8894 H         1 <0>         0.0715
     32 H4          0.1654   -0.8056   -2.0413 H         1 <0>         0.1123
     33 H5          0.9253   -2.6618   -0.8123 H         1 <0>         0.0774
     34 H6          2.5202   -1.8872   -1.0499 H         1 <0>         0.0839
     35 H7          3.0866   -2.9474    1.1533 H         1 <0>         0.0826
     36 H8          1.3789   -2.3744    3.5642 H         1 <0>         0.0793
     37 H9          0.7267   -3.3516    2.2265 H         1 <0>         0.0681
     38 H10         1.7171   -5.0294    3.4272 H         1 <0>         0.0825
     39 H11         3.1196   -4.5292    2.4560 H         1 <0>         0.0671
     40 H12         2.4822   -3.8906    5.3507 H         1 <0>         0.0939
     41 H13         3.9639   -4.5846    4.6674 H         1 <0>         0.0639
     42 H14         5.2264   -1.3122    3.5519 H         1 <0>         0.0791
     43 H15         4.8741   -2.8384    2.7074 H         1 <0>         0.0837
     44 H16         3.9471   -0.7230    1.5793 H         1 <0>         0.0769
     45 H17         2.8416   -0.5672    2.9616 H         1 <0>         0.0872
     46 H18         4.7565   -0.1927    4.7242 H         1 <0>         0.3958
     47 H19         4.3243    0.0279    6.3327 H         1 <0>         0.4140
     48 H20         1.3603    1.4515   -1.8938 H         1 <0>         0.0845
     49 H21         2.6054    0.6516   -0.9046 H         1 <0>         0.0727
     50 H22         3.8624   -0.5079   -5.0432 H         1 <0>         0.1550
     51 H23         5.5928    0.9692   -6.0282 H         1 <0>         0.1536
     52 H24         4.8599    3.7409   -2.8289 H         1 <0>         0.1716
     53 H25        -1.9097   -0.2066   -0.9350 H         1 <0>         0.0724
     54 H26        -1.3712   -1.6391   -0.0260 H         1 <0>         0.0609
     55 H27        -1.9407   -0.1949    0.8447 H         1 <0>         0.0696
@<TRIPOS>BOND
     1    1    2 1
     2    1   29 1
     3    1   30 1
     4    1   31 1
     5    2    6 1
     6    2    3 1
     7    2   28 1
     8    3    4 1
     9    3   18 1
    10    3   32 1
    11    4    5 1
    12    4   33 1
    13    4   34 1
    14    5    6 am
    15    5    8 1
    16    6    7 2
    17    8   14 1
    18    8    9 1
    19    8   35 1
    20    9   10 1
    21    9   36 1
    22    9   37 1
    23   10   11 1
    24   10   38 1
    25   10   39 1
    26   11   12 1
    27   11   40 1
    28   11   41 1
    29   12   13 1
    30   12   15 am
    31   13   14 1
    32   13   42 1
    33   13   43 1
    34   14   44 1
    35   14   45 1
    36   15   16 2
    37   15   17 am
    38   17   46 1
    39   17   47 1
    40   18   19 1
    41   18   48 1
    42   18   49 1
    43   19   20 1
    44   20   25 ar
    45   20   21 ar
    46   21   22 ar
    47   21   50 1
    48   22   23 ar
    49   22   51 1
    50   23   24 ar
    51   23   26 1
    52   24   25 ar
    53   24   52 1
    54   26   27 3
    55   28   53 1
    56   28   54 1
    57   28   55 1
@<TRIPOS>MOLECULE
CHEMBL385584__1
   55    57     0     0     0
SMALL
USER_CHARGES

@<TRIPOS>ATOM
      1 C1         -0.0378    1.5041    0.0048 C.3       1 <0>        -0.1407
      2 C2         -0.0117   -0.0257   -0.0005 C.3       1 <0>        -0.0862
      3 C3          0.7899   -0.5491   -1.2148 C.3       1 <0>        -0.0962
      4 C4          1.4931   -1.7881   -0.6175 C.3       1 <0>         0.1068
      5 N1          1.5877   -1.5279    0.8238 N.am      1 <0>        -0.6213
      6 C5          0.7492   -0.5464    1.1988 C.2       1 <0>         0.5258
      7 O1          0.6217   -0.1376    2.3335 O.2       1 <0>        -0.5145
      8 C6          2.4811   -2.2455    1.7365 C.3       1 <0>         0.1703
      9 C7          3.5052   -1.2582    2.2879 C.3       1 <0>        -0.1256
     10 C8          4.7605   -2.0020    2.6721 C.3       1 <0>        -0.1296
     11 C9          4.6953   -2.4205    4.1521 C.3       1 <0>         0.1278
     12 N2          3.3523   -2.8973    4.5368 N.am      1 <0>        -0.6212
     13 C10         2.5599   -3.7643    3.6938 C.3       1 <0>         0.1171
     14 C11         1.6642   -2.9085    2.7644 C.3       1 <0>        -0.1629
     15 C12         2.8440   -2.5086    5.7229 C.2       1 <0>         0.7066
     16 O2          3.5250   -1.8588    6.4926 O.2       1 <0>        -0.5916
     17 N3          1.5808   -2.8402    6.0559 N.am      1 <0>        -0.8664
     18 C13         1.8124    0.4878   -1.6840 C.3       1 <0>         0.0745
     19 O3          2.4522    0.0215   -2.8736 O.3       1 <0>        -0.2977
     20 C14         3.3926    0.8282   -3.4233 C.ar      1 <0>         0.3517
     21 C15         4.0445    0.4281   -4.5856 C.ar      1 <0>        -0.1882
     22 C16         5.0006    1.2535   -5.1410 C.ar      1 <0>         0.0081
     23 C17         5.2787    2.4729   -4.5053 C.ar      1 <0>        -0.1200
     24 C18         4.5821    2.8036   -3.3421 C.ar      1 <0>         0.2001
     25 N4          3.6736    1.9875   -2.8495 N.ar      1 <0>        -0.5380
     26 C19         6.2626    3.3645   -5.0417 C.1       1 <0>         0.2562
     27 N5          7.0431    4.0717   -5.4672 N.1       1 <0>        -0.4060
     28 C20        -1.4361   -0.5842   -0.0147 C.3       1 <0>        -0.1308
     29 H1          0.9835    1.8849   -0.0047 H         1 <0>         0.0637
     30 H2         -0.5670    1.8615   -0.8786 H         1 <0>         0.0699
     31 H3         -0.5484    1.8557    0.9013 H         1 <0>         0.0715
     32 H4          0.1233   -0.8336   -2.0290 H         1 <0>         0.1123
     33 H5          0.8996   -2.6837   -0.8010 H         1 <0>         0.0774
     34 H6          2.4888   -1.9001   -1.0467 H         1 <0>         0.0841
     35 H7          3.0116   -3.0105    1.1694 H         1 <0>         0.0827
     36 H8          3.7414   -0.5156    1.5257 H         1 <0>         0.0668
     37 H9          3.0943   -0.7604    3.1661 H         1 <0>         0.0786
     38 H10         4.8588   -2.8910    2.0491 H         1 <0>         0.0674
     39 H11         5.6250   -1.3566    2.5167 H         1 <0>         0.0823
     40 H12         5.4174   -3.2182    4.3265 H         1 <0>         0.0640
     41 H13         4.9586   -1.5648    4.7738 H         1 <0>         0.0919
     42 H14         3.2206   -4.3858    3.0895 H         1 <0>         0.0838
     43 H15         1.9322   -4.4015    4.3167 H         1 <0>         0.0790
     44 H16         1.1472   -2.1536    3.3567 H         1 <0>         0.0886
     45 H17         0.9280   -3.5509    2.2813 H         1 <0>         0.0781
     46 H18         1.0620   -3.4185    5.4751 H         1 <0>         0.3958
     47 H19         1.1905   -2.5006    6.8764 H         1 <0>         0.4140
     48 H20         1.3056    1.4306   -1.8897 H         1 <0>         0.0845
     49 H21         2.5597    0.6394   -0.9051 H         1 <0>         0.0730
     50 H22         3.8050   -0.5181   -5.0478 H         1 <0>         0.1549
     51 H23         5.5222    0.9678   -6.0424 H         1 <0>         0.1536
     52 H24         4.7875    3.7393   -2.8434 H         1 <0>         0.1717
     53 H25        -1.9503   -0.2453   -0.9141 H         1 <0>         0.0723
     54 H26        -1.3994   -1.6735   -0.0057 H         1 <0>         0.0607
     55 H27        -1.9734   -0.2315    0.8657 H         1 <0>         0.0693
@<TRIPOS>BOND
     1    1    2 1
     2    1   29 1
     3    1   30 1
     4    1   31 1
     5    2    6 1
     6    2    3 1
     7    2   28 1
     8    3    4 1
     9    3   18 1
    10    3   32 1
    11    4    5 1
    12    4   33 1
    13    4   34 1
    14    5    6 am
    15    5    8 1
    16    6    7 2
    17    8   14 1
    18    8    9 1
    19    8   35 1
    20    9   10 1
    21    9   36 1
    22    9   37 1
    23   10   11 1
    24   10   38 1
    25   10   39 1
    26   11   12 1
    27   11   40 1
    28   11   41 1
    29   12   13 1
    30   12   15 am
    31   13   14 1
    32   13   42 1
    33   13   43 1
    34   14   44 1
    35   14   45 1
    36   15   16 2
    37   15   17 am
    38   17   46 1
    39   17   47 1
    40   18   19 1
    41   18   48 1
    42   18   49 1
    43   19   20 1
    44   20   25 ar
    45   20   21 ar
    46   21   22 ar
    47   21   50 1
    48   22   23 ar
    49   22   51 1
    50   23   24 ar
    51   23   26 1
    52   24   25 ar
    53   24   52 1
    54   26   27 3
    55   28   53 1
    56   28   54 1
    57   28   55 1
@<TRIPOS>MOLECULE
CHEMBL385584__2
   55    57     0     0     0
SMALL
USER_CHARGES

@<TRIPOS>ATOM
      1 C1          0.0089    1.5304   -0.0053 C.3       1 <0>        -0.1326
      2 C2          0.0260    0.0005   -0.0125 C.3       1 <0>        -0.0862
      3 C3          0.8300   -0.5261   -1.2238 C.3       1 <0>        -0.0955
      4 C4          1.5233   -1.7699   -0.6250 C.3       1 <0>         0.1088
      5 N1          1.6129   -1.5121    0.8170 N.am      1 <0>        -0.6214
      6 C5          0.7785   -0.5262    1.1895 C.2       1 <0>         0.5280
      7 O1          0.6483   -0.1181    2.3242 O.2       1 <0>        -0.5139
      8 C6          2.4980   -2.2361    1.7328 C.3       1 <0>         0.1699
      9 C7          1.6378   -3.0164    2.7222 C.3       1 <0>        -0.1265
     10 C8          2.4095   -4.2134    3.2203 C.3       1 <0>        -0.1293
     11 C9          3.1724   -3.8524    4.5079 C.3       1 <0>         0.1258
     12 N2          3.7720   -2.5054    4.4401 N.am      1 <0>        -0.6212
     13 C10         4.4379   -2.0051    3.2583 C.3       1 <0>         0.1171
     14 C11         3.4149   -1.2703    2.3573 C.3       1 <0>        -0.1621
     15 C12         3.6953   -1.7087    5.5245 C.2       1 <0>         0.7063
     16 O2          3.0654   -2.0689    6.5002 O.2       1 <0>        -0.5912
     17 N3          4.3168   -0.5128    5.5274 N.am      1 <0>        -0.8670
     18 C13        -0.1028   -0.9184   -2.3714 C.3       1 <0>         0.0796
     19 O3          0.6746   -1.2890   -3.5117 O.3       1 <0>        -0.2980
     20 C14        -0.0039   -1.6664   -4.6227 C.ar      1 <0>         0.3517
     21 C15         0.7010   -2.0434   -5.7615 C.ar      1 <0>        -0.1882
     22 C16         0.0052   -2.4270   -6.8896 C.ar      1 <0>         0.0082
     23 C17        -1.3970   -2.4211   -6.8416 C.ar      1 <0>        -0.1200
     24 C18        -2.0317   -2.0299   -5.6619 C.ar      1 <0>         0.2001
     25 N4         -1.3275   -1.6760   -4.6069 N.ar      1 <0>        -0.5383
     26 C19        -2.1651   -2.8102   -7.9858 C.1       1 <0>         0.2561
     27 N5         -2.7744   -3.1189   -8.8935 N.1       1 <0>        -0.4062
     28 C20        -1.4016   -0.5496   -0.0337 C.3       1 <0>        -0.1396
     29 H1          1.0324    1.9052   -0.0097 H         1 <0>         0.0599
     30 H2         -0.5143    1.8920   -0.8906 H         1 <0>         0.0680
     31 H3         -0.5037    1.8838    0.8894 H         1 <0>         0.0710
     32 H4          1.5643    0.2088   -1.5538 H         1 <0>         0.1054
     33 H5          0.9253   -2.6618   -0.8123 H         1 <0>         0.0731
     34 H6          2.5202   -1.8872   -1.0499 H         1 <0>         0.0842
     35 H7          3.0866   -2.9474    1.1533 H         1 <0>         0.0830
     36 H8          1.3789   -2.3744    3.5642 H         1 <0>         0.0794
     37 H9          0.7267   -3.3516    2.2265 H         1 <0>         0.0677
     38 H10         1.7171   -5.0294    3.4272 H         1 <0>         0.0824
     39 H11         3.1196   -4.5292    2.4560 H         1 <0>         0.0672
     40 H12         2.4822   -3.8906    5.3507 H         1 <0>         0.0938
     41 H13         3.9639   -4.5846    4.6674 H         1 <0>         0.0640
     42 H14         5.2264   -1.3122    3.5519 H         1 <0>         0.0794
     43 H15         4.8741   -2.8384    2.7074 H         1 <0>         0.0839
     44 H16         3.9471   -0.7230    1.5793 H         1 <0>         0.0784
     45 H17         2.8416   -0.5672    2.9616 H         1 <0>         0.0869
     46 H18         4.7565   -0.1927    4.7242 H         1 <0>         0.3959
     47 H19         4.3243    0.0279    6.3327 H         1 <0>         0.4140
     48 H20        -0.7220   -1.7612   -2.0643 H         1 <0>         0.0801
     49 H21        -0.7411   -0.0724   -2.6262 H         1 <0>         0.0813
     50 H22         1.7810   -2.0355   -5.7626 H         1 <0>         0.1547
     51 H23         0.5269   -2.7241   -7.7873 H         1 <0>         0.1535
     52 H24        -3.1106   -2.0208   -5.6126 H         1 <0>         0.1720
     53 H25        -1.9097   -0.2066   -0.9350 H         1 <0>         0.0751
     54 H26        -1.3712   -1.6391   -0.0260 H         1 <0>         0.0611
     55 H27        -1.9407   -0.1949    0.8447 H         1 <0>         0.0700
@<TRIPOS>BOND
     1    1    2 1
     2    1   29 1
     3    1   30 1
     4    1   31 1
     5    2    6 1
     6    2    3 1
     7    2   28 1
     8    3    4 1
     9    3   18 1
    10    3   32 1
    11    4    5 1
    12    4   33 1
    13    4   34 1
    14    5    6 am
    15    5    8 1
    16    6    7 2
    17    8   14 1
    18    8    9 1
    19    8   35 1
    20    9   10 1
    21    9   36 1
    22    9   37 1
    23   10   11 1
    24   10   38 1
    25   10   39 1
    26   11   12 1
    27   11   40 1
    28   11   41 1
    29   12   13 1
    30   12   15 am
    31   13   14 1
    32   13   42 1
    33   13   43 1
    34   14   44 1
    35   14   45 1
    36   15   16 2
    37   15   17 am
    38   17   46 1
    39   17   47 1
    40   18   19 1
    41   18   48 1
    42   18   49 1
    43   19   20 1
    44   20   25 ar
    45   20   21 ar
    46   21   22 ar
    47   21   50 1
    48   22   23 ar
    49   22   51 1
    50   23   24 ar
    51   23   26 1
    52   24   25 ar
    53   24   52 1
    54   26   27 3
    55   28   53 1
    56   28   54 1
    57   28   55 1
@<TRIPOS>MOLECULE
CHEMBL385584__3
   55    57     0     0     0
SMALL
USER_CHARGES

@<TRIPOS>ATOM
      1 C1         -0.0285    1.5463    0.0286 C.3       1 <0>        -0.1391
      2 C2         -0.0074    0.0165    0.0144 C.3       1 <0>        -0.0862
      3 C3         -1.4440   -0.5456    0.1205 C.3       1 <0>        -0.0960
      4 C4         -1.5836   -0.7678    1.6429 C.3       1 <0>         0.1089
      5 N1         -0.2146   -0.9520    2.1388 N.am      1 <0>        -0.6213
      6 C5          0.6909   -0.5149    1.2467 C.2       1 <0>         0.5283
      7 O1          1.8928   -0.5428    1.4063 O.2       1 <0>        -0.5142
      8 C6          0.1218   -1.5370    3.4391 C.3       1 <0>         0.1699
      9 C7          0.8705   -2.8451    3.2027 C.3       1 <0>        -0.1263
     10 C8          0.6684   -3.7580    4.3869 C.3       1 <0>        -0.1297
     11 C9          1.7989   -3.5532    5.4116 C.3       1 <0>         0.1275
     12 N2          2.1544   -2.1295    5.5706 N.am      1 <0>        -0.6213
     13 C10         1.1627   -1.0798    5.6417 C.3       1 <0>         0.1171
     14 C11         0.8730   -0.5414    4.2189 C.3       1 <0>        -0.1632
     15 C12         3.4572   -1.7942    5.6532 C.2       1 <0>         0.7066
     16 O2          4.3072   -2.6627    5.6920 O.2       1 <0>        -0.5916
     17 N3          3.8178   -0.4962    5.6928 N.am      1 <0>        -0.8664
     18 C13        -2.4692    0.4738   -0.3803 C.3       1 <0>         0.0798
     19 O3         -3.7698   -0.1180   -0.3776 O.3       1 <0>        -0.2979
     20 C14        -4.7996    0.6574   -0.7966 C.ar      1 <0>         0.3517
     21 C15        -6.0894    0.1357   -0.8098 C.ar      1 <0>        -0.1880
     22 C16        -7.1339    0.9297   -1.2368 C.ar      1 <0>         0.0082
     23 C17        -6.8501    2.2421   -1.6437 C.ar      1 <0>        -0.1200
     24 C18        -5.5300    2.6927   -1.6016 C.ar      1 <0>         0.1999
     25 N4         -4.5643    1.9018   -1.1820 N.ar      1 <0>        -0.5384
     26 C19        -7.8990    3.1059   -2.0957 C.1       1 <0>         0.2561
     27 N5         -8.7311    3.7911   -2.4543 N.1       1 <0>        -0.4062
     28 C20         0.6791   -0.4965   -1.2531 C.3       1 <0>        -0.1327
     29 H1          0.9940    1.9239    0.0207 H         1 <0>         0.0695
     30 H2         -0.5572    1.9106   -0.8522 H         1 <0>         0.0750
     31 H3         -0.5373    1.8943    0.9276 H         1 <0>         0.0611
     32 H4         -1.5355   -1.4870   -0.4212 H         1 <0>         0.1055
     33 H5         -2.0403    0.1041    2.1110 H         1 <0>         0.0731
     34 H6         -2.1795   -1.6587    1.8409 H         1 <0>         0.0844
     35 H7         -0.8053   -1.7618    3.9665 H         1 <0>         0.0830
     36 H8          0.4868   -3.3262    2.3030 H         1 <0>         0.0684
     37 H9          1.9337   -2.6386    3.0799 H         1 <0>         0.0784
     38 H10        -0.2897   -3.5346    4.8562 H         1 <0>         0.0676
     39 H11         0.6703   -4.7943    4.0489 H         1 <0>         0.0829
     40 H12         1.4784   -3.9478    6.3758 H         1 <0>         0.0640
     41 H13         2.6800   -4.1033    5.0812 H         1 <0>         0.0920
     42 H14         0.2441   -1.4770    6.0735 H         1 <0>         0.0840
     43 H15         1.5365   -0.2692    6.2674 H         1 <0>         0.0790
     44 H16         1.8157   -0.3256    3.7159 H         1 <0>         0.0886
     45 H17         0.2881    0.3755    4.2923 H         1 <0>         0.0778
     46 H18         3.1383    0.1949    5.7344 H         1 <0>         0.3958
     47 H19         4.7567   -0.2530    5.6796 H         1 <0>         0.4140
     48 H20        -2.4651    1.3450    0.2747 H         1 <0>         0.0800
     49 H21        -2.2115    0.7802   -1.3941 H         1 <0>         0.0812
     50 H22        -6.2709   -0.8797   -0.4898 H         1 <0>         0.1548
     51 H23        -8.1449    0.5503   -1.2577 H         1 <0>         0.1535
     52 H24        -5.2987    3.7008   -1.9125 H         1 <0>         0.1719
     53 H25         1.7002   -0.1171   -1.2922 H         1 <0>         0.0710
     54 H26         0.6965   -1.5863   -1.2412 H         1 <0>         0.0602
     55 H27         0.1295   -0.1514   -2.1290 H         1 <0>         0.0679
@<TRIPOS>BOND
     1    1    2 1
     2    1   29 1
     3    1   30 1
     4    1   31 1
     5    2    6 1
     6    2    3 1
     7    2   28 1
     8    3    4 1
     9    3   18 1
    10    3   32 1
    11    4    5 1
    12    4   33 1
    13    4   34 1
    14    5    6 am
    15    5    8 1
    16    6    7 2
    17    8   14 1
    18    8    9 1
    19    8   35 1
    20    9   10 1
    21    9   36 1
    22    9   37 1
    23   10   11 1
    24   10   38 1
    25   10   39 1
    26   11   12 1
    27   11   40 1
    28   11   41 1
    29   12   13 1
    30   12   15 am
    31   13   14 1
    32   13   42 1
    33   13   43 1
    34   14   44 1
    35   14   45 1
    36   15   16 2
    37   15   17 am
    38   17   46 1
    39   17   47 1
    40   18   19 1
    41   18   48 1
    42   18   49 1
    43   19   20 1
    44   20   25 ar
    45   20   21 ar
    46   21   22 ar
    47   21   50 1
    48   22   23 ar
    49   22   51 1
    50   23   24 ar
    51   23   26 1
    52   24   25 ar
    53   24   52 1
    54   26   27 3
    55   28   53 1
    56   28   54 1
    57   28   55 1
@<TRIPOS>MOLECULE
CHEMBL222938
   39    42     0     0     0
SMALL
USER_CHARGES

@<TRIPOS>ATOM
      1 C1         -0.2961    5.3445    0.9449 C.ar      1 <0>        -0.0257
      2 C2         -0.1160    4.2867    0.0490 C.ar      1 <0>        -0.1670
      3 C3         -1.1553    3.9169   -0.8097 C.ar      1 <0>        -0.0019
      4 C4         -2.3532    4.5954   -0.7710 C.ar      1 <0>        -0.1147
      5 C5         -2.5298    5.6489    0.1226 C.ar      1 <0>         0.2639
      6 C6         -1.4962    6.0194    0.9793 C.ar      1 <0>        -0.1157
      7 Cl1        -1.7209    7.3329    2.0919 Cl        1 <0>        -0.0509
      8 N1         -3.7415    6.3327    0.1595 N.pl3     1 <0>        -0.8520
      9 Cl2        -3.6441    4.1373   -1.8375 Cl        1 <0>        -0.0498
     10 C7          1.1684    3.5622    0.0095 C.2       1 <0>         0.5736
     11 O1          1.1839    2.3481    0.0754 O.2       1 <0>        -0.5316
     12 N2          2.3247    4.2460   -0.0996 N.am      1 <0>        -0.5974
     13 C8          3.6246    3.5608   -0.2346 C.3       1 <0>         0.1437
     14 C9          4.5131    4.0034    0.9344 C.3       1 <0>        -0.1233
     15 C10         4.6331    5.5281    0.9345 C.3       1 <0>        -0.0859
     16 C11         5.2697    5.9891   -0.3786 C.3       1 <0>        -0.1112
     17 C12         4.3859    5.5484   -1.5476 C.3       1 <0>        -0.0866
     18 C13         4.2659    4.0236   -1.5485 C.3       1 <0>        -0.1238
     19 C14         3.0013    6.1831   -1.4056 C.3       1 <0>        -0.1241
     20 C15         2.3600    5.7214   -0.0968 C.3       1 <0>         0.1273
     21 C16         3.2487    6.1628    1.0786 C.3       1 <0>        -0.1251
     22 H1          0.5035    5.6294    1.6126 H         1 <0>         0.1455
     23 H2         -1.0188    3.1003   -1.5031 H         1 <0>         0.1467
     24 H3         -4.4619    6.0753   -0.4368 H         1 <0>         0.4086
     25 H4         -3.8654    7.0666    0.7815 H         1 <0>         0.4083
     26 H5          3.4891    2.4793   -0.2351 H         1 <0>         0.1051
     27 H6          4.0688    3.6738    1.8736 H         1 <0>         0.0676
     28 H7          5.5034    3.5610    0.8259 H         1 <0>         0.0765
     29 H8          5.2633    5.8415    1.7668 H         1 <0>         0.0753
     30 H9          5.3586    7.0755   -0.3785 H         1 <0>         0.0660
     31 H10         6.2585    5.5419   -0.4807 H         1 <0>         0.0664
     32 H11         4.8353    5.8766   -2.4849 H         1 <0>         0.0745
     33 H12         5.2574    3.5811   -1.6446 H         1 <0>         0.0766
     34 H13         3.6445    3.7086   -2.3869 H         1 <0>         0.0671
     35 H14         3.0980    7.2688   -1.4012 H         1 <0>         0.0769
     36 H15         2.3738    5.8774   -2.2428 H         1 <0>         0.0678
     37 H16         1.3532    6.1282   -0.0023 H         1 <0>         0.1039
     38 H17         2.7981    5.8426    2.0181 H         1 <0>         0.0675
     39 H18         3.3443    7.2486    1.0728 H         1 <0>         0.0779
@<TRIPOS>BOND
     1    1    6 ar
     2    1    2 ar
     3    1   22 1
     4    2    3 ar
     5    2   10 1
     6    3    4 ar
     7    3   23 1
     8    4    5 ar
     9    4    9 1
    10    5    6 ar
    11    5    8 1
    12    6    7 1
    13    8   24 1
    14    8   25 1
    15   10   11 2
    16   10   12 am
    17   12   20 1
    18   12   13 1
    19   13   18 1
    20   13   14 1
    21   13   26 1
    22   14   15 1
    23   14   27 1
    24   14   28 1
    25   15   21 1
    26   15   16 1
    27   15   29 1
    28   16   17 1
    29   16   30 1
    30   16   31 1
    31   17   18 1
    32   17   19 1
    33   17   32 1
    34   18   33 1
    35   18   34 1
    36   19   20 1
    37   19   35 1
    38   19   36 1
    39   20   21 1
    40   20   37 1
    41   21   38 1
    42   21   39 1
@<TRIPOS>MOLECULE
CHEMBL218285
   42    44     0     0     0
SMALL
USER_CHARGES

@<TRIPOS>ATOM
      1 C1         -0.0167    1.3781    0.0096 C.ar      1 <0>        -0.1207
      2 C2          1.1709    2.0855    0.0021 C.ar      1 <0>        -0.1222
      3 C3          2.3773    1.4107   -0.0130 C.ar      1 <0>        -0.1145
      4 C4          2.3960    0.0285   -0.0201 C.ar      1 <0>        -0.0881
      5 C5          1.2084   -0.6789   -0.0117 C.ar      1 <0>        -0.0898
      6 C6          0.0021   -0.0041    0.0020 C.ar      1 <0>        -0.1169
      7 C7          3.7112   -0.7071   -0.0376 C.3       1 <0>        -0.0609
      8 C8          4.1714   -0.9633    1.3989 C.3       1 <0>        -0.1201
      9 C9          5.5357   -1.6909    1.4085 C.3       1 <0>        -0.1303
     10 C10         5.1029   -3.1708    1.5028 C.3       1 <0>         0.1009
     11 N1          3.7813   -3.1523    2.1408 N.am      1 <0>        -0.6197
     12 C11         3.2326   -1.9261    2.0919 C.2       1 <0>         0.5218
     13 O1          2.1435   -1.6341    2.5387 O.2       1 <0>        -0.5116
     14 C12         3.1422   -4.3201    2.7523 C.3       1 <0>         0.1625
     15 C13         2.8803   -4.0409    4.2337 C.3       1 <0>        -0.1334
     16 C14         2.2129   -5.2605    4.8723 C.3       1 <0>        -0.1148
     17 C15         0.8865   -5.5449    4.1647 C.3       1 <0>        -0.1227
     18 C16         1.1483   -5.8241    2.6834 C.3       1 <0>        -0.1148
     19 C17         1.8158   -4.6045    2.0447 C.3       1 <0>        -0.1334
     20 H1         -0.9591    1.9053    0.0259 H         1 <0>         0.1194
     21 H2          1.1563    3.1654    0.0076 H         1 <0>         0.1202
     22 H3          3.3051    1.9634   -0.0196 H         1 <0>         0.1195
     23 H4          1.2231   -1.7588   -0.0176 H         1 <0>         0.1120
     24 H5         -0.9258   -0.5567    0.0082 H         1 <0>         0.1185
     25 H6          3.5884   -1.6586   -0.5549 H         1 <0>         0.0740
     26 H7          4.4573   -0.1052   -0.5563 H         1 <0>         0.0856
     27 H8          4.2328   -0.0259    1.9517 H         1 <0>         0.1053
     28 H9          6.0845   -1.5030    0.4856 H         1 <0>         0.0932
     29 H10         6.1263   -1.4010    2.2776 H         1 <0>         0.0842
     30 H11         5.0347   -3.6081    0.5067 H         1 <0>         0.0710
     31 H12         5.8091   -3.7321    2.1145 H         1 <0>         0.0782
     32 H13         3.7981   -5.1853    2.6561 H         1 <0>         0.0851
     33 H14         3.8253   -3.8382    4.7378 H         1 <0>         0.0611
     34 H15         2.2244   -3.1757    4.3299 H         1 <0>         0.0790
     35 H16         2.8688   -6.1257    4.7761 H         1 <0>         0.0617
     36 H17         2.0263   -5.0616    5.9277 H         1 <0>         0.0655
     37 H18         0.4110   -6.4138    4.6197 H         1 <0>         0.0633
     38 H19         0.2305   -4.6797    4.2610 H         1 <0>         0.0643
     39 H20         1.8043   -6.6893    2.5872 H         1 <0>         0.0617
     40 H21         0.2034   -6.0268    2.1793 H         1 <0>         0.0654
     41 H22         1.1598   -3.7393    2.1410 H         1 <0>         0.0796
     42 H23         2.0023   -4.8034    0.9894 H         1 <0>         0.0607
@<TRIPOS>BOND
     1    1    6 ar
     2    1    2 ar
     3    1   20 1
     4    2    3 ar
     5    2   21 1
     6    3    4 ar
     7    3   22 1
     8    4    5 ar
     9    4    7 1
    10    5    6 ar
    11    5   23 1
    12    6   24 1
    13    7    8 1
    14    7   25 1
    15    7   26 1
    16    8   12 1
    17    8    9 1
    18    8   27 1
    19    9   10 1
    20    9   28 1
    21    9   29 1
    22   10   11 1
    23   10   30 1
    24   10   31 1
    25   11   12 am
    26   11   14 1
    27   12   13 2
    28   14   19 1
    29   14   15 1
    30   14   32 1
    31   15   16 1
    32   15   33 1
    33   15   34 1
    34   16   17 1
    35   16   35 1
    36   16   36 1
    37   17   18 1
    38   17   37 1
    39   17   38 1
    40   18   19 1
    41   18   39 1
    42   18   40 1
    43   19   41 1
    44   19   42 1
@<TRIPOS>MOLECULE
CHEMBL218285__1
   42    44     0     0     0
SMALL
USER_CHARGES

@<TRIPOS>ATOM
      1 C1         -0.0167    1.3781    0.0096 C.ar      1 <0>        -0.1203
      2 C2          1.1709    2.0855    0.0021 C.ar      1 <0>        -0.1258
      3 C3          2.3773    1.4107   -0.0130 C.ar      1 <0>        -0.0649
      4 C4          2.3960    0.0285   -0.0201 C.ar      1 <0>        -0.0929
      5 C5          1.2084   -0.6789   -0.0117 C.ar      1 <0>        -0.1164
      6 C6          0.0021   -0.0041    0.0020 C.ar      1 <0>        -0.1299
      7 C7          3.7112   -0.7071   -0.0376 C.3       1 <0>        -0.0596
      8 C8          4.1714   -0.9633    1.3989 C.3       1 <0>        -0.1195
      9 C9          5.5054   -1.7451    1.4085 C.3       1 <0>        -0.1293
     10 C10         6.2307   -1.1155    2.6184 C.3       1 <0>         0.1008
     11 N1          5.6608    0.2295    2.7601 N.am      1 <0>        -0.6200
     12 C11         4.5010    0.3415    2.0899 C.2       1 <0>         0.5189
     13 O1          3.8184    1.3430    2.0453 O.2       1 <0>        -0.5091
     14 C12         6.2768    1.3111    3.5328 C.3       1 <0>         0.1626
     15 C13         6.5682    2.4957    2.6093 C.3       1 <0>        -0.1325
     16 C14         7.2114    3.6253    3.4162 C.3       1 <0>        -0.1149
     17 C15         6.2559    4.0672    4.5264 C.3       1 <0>        -0.1225
     18 C16         5.9645    2.8826    5.4499 C.3       1 <0>        -0.1149
     19 C17         5.3212    1.7530    4.6430 C.3       1 <0>        -0.1333
     20 H1         -0.9591    1.9053    0.0259 H         1 <0>         0.1171
     21 H2          1.1563    3.1654    0.0076 H         1 <0>         0.1169
     22 H3          3.3051    1.9634   -0.0196 H         1 <0>         0.1195
     23 H4          1.2231   -1.7588   -0.0176 H         1 <0>         0.1171
     24 H5         -0.9258   -0.5567    0.0082 H         1 <0>         0.1179
     25 H6          3.5884   -1.6586   -0.5549 H         1 <0>         0.0822
     26 H7          4.4573   -0.1052   -0.5563 H         1 <0>         0.0732
     27 H8          3.4051   -1.5055    1.9530 H         1 <0>         0.1078
     28 H9          5.3327   -2.8094    1.5679 H         1 <0>         0.0918
     29 H10         6.0635   -1.5756    0.4877 H         1 <0>         0.0846
     30 H11         6.0425   -1.7016    3.5179 H         1 <0>         0.0708
     31 H12         7.3017   -1.0529    2.4255 H         1 <0>         0.0782
     32 H13         7.2082    0.9572    3.9746 H         1 <0>         0.0846
     33 H14         7.2489    2.1809    1.8183 H         1 <0>         0.0609
     34 H15         5.6367    2.8496    2.1674 H         1 <0>         0.0790
     35 H16         8.1429    3.2713    3.8580 H         1 <0>         0.0616
     36 H17         7.4190    4.4692    2.7583 H         1 <0>         0.0654
     37 H18         6.7142    4.8719    5.1013 H         1 <0>         0.0632
     38 H19         5.3244    4.4211    4.0845 H         1 <0>         0.0643
     39 H20         6.8959    2.5287    5.8918 H         1 <0>         0.0615
     40 H21         5.2837    3.1974    6.2408 H         1 <0>         0.0653
     41 H22         4.3898    2.1070    4.2011 H         1 <0>         0.0798
     42 H23         5.1136    0.9091    5.3009 H         1 <0>         0.0606
@<TRIPOS>BOND
     1    1    6 ar
     2    1    2 ar
     3    1   20 1
     4    2    3 ar
     5    2   21 1
     6    3    4 ar
     7    3   22 1
     8    4    5 ar
     9    4    7 1
    10    5    6 ar
    11    5   23 1
    12    6   24 1
    13    7    8 1
    14    7   25 1
    15    7   26 1
    16    8   12 1
    17    8    9 1
    18    8   27 1
    19    9   10 1
    20    9   28 1
    21    9   29 1
    22   10   11 1
    23   10   30 1
    24   10   31 1
    25   11   12 am
    26   11   14 1
    27   12   13 2
    28   14   19 1
    29   14   15 1
    30   14   32 1
    31   15   16 1
    32   15   33 1
    33   15   34 1
    34   16   17 1
    35   16   35 1
    36   16   36 1
    37   17   18 1
    38   17   37 1
    39   17   38 1
    40   18   19 1
    41   18   39 1
    42   18   40 1
    43   19   41 1
    44   19   42 1
@<TRIPOS>MOLECULE
CHEMBL258447
   44    47     0     0     0
SMALL
USER_CHARGES

@<TRIPOS>ATOM
      1 C1          5.8058   -4.4155   -0.6162 C.3       1 <0>        -0.1176
      2 C2          4.3072   -4.3790   -0.4610 C.ar      1 <0>        -0.0832
      3 C3          3.5409   -5.4429   -0.8989 C.ar      1 <0>        -0.1162
      4 C4          2.1663   -5.4094   -0.7565 C.ar      1 <0>        -0.1009
      5 C5          1.5581   -4.3122   -0.1758 C.ar      1 <0>        -0.0543
      6 C6          2.3245   -3.2488    0.2629 C.ar      1 <0>        -0.1111
      7 C7          3.6995   -3.2841    0.1245 C.ar      1 <0>        -0.1166
      8 C8          0.0595   -4.2753   -0.0215 C.3       1 <0>        -0.0177
      9 C9         -0.5118   -4.4917    1.3813 C.3       1 <0>        -0.1293
     10 C10        -0.5426   -3.0987    0.7492 C.3       1 <0>        -0.1608
     11 C11        -0.7274   -4.8203   -1.1855 C.2       1 <0>         0.1987
     12 N1         -1.4781   -5.8854   -1.1768 N.2       1 <0>        -0.2795
     13 N2         -2.0360   -6.0276   -2.3257 N.2       1 <0>        -0.2973
     14 C12        -1.6766   -5.0444   -3.1060 C.2       1 <0>         0.1931
     15 N3         -0.7886   -4.2851   -2.4398 N.pl3     1 <0>        -0.4550
     16 C13         0.0630   -3.1697   -2.8636 C.3       1 <0>         0.1104
     17 C14        -0.1133   -2.8476   -4.3478 C.3       1 <0>        -0.1418
     18 C15        -1.3744   -2.0319   -4.5842 C.3       1 <0>        -0.1246
     19 C16        -2.5316   -2.4569   -3.7020 C.3       1 <0>        -0.1371
     20 C17        -3.2220   -3.6340   -4.3991 C.3       1 <0>        -0.1168
     21 C18        -2.2061   -4.7952   -4.4984 C.3       1 <0>        -0.0474
     22 H1          6.2517   -4.8703    0.2684 H         1 <0>         0.0725
     23 H2          6.0656   -5.0028   -1.4969 H         1 <0>         0.0668
     24 H3          6.1839   -3.3998   -0.7323 H         1 <0>         0.0675
     25 H4          4.0161   -6.3001   -1.3526 H         1 <0>         0.1232
     26 H5          1.5675   -6.2403   -1.0993 H         1 <0>         0.1187
     27 H6          1.8493   -2.3914    0.7163 H         1 <0>         0.1265
     28 H7          4.2986   -2.4549    0.4706 H         1 <0>         0.1250
     29 H8         -1.4570   -5.0285    1.4625 H         1 <0>         0.1105
     30 H9          0.1963   -4.6608    2.1925 H         1 <0>         0.1082
     31 H10         0.1453   -2.3513    1.1446 H         1 <0>         0.1102
     32 H11        -1.5080   -2.7190    0.4146 H         1 <0>         0.0998
     33 H12        -0.1907   -2.2869   -2.2767 H         1 <0>         0.0905
     34 H13         1.1053   -3.4291   -2.6784 H         1 <0>         0.0906
     35 H14         0.7501   -2.2805   -4.6958 H         1 <0>         0.0905
     36 H15        -0.1789   -3.7788   -4.9106 H         1 <0>         0.0830
     37 H16        -1.1539   -0.9819   -4.3915 H         1 <0>         0.0643
     38 H17        -1.6711   -2.1395   -5.6275 H         1 <0>         0.0726
     39 H18        -2.1596   -2.7694   -2.7263 H         1 <0>         0.0683
     40 H19        -3.2331   -1.6307   -3.5859 H         1 <0>         0.0709
     41 H20        -4.0889   -3.9487   -3.8180 H         1 <0>         0.0701
     42 H21        -3.5370   -3.3361   -5.3991 H         1 <0>         0.0796
     43 H22        -1.3861   -4.5250   -5.1638 H         1 <0>         0.0958
     44 H23        -2.7067   -5.6893   -4.8700 H         1 <0>         0.0997
@<TRIPOS>BOND
     1    1    2 1
     2    1   22 1
     3    1   23 1
     4    1   24 1
     5    2    7 ar
     6    2    3 ar
     7    3    4 ar
     8    3   25 1
     9    4    5 ar
    10    4   26 1
    11    5    6 ar
    12    5    8 1
    13    6    7 ar
    14    6   27 1
    15    7   28 1
    16    8   10 1
    17    8    9 1
    18    8   11 1
    19    9   10 1
    20    9   29 1
    21    9   30 1
    22   10   31 1
    23   10   32 1
    24   11   15 1
    25   11   12 2
    26   12   13 1
    27   13   14 2
    28   14   21 1
    29   14   15 1
    30   15   16 1
    31   16   17 1
    32   16   33 1
    33   16   34 1
    34   17   18 1
    35   17   35 1
    36   17   36 1
    37   18   19 1
    38   18   37 1
    39   18   38 1
    40   19   20 1
    41   19   39 1
    42   19   40 1
    43   20   21 1
    44   20   41 1
    45   20   42 1
    46   21   43 1
    47   21   44 1
@<TRIPOS>MOLECULE
CHEMBL1081078
   47    49     0     0     0
SMALL
USER_CHARGES

@<TRIPOS>ATOM
      1 C1         -0.0187    1.5258    0.0104 C.3       1 <0>        -0.1398
      2 C2          0.0021   -0.0041    0.0020 C.3       1 <0>        -0.0389
      3 C3          0.7421   -0.5109    1.2415 C.3       1 <0>        -0.1409
      4 C4         -1.4333   -0.5336    0.0129 C.3       1 <0>        -0.1479
      5 C5          0.7074   -0.4901   -1.2379 C.ar      1 <0>        -0.0107
      6 C6          0.0361   -1.2843   -2.1485 C.ar      1 <0>        -0.1419
      7 C7          0.6831   -1.7301   -3.2859 C.ar      1 <0>        -0.0166
      8 C8          2.0014   -1.3813   -3.5127 C.ar      1 <0>        -0.6836
      9 C9          2.6724   -0.5863   -2.6025 C.ar      1 <0>        -0.0172
     10 C10         2.0241   -0.1370   -1.4673 C.ar      1 <0>        -0.1363
     11 S1          2.8264   -1.9505   -4.9618 S.o2      1 <0>         2.7084
     12 O1          4.2169   -1.9365   -4.6694 O.2       1 <0>        -0.9498
     13 O2          2.1477   -3.1268   -5.3801 O.2       1 <0>        -0.9502
     14 N1          2.5798   -0.8164   -6.1431 N.pl3     1 <0>        -1.0099
     15 C11         1.4686   -0.7495   -7.1213 C.3       1 <0>         0.1549
     16 H1          0.9577   -1.7066   -7.2262 H         1 <0>         0.1138
     17 C12         2.1384   -0.3029   -8.4396 C.3       1 <0>        -0.1282
     18 C13         3.4245    0.4294   -8.0050 C.3       1 <0>        -0.1286
     19 C14         3.4166    0.3655   -6.4577 C.3       1 <0>         0.1531
     20 H2          4.4219    0.2762   -6.0459 H         1 <0>         0.1215
     21 C15         2.6758    1.6078   -5.9321 C.3       1 <0>        -0.0794
     22 C16         1.3166    1.6526   -6.6006 C.2       1 <0>         0.1457
     23 N2          0.8574    2.7424   -7.0892 N.2       1 <0>        -0.3353
     24 O3         -0.4155    2.7594   -7.7092 O.3       1 <0>        -0.4141
     25 C17         0.5134    0.3647   -6.6582 C.3       1 <0>        -0.1306
     26 H3          1.0039    1.9031    0.0027 H         1 <0>         0.0594
     27 H4         -0.5459    1.8868   -0.8726 H         1 <0>         0.0575
     28 H5         -0.5289    1.8773    0.9072 H         1 <0>         0.0638
     29 H6          0.2319   -0.1594    2.1383 H         1 <0>         0.0639
     30 H7          0.7568   -1.6008    1.2356 H         1 <0>         0.0587
     31 H8          1.7647   -0.1336    1.2338 H         1 <0>         0.0596
     32 H9         -1.9605   -0.1726   -0.8702 H         1 <0>         0.0604
     33 H10        -1.4185   -1.6235    0.0069 H         1 <0>         0.0611
     34 H11        -1.9435   -0.1821    0.9097 H         1 <0>         0.0632
     35 H12        -0.9938   -1.5568   -1.9713 H         1 <0>         0.1371
     36 H13         0.1588   -2.3512   -3.9970 H         1 <0>         0.1386
     37 H14         3.7024   -0.3141   -2.7796 H         1 <0>         0.1397
     38 H15         2.5473    0.4872   -0.7580 H         1 <0>         0.1322
     39 H16         2.3848   -1.1702   -9.0521 H         1 <0>         0.0799
     40 H17         1.4832    0.3747   -8.9869 H         1 <0>         0.0791
     41 H18         4.3027   -0.0783   -8.4040 H         1 <0>         0.0810
     42 H19         3.4011    1.4667   -8.3390 H         1 <0>         0.0818
     43 H20         2.5535    1.5351   -4.8514 H         1 <0>         0.0950
     44 H21         3.2395    2.5068   -6.1811 H         1 <0>         0.1003
     45 H22        -0.6766    3.6268   -8.0476 H         1 <0>         0.4035
     46 H23        -0.2997    0.4759   -7.3756 H         1 <0>         0.0971
     47 H24         0.1093    0.1201   -5.6759 H         1 <0>         0.0895
@<TRIPOS>BOND
     1    1    2 1
     2    1   26 1
     3    1   27 1
     4    1   28 1
     5    2    3 1
     6    2    4 1
     7    2    5 1
     8    3   29 1
     9    3   30 1
    10    3   31 1
    11    4   32 1
    12    4   33 1
    13    4   34 1
    14    5   10 ar
    15    5    6 ar
    16    6    7 ar
    17    6   35 1
    18    7    8 ar
    19    7   36 1
    20    8    9 ar
    21    8   11 1
    22    9   10 ar
    23    9   37 1
    24   10   38 1
    25   11   12 2
    26   11   13 2
    27   11   14 1
    28   14   19 1
    29   14   15 1
    30   15   16 1
    31   15   25 1
    32   15   17 1
    33   17   18 1
    34   17   39 1
    35   17   40 1
    36   18   19 1
    37   18   41 1
    38   18   42 1
    39   19   20 1
    40   19   21 1
    41   21   22 1
    42   21   43 1
    43   21   44 1
    44   22   23 2
    45   22   25 1
    46   23   24 1
    47   24   45 1
    48   25   46 1
    49   25   47 1
@<TRIPOS>MOLECULE
CHEMBL597521
   56    60     0     0     0
SMALL
USER_CHARGES

@<TRIPOS>ATOM
      1 C1          4.4437    5.0381   -2.2482 C.ar      1 <0>        -0.1196
      2 C2          5.8192    5.0373   -2.3954 C.ar      1 <0>        -0.1192
      3 C3          6.5398    3.8831   -2.1656 C.ar      1 <0>        -0.1083
      4 C4          5.8788    2.7161   -1.7845 C.ar      1 <0>        -0.0465
      5 C5          4.4923    2.7230   -1.6377 C.ar      1 <0>        -0.1078
      6 C6          3.7823    3.8833   -1.8703 C.ar      1 <0>        -0.1190
      7 C7          6.6471    1.4729   -1.5367 C.ar      1 <0>        -0.0248
      8 C8          8.0354    1.4716   -1.6795 C.ar      1 <0>        -0.1224
      9 C9          8.7481    0.3231   -1.4505 C.ar      1 <0>        -0.0579
     10 C10         8.0822   -0.8491   -1.0730 C.ar      1 <0>        -0.1530
     11 C11         6.6895   -0.8454   -0.9303 C.ar      1 <0>        -0.0722
     12 C12         5.9816    0.3069   -1.1553 C.ar      1 <0>        -0.1211
     13 C13         8.8441   -2.0820   -0.8273 C.2       1 <0>         0.3727
     14 O1         10.0505   -2.0842   -0.9515 O.2       1 <0>        -0.4209
     15 C14         8.1261   -3.3431   -0.4210 C.3       1 <0>         0.0883
     16 N1          9.1000   -4.4221   -0.2377 N.pl3     1 <0>        -0.8788
     17 C15         9.5919   -5.1535   -1.3333 C.2       1 <0>        -0.2326
     18 C16        10.8357   -5.6916   -1.3467 C.2       1 <0>         0.2677
     19 C17        11.7984   -5.5733   -0.2457 C.ar      1 <0>         0.0256
     20 C18        13.1526   -5.8568   -0.4570 C.ar      1 <0>        -0.0987
     21 C19        14.0482   -5.7410    0.5844 C.ar      1 <0>        -0.0825
     22 C20        13.6195   -5.3451    1.8396 C.ar      1 <0>        -0.1448
     23 C21        12.2807   -5.0625    2.0607 C.ar      1 <0>        -0.0306
     24 C22        11.3802   -5.1757    1.0304 C.ar      1 <0>        -0.6484
     25 S1          9.6706   -4.8227    1.2762 S.o2      1 <0>         2.6890
     26 O2          9.5983   -3.6480    2.0724 O.2       1 <0>        -0.9712
     27 O3          9.0461   -6.0443    1.6463 O.2       1 <0>        -0.9553
     28 O4         11.2144   -6.3834   -2.4473 O.3       1 <0>        -0.6607
     29 C23         8.7584   -5.3340   -2.4628 C.2       1 <0>         0.4851
     30 O5          7.6141   -5.7272   -2.3189 O.2       1 <0>        -0.5050
     31 C24         9.2763   -5.0453   -3.8177 C.ar      1 <0>        -0.1249
     32 C25        10.5429   -4.4806   -3.9786 C.ar      1 <0>        -0.0103
     33 C26        11.0199   -4.2138   -5.2452 C.ar      1 <0>        -0.1529
     34 C27        10.2459   -4.5046   -6.3548 C.ar      1 <0>        -0.1065
     35 C28         8.9896   -5.0643   -6.2023 C.ar      1 <0>        -0.1528
     36 C29         8.5030   -5.3414   -4.9417 C.ar      1 <0>        -0.0788
     37 H1          3.8844    5.9449   -2.4247 H         1 <0>         0.1215
     38 H2          6.3301    5.9417   -2.6910 H         1 <0>         0.1236
     39 H3          7.6136    3.8836   -2.2812 H         1 <0>         0.1267
     40 H4          3.9749    1.8220   -1.3431 H         1 <0>         0.1277
     41 H5          2.7083    3.8898   -1.7569 H         1 <0>         0.1240
     42 H6          8.5486    2.3760   -1.9711 H         1 <0>         0.1293
     43 H7          9.8224    0.3225   -1.5615 H         1 <0>         0.1364
     44 H8          6.1736   -1.7486   -0.6396 H         1 <0>         0.1365
     45 H9          4.9076    0.3114   -1.0411 H         1 <0>         0.1312
     46 H10         7.5927   -3.1723    0.5141 H         1 <0>         0.1081
     47 H11         7.4155   -3.6232   -1.1986 H         1 <0>         0.1182
     48 H12        13.4949   -6.1660   -1.4335 H         1 <0>         0.1398
     49 H13        15.0928   -5.9604    0.4195 H         1 <0>         0.1253
     50 H14        14.3296   -5.2566    2.6484 H         1 <0>         0.1267
     51 H15        11.9469   -4.7539    3.0404 H         1 <0>         0.1291
     52 H16        11.1478   -4.2529   -3.1134 H         1 <0>         0.1323
     53 H17        11.9994   -3.7767   -5.3710 H         1 <0>         0.1141
     54 H18        10.6239   -4.2934   -7.3442 H         1 <0>         0.1121
     55 H19         8.3906   -5.2888   -7.0725 H         1 <0>         0.1145
     56 H20         7.5243   -5.7827   -4.8242 H         1 <0>         0.1221
@<TRIPOS>BOND
     1    1    6 ar
     2    1    2 ar
     3    1   37 1
     4    2    3 ar
     5    2   38 1
     6    3    4 ar
     7    3   39 1
     8    4    5 ar
     9    4    7 1
    10    5    6 ar
    11    5   40 1
    12    6   41 1
    13    7   12 ar
    14    7    8 ar
    15    8    9 ar
    16    8   42 1
    17    9   10 ar
    18    9   43 1
    19   10   11 ar
    20   10   13 1
    21   11   12 ar
    22   11   44 1
    23   12   45 1
    24   13   14 2
    25   13   15 1
    26   15   16 1
    27   15   46 1
    28   15   47 1
    29   16   25 1
    30   16   17 1
    31   17   18 2
    32   17   29 1
    33   18   19 1
    34   18   28 1
    35   19   24 ar
    36   19   20 ar
    37   20   21 ar
    38   20   48 1
    39   21   22 ar
    40   21   49 1
    41   22   23 ar
    42   22   50 1
    43   23   24 ar
    44   23   51 1
    45   24   25 1
    46   25   26 2
    47   25   27 2
    48   29   30 2
    49   29   31 1
    50   31   36 ar
    51   31   32 ar
    52   32   33 ar
    53   32   52 1
    54   33   34 ar
    55   33   53 1
    56   34   35 ar
    57   34   54 1
    58   35   36 ar
    59   35   55 1
    60   36   56 1
@<TRIPOS>MOLECULE
CHEMBL1088115
   58    61     0     0     0
SMALL
USER_CHARGES

@<TRIPOS>ATOM
      1 C1          0.0940    1.4224   -0.1968 C.3       1 <0>        -0.1809
      2 C2          0.0293   -0.0978   -0.0357 C.3       1 <0>        -0.0259
      3 N1         -1.3697   -0.5131    0.1331 N.4       1 <0>        -0.3668
      4 C3         -1.4217   -1.9527    0.4208 C.3       1 <0>        -0.0419
      5 C4         -0.7624   -2.2239    1.7485 C.2       1 <0>         0.5012
      6 O1         -0.2951   -1.3080    2.3917 O.2       1 <0>        -0.5263
      7 N2         -0.6920   -3.4841    2.2210 N.am      1 <0>        -0.6954
      8 C5         -0.0510   -3.7477    3.5117 C.3       1 <0>         0.1548
      9 C6          1.4586   -3.8949    3.3109 C.3       1 <0>        -0.0926
     10 C7          1.7351   -5.0588    2.3571 C.3       1 <0>        -0.1074
     11 C8          1.1713   -6.3507    2.9521 C.3       1 <0>        -0.0890
     12 C9          1.8407   -6.6260    4.3000 C.3       1 <0>        -0.1114
     13 C10         1.5643   -5.4621    5.2539 C.3       1 <0>        -0.0906
     14 C11         2.1280   -4.1701    4.6589 C.3       1 <0>        -0.1083
     15 C12         0.0547   -5.3148    5.4547 C.3       1 <0>        -0.1074
     16 C13        -0.6147   -5.0396    4.1068 C.3       1 <0>        -0.0929
     17 C14        -0.3383   -6.2035    3.1529 C.3       1 <0>        -0.1107
     18 C15        -2.1159   -0.2330   -1.1009 C.3       1 <0>         0.0195
     19 C16        -1.5809   -1.1141   -2.2315 C.3       1 <0>        -0.1418
     20 C17        -2.3581   -0.8224   -3.5167 C.3       1 <0>        -0.1175
     21 C18        -3.8419   -1.1226   -3.2947 C.3       1 <0>        -0.1310
     22 C19        -4.3769   -0.2415   -2.1640 C.3       1 <0>        -0.1172
     23 C20        -3.5996   -0.5332   -0.8789 C.3       1 <0>        -0.1414
     24 H1          1.1362    1.7403   -0.2283 H         1 <0>         0.1057
     25 H2         -0.4021    1.7110   -1.1234 H         1 <0>         0.0770
     26 H3         -0.4059    1.8987    0.6466 H         1 <0>         0.0807
     27 H4          0.4455   -0.5752   -0.9227 H         1 <0>         0.1259
     28 H5          0.6048   -0.3951    0.8409 H         1 <0>         0.1465
     29 H6         -2.4612   -2.2784    0.4581 H         1 <0>         0.1588
     30 H7         -0.8977   -2.4991   -0.3634 H         1 <0>         0.1589
     31 H8         -1.0657   -4.2166    1.7066 H         1 <0>         0.4079
     32 H9         -0.2480   -2.9185    4.1913 H         1 <0>         0.0966
     33 H10         1.8602   -2.9745    2.8870 H         1 <0>         0.0728
     34 H11         1.2582   -4.8627    1.3967 H         1 <0>         0.0552
     35 H12         2.8105   -5.1637    2.2140 H         1 <0>         0.0684
     36 H13         1.3683   -7.1799    2.2725 H         1 <0>         0.0749
     37 H14         1.4391   -7.5464    4.7239 H         1 <0>         0.0669
     38 H15         2.9162   -6.7309    4.1569 H         1 <0>         0.0663
     39 H16         2.0412   -5.6582    6.2142 H         1 <0>         0.0783
     40 H17         3.2035   -4.2750    4.5158 H         1 <0>         0.0711
     41 H18         1.9310   -3.3410    5.3384 H         1 <0>         0.0667
     42 H19        -0.3469   -6.2352    5.8786 H         1 <0>         0.0745
     43 H20        -0.1423   -4.4856    6.1343 H         1 <0>         0.0679
     44 H21        -1.6902   -4.9347    4.2498 H         1 <0>         0.0788
     45 H22        -0.8152   -6.0074    2.1926 H         1 <0>         0.0555
     46 H23        -0.7399   -7.1239    3.5768 H         1 <0>         0.0744
     47 H24        -1.9937    0.8163   -1.3691 H         1 <0>         0.1450
     48 H25        -0.5239   -0.9002   -2.3897 H         1 <0>         0.0880
     49 H26        -1.7031   -2.1635   -1.9633 H         1 <0>         0.0857
     50 H27        -2.2359    0.2270   -3.7850 H         1 <0>         0.0753
     51 H28        -1.9770   -1.4501   -4.3222 H         1 <0>         0.0850
     52 H29        -4.3956   -0.9148   -4.2103 H         1 <0>         0.0802
     53 H30        -3.9641   -2.1720   -3.0264 H         1 <0>         0.0696
     54 H31        -4.2547    0.8078   -2.4323 H         1 <0>         0.0757
     55 H32        -5.4339   -0.4554   -2.0059 H         1 <0>         0.0855
     56 H33        -3.7218   -1.5826   -0.6106 H         1 <0>         0.0843
     57 H34        -3.9808    0.0944   -0.0733 H         1 <0>         0.0882
     58 H35        -1.7822   -0.0020    0.8990 H         1 <0>         0.4286
@<TRIPOS>BOND
     1    1    2 1
     2    1   24 1
     3    1   25 1
     4    1   26 1
     5    2    3 1
     6    2   27 1
     7    2   28 1
     8    3    4 1
     9    3   18 1
    10    3   58 1
    11    4    5 1
    12    4   29 1
    13    4   30 1
    14    5    6 2
    15    5    7 am
    16    7    8 1
    17    7   31 1
    18    8   16 1
    19    8    9 1
    20    8   32 1
    21    9   14 1
    22    9   10 1
    23    9   33 1
    24   10   11 1
    25   10   34 1
    26   10   35 1
    27   11   17 1
    28   11   12 1
    29   11   36 1
    30   12   13 1
    31   12   37 1
    32   12   38 1
    33   13   14 1
    34   13   15 1
    35   13   39 1
    36   14   40 1
    37   14   41 1
    38   15   16 1
    39   15   42 1
    40   15   43 1
    41   16   17 1
    42   16   44 1
    43   17   45 1
    44   17   46 1
    45   18   23 1
    46   18   19 1
    47   18   47 1
    48   19   20 1
    49   19   48 1
    50   19   49 1
    51   20   21 1
    52   20   50 1
    53   20   51 1
    54   21   22 1
    55   21   52 1
    56   21   53 1
    57   22   23 1
    58   22   54 1
    59   22   55 1
    60   23   56 1
    61   23   57 1
@<TRIPOS>MOLECULE
CHEMBL238095
   32    33     0     0     0
SMALL
USER_CHARGES

@<TRIPOS>ATOM
      1 C1          1.2088    1.1591    0.1106 C.3       1 <0>        -0.0913
      2 C2          0.4781   -0.1575    0.0489 C.ar      1 <0>        -0.1165
      3 C3          0.3725   -0.8341   -1.1507 C.ar      1 <0>        -0.1136
      4 C4         -0.2981   -2.0418   -1.2082 C.ar      1 <0>        -0.1712
      5 C5         -0.8649   -2.5767   -0.0656 C.ar      1 <0>        -0.1145
      6 C6         -0.7625   -1.9056    1.1369 C.ar      1 <0>        -0.1501
      7 C7         -0.0849   -0.6946    1.1991 C.ar      1 <0>         0.1633
      8 N1          0.0256   -0.0151    2.4166 N.2       1 <0>        -0.5788
      9 C8         -0.0570   -0.7038    3.5928 C.2       1 <0>         0.4182
     10 N2         -0.0467   -2.0146    3.7502 N.2       1 <0>        -0.7374
     11 C9         -0.1294   -2.6168    4.9094 C.2       1 <0>         0.5229
     12 O1         -0.1185   -3.8252    5.0421 O.2       1 <0>        -0.5426
     13 C10        -0.2403   -1.6408    6.0753 C.3       1 <0>        -0.1290
     14 S1         -0.1854   -0.0563    5.1411 S.3       1 <0>        -0.1689
     15 C11         0.9529   -1.7658    7.0248 C.3       1 <0>        -0.0600
     16 C12         0.7361   -0.8596    8.2384 C.3       1 <0>        -0.1438
     17 C13         1.0849   -3.2176    7.4895 C.3       1 <0>        -0.1467
     18 H1          2.2627    0.9801    0.3233 H         1 <0>         0.0524
     19 H2          1.1133    1.6727   -0.8460 H         1 <0>         0.0463
     20 H3          0.7788    1.7767    0.8991 H         1 <0>         0.0721
     21 H4          0.8139   -0.4191   -2.0447 H         1 <0>         0.1080
     22 H5         -0.3799   -2.5685   -2.1475 H         1 <0>         0.1045
     23 H6         -1.3884   -3.5201   -0.1139 H         1 <0>         0.1046
     24 H7         -1.2056   -2.3236    2.0287 H         1 <0>         0.1347
     25 H8         -1.1839   -1.7613    6.6075 H         1 <0>         0.1186
     26 H9          1.8633   -1.4663    6.5057 H         1 <0>         0.0740
     27 H10         1.5861   -0.9488    8.9149 H         1 <0>         0.0548
     28 H11         0.6421    0.1746    7.9073 H         1 <0>         0.0587
     29 H12        -0.1743   -1.1592    8.7575 H         1 <0>         0.0528
     30 H13         1.2393   -3.8632    6.6249 H         1 <0>         0.0779
     31 H14         1.9349   -3.3067    8.1660 H         1 <0>         0.0486
     32 H15         0.1744   -3.5171    8.0086 H         1 <0>         0.0518
@<TRIPOS>BOND
     1    1    2 1
     2    1   18 1
     3    1   19 1
     4    1   20 1
     5    2    7 ar
     6    2    3 ar
     7    3    4 ar
     8    3   21 1
     9    4    5 ar
    10    4   22 1
    11    5    6 ar
    12    5   23 1
    13    6    7 ar
    14    6   24 1
    15    7    8 1
    16    8    9 1
    17    9   14 1
    18    9   10 2
    19   10   11 1
    20   11   12 2
    21   11   13 1
    22   13   14 1
    23   13   15 1
    24   13   25 1
    25   15   16 1
    26   15   17 1
    27   15   26 1
    28   16   27 1
    29   16   28 1
    30   16   29 1
    31   17   30 1
    32   17   31 1
    33   17   32 1
@<TRIPOS>MOLECULE
CHEMBL238095__1
   32    33     0     0     0
SMALL
USER_CHARGES

@<TRIPOS>ATOM
      1 C1          1.2088    1.1591    0.1106 C.3       1 <0>        -0.0911
      2 C2          0.4781   -0.1575    0.0489 C.ar      1 <0>        -0.1169
      3 C3          0.3725   -0.8341   -1.1507 C.ar      1 <0>        -0.1137
      4 C4         -0.2981   -2.0418   -1.2082 C.ar      1 <0>        -0.1715
      5 C5         -0.8648   -2.5767   -0.0656 C.ar      1 <0>        -0.1147
      6 C6         -0.7625   -1.9056    1.1369 C.ar      1 <0>        -0.1501
      7 C7         -0.0849   -0.6946    1.1991 C.ar      1 <0>         0.1639
      8 N1          0.0256   -0.0151    2.4166 N.2       1 <0>        -0.5795
      9 C8         -0.0570   -0.7038    3.5928 C.2       1 <0>         0.4180
     10 N2         -0.0467   -2.0146    3.7502 N.2       1 <0>        -0.7366
     11 C9         -0.1294   -2.6168    4.9094 C.2       1 <0>         0.5247
     12 O1         -0.1185   -3.8252    5.0421 O.2       1 <0>        -0.5489
     13 C10        -0.2403   -1.6408    6.0753 C.3       1 <0>        -0.1324
     14 S1         -0.1854   -0.0563    5.1411 S.3       1 <0>        -0.1601
     15 C11        -1.5648   -1.8099    6.8223 C.3       1 <0>        -0.0588
     16 C12        -1.6286   -0.8115    7.9798 C.3       1 <0>        -0.1449
     17 C13        -2.7281   -1.5529    5.8623 C.3       1 <0>        -0.1533
     18 H1          2.2627    0.9801    0.3233 H         1 <0>         0.0522
     19 H2          1.1133    1.6728   -0.8460 H         1 <0>         0.0461
     20 H3          0.7788    1.7767    0.8991 H         1 <0>         0.0721
     21 H4          0.8140   -0.4191   -2.0447 H         1 <0>         0.1078
     22 H5         -0.3798   -2.5685   -2.1475 H         1 <0>         0.1043
     23 H6         -1.3883   -3.5201   -0.1140 H         1 <0>         0.1044
     24 H7         -1.2055   -2.3237    2.0287 H         1 <0>         0.1349
     25 H8          0.6098   -1.7299    6.7518 H         1 <0>         0.1168
     26 H9         -1.6341   -2.8249    7.2136 H         1 <0>         0.0825
     27 H10        -2.5722   -0.9320    8.5120 H         1 <0>         0.0549
     28 H11        -0.7998   -0.9946    8.6637 H         1 <0>         0.0522
     29 H12        -1.5592    0.2034    7.5885 H         1 <0>         0.0613
     30 H13        -2.6826   -2.2642    5.0377 H         1 <0>         0.0530
     31 H14        -3.6717   -1.6734    6.3945 H         1 <0>         0.0522
     32 H15        -2.6588   -0.5379    5.4710 H         1 <0>         0.0711
@<TRIPOS>BOND
     1    1    2 1
     2    1   18 1
     3    1   19 1
     4    1   20 1
     5    2    7 ar
     6    2    3 ar
     7    3    4 ar
     8    3   21 1
     9    4    5 ar
    10    4   22 1
    11    5    6 ar
    12    5   23 1
    13    6    7 ar
    14    6   24 1
    15    7    8 1
    16    8    9 1
    17    9   14 1
    18    9   10 2
    19   10   11 1
    20   11   12 2
    21   11   13 1
    22   13   14 1
    23   13   15 1
    24   13   25 1
    25   15   16 1
    26   15   17 1
    27   15   26 1
    28   16   27 1
    29   16   28 1
    30   16   29 1
    31   17   30 1
    32   17   31 1
    33   17   32 1
@<TRIPOS>MOLECULE
CHEMBL462337
   59    62     0     0     0
SMALL
USER_CHARGES

@<TRIPOS>ATOM
      1 C1          1.6428    1.6035   10.0274 C.3       1 <0>        -0.1499
      2 C2          2.9437    0.8219    9.8332 C.3       1 <0>         0.1428
      3 C3          2.9063    0.1057    8.5078 C.ar      1 <0>        -0.1041
      4 C4          2.1952    0.6477    7.4519 C.ar      1 <0>        -0.1071
      5 C5          2.1569   -0.0028    6.2359 C.ar      1 <0>        -0.0503
      6 C6          2.8377   -1.2102    6.0722 C.ar      1 <0>        -0.1312
      7 C7          3.5532   -1.7515    7.1414 C.ar      1 <0>        -0.1417
      8 C8          3.5880   -1.0880    8.3505 C.ar      1 <0>        -0.1151
      9 C9          2.8006   -1.9131    4.7720 C.2       1 <0>         0.5667
     10 O1          2.1019   -1.4897    3.8720 O.2       1 <0>        -0.5171
     11 N1          3.5416   -3.0231    4.5847 N.am      1 <0>        -0.5670
     12 C10         3.5958   -3.6533    3.2632 C.3       1 <0>         0.0566
     13 C11         2.7280   -3.0503    2.1569 C.3       1 <0>        -0.2043
     14 C12         4.2458   -2.8595    2.1282 C.3       1 <0>        -0.1893
     15 C13         4.2929   -3.5996    5.7025 C.3       1 <0>         0.1217
     16 C14         5.4640   -2.6812    6.0575 C.3       1 <0>        -0.1768
     17 C15         6.3850   -2.5371    4.8443 C.3       1 <0>        -0.0943
     18 C16         6.9197   -3.9135    4.4436 C.3       1 <0>         0.1020
     19 C17         5.7487   -4.8319    4.0886 C.3       1 <0>        -0.1506
     20 C18         4.8276   -4.9760    5.3017 C.3       1 <0>        -0.1296
     21 C19         7.6746   -4.4927    5.5667 C.1       1 <0>         0.2102
     22 N2          8.2571   -4.9397    6.4335 N.1       1 <0>        -0.4111
     23 C20         7.8269   -3.7715    3.2487 C.ar      1 <0>         0.1223
     24 C21         8.6605   -4.8165    2.8966 C.ar      1 <0>        -0.1316
     25 C22         9.4915   -4.6771    1.7962 C.ar      1 <0>        -0.1030
     26 C23         9.4528   -3.4841    1.0863 C.ar      1 <0>         0.0556
     27 C24         8.5916   -2.4822    1.4994 C.ar      1 <0>         0.0827
     28 N3          7.8119   -2.6542    2.5489 N.ar      1 <0>        -0.4343
     29 F1         10.2454   -3.3036    0.0072 F         1 <0>        -0.1251
     30 C25         4.1285    1.7896    9.8568 C.3       1 <0>         0.4260
     31 F2          4.1632    2.4544   11.0872 F         1 <0>        -0.1716
     32 F3          5.3180    1.0749    9.6792 F         1 <0>        -0.1805
     33 F4          3.9877    2.7244    8.8255 F         1 <0>        -0.1731
     34 O2          3.0874   -0.1329   10.8866 O.3       1 <0>        -0.5192
     35 H1          0.7987    0.9141   10.0106 H         1 <0>         0.0927
     36 H2          1.6698    2.1215   10.9861 H         1 <0>         0.0841
     37 H3          1.5331    2.3318    9.2239 H         1 <0>         0.0899
     38 H4          1.6686    1.5819    7.5800 H         1 <0>         0.1384
     39 H5          1.6011    0.4211    5.4126 H         1 <0>         0.1430
     40 H6          4.0820   -2.6855    7.0212 H         1 <0>         0.1976
     41 H7          4.1448   -1.5035    9.1773 H         1 <0>         0.1297
     42 H8          3.7321   -4.7348    3.2634 H         1 <0>         0.1376
     43 H9          2.2929   -3.7350    1.4289 H         1 <0>         0.0885
     44 H10         2.1167   -2.1847    2.4122 H         1 <0>         0.1642
     45 H11         4.6330   -1.8684    2.3646 H         1 <0>         0.1004
     46 H12         4.8093   -3.4188    1.3813 H         1 <0>         0.0955
     47 H13         3.6367   -3.7023    6.5667 H         1 <0>         0.1142
     48 H14         5.0831   -1.7006    6.3430 H         1 <0>         0.1093
     49 H15         6.0229   -3.1101    6.8892 H         1 <0>         0.0841
     50 H16         5.8261   -2.1082    4.0127 H         1 <0>         0.1040
     51 H17         7.2193   -1.8828    5.0973 H         1 <0>         0.0782
     52 H18         5.1897   -4.4030    3.2569 H         1 <0>         0.1309
     53 H19         6.1296   -5.8125    3.8031 H         1 <0>         0.0801
     54 H20         5.3865   -5.4049    6.1334 H         1 <0>         0.0846
     55 H21         3.9933   -5.6303    5.0488 H         1 <0>         0.0890
     56 H22         8.6645   -5.7303    3.4722 H         1 <0>         0.1426
     57 H23        10.1533   -5.4767    1.4982 H         1 <0>         0.1520
     58 H24         8.5546   -1.5510    0.9535 H         1 <0>         0.1740
     59 H25         3.8922   -0.6657   10.8274 H         1 <0>         0.3862
@<TRIPOS>BOND
     1    1    2 1
     2    1   35 1
     3    1   36 1
     4    1   37 1
     5    2    3 1
     6    2   30 1
     7    2   34 1
     8    3    8 ar
     9    3    4 ar
    10    4    5 ar
    11    4   38 1
    12    5    6 ar
    13    5   39 1
    14    6    7 ar
    15    6    9 1
    16    7    8 ar
    17    7   40 1
    18    8   41 1
    19    9   10 2
    20    9   11 am
    21   11   12 1
    22   11   15 1
    23   12   14 1
    24   12   13 1
    25   12   42 1
    26   13   14 1
    27   13   43 1
    28   13   44 1
    29   14   45 1
    30   14   46 1
    31   15   20 1
    32   15   16 1
    33   15   47 1
    34   16   17 1
    35   16   48 1
    36   16   49 1
    37   17   18 1
    38   17   50 1
    39   17   51 1
    40   18   19 1
    41   18   21 1
    42   18   23 1
    43   19   20 1
    44   19   52 1
    45   19   53 1
    46   20   54 1
    47   20   55 1
    48   21   22 3
    49   23   28 ar
    50   23   24 ar
    51   24   25 ar
    52   24   56 1
    53   25   26 ar
    54   25   57 1
    55   26   27 ar
    56   26   29 1
    57   27   28 ar
    58   27   58 1
    59   30   31 1
    60   30   32 1
    61   30   33 1
    62   34   59 1
@<TRIPOS>MOLECULE
CHEMBL1088517
   50    52     0     0     0
SMALL
USER_CHARGES

@<TRIPOS>ATOM
      1 C1         -0.0187    1.5258    0.0104 C.3       1 <0>        -0.1772
      2 C2          0.0021   -0.0041    0.0020 C.3       1 <0>         0.0879
      3 N1         -1.3723   -0.5112    0.0124 N.am      1 <0>        -0.5797
      4 C3         -2.0716   -0.7579   -1.2510 C.3       1 <0>         0.1473
      5 C4         -3.3300    0.1101   -1.3154 C.3       1 <0>        -0.1331
      6 C5         -4.0603   -0.1476   -2.6349 C.3       1 <0>        -0.1179
      7 C6         -4.4540   -1.6236   -2.7201 C.3       1 <0>        -0.1232
      8 C7         -3.1957   -2.4916   -2.6558 C.3       1 <0>        -0.1177
      9 C8         -2.4653   -2.2339   -1.3363 C.3       1 <0>        -0.1340
     10 C9         -1.9934   -0.7507    1.1843 C.2       1 <0>         0.4992
     11 O1         -3.1312   -1.1705    1.1929 O.2       1 <0>        -0.5211
     12 C10        -1.2740   -0.4969    2.4840 C.3       1 <0>        -0.0456
     13 N2         -2.1589   -0.8333    3.6073 N.4       1 <0>        -0.3584
     14 C11        -1.5715   -0.2879    4.8079 C.3       1 <0>        -0.0154
     15 C12        -2.6190   -0.1598    5.9265 C.3       1 <0>        -0.0579
     16 C13        -2.7794   -1.5440    6.5346 C.2       1 <0>        -0.2959
     17 C14        -2.5091   -1.9247    7.7897 C.2       1 <0>         0.0907
     18 O2         -2.7981   -3.2347    7.8909 O.3       1 <0>        -0.0663
     19 N3         -3.2708   -3.6769    6.6276 N.2       1 <0>        -0.2803
     20 C15        -3.2557   -2.6605    5.8253 C.2       1 <0>         0.0813
     21 C16        -3.6688   -2.6205    4.3626 C.3       1 <0>        -0.0562
     22 C17        -2.4103   -2.2540    3.5583 C.3       1 <0>        -0.0140
     23 H1          1.0039    1.9031    0.0027 H         1 <0>         0.0814
     24 H2         -0.5459    1.8868   -0.8726 H         1 <0>         0.0701
     25 H3         -0.5289    1.8773    0.9072 H         1 <0>         0.0544
     26 H4          0.5123   -0.3556   -0.8948 H         1 <0>         0.0991
     27 H5          0.5293   -0.3651    0.8851 H         1 <0>         0.0822
     28 H6         -1.4150   -0.5083   -2.0845 H         1 <0>         0.0979
     29 H7         -3.9866   -0.1395   -0.4819 H         1 <0>         0.0843
     30 H8         -3.0495    1.1616   -1.2547 H         1 <0>         0.0623
     31 H9         -4.9568    0.4708   -2.6808 H         1 <0>         0.0698
     32 H10        -3.4037    0.1020   -3.4684 H         1 <0>         0.0646
     33 H11        -5.1106   -1.8732   -1.8867 H         1 <0>         0.0645
     34 H12        -4.9743   -1.8072   -3.6602 H         1 <0>         0.0679
     35 H13        -3.4761   -3.5431   -2.7165 H         1 <0>         0.0700
     36 H14        -2.5391   -2.2420   -3.4892 H         1 <0>         0.0648
     37 H15        -1.5689   -2.8523   -1.2904 H         1 <0>         0.0625
     38 H16        -3.1219   -2.4835   -0.5028 H         1 <0>         0.0838
     39 H17        -0.3776   -1.1152    2.5299 H         1 <0>         0.1598
     40 H18        -0.9936    0.5547    2.5447 H         1 <0>         0.1616
     41 H19        -0.7684   -0.9441    5.1432 H         1 <0>         0.1322
     42 H20        -1.1596    0.6973    4.5890 H         1 <0>         0.1421
     43 H21        -2.2715    0.5425    6.6842 H         1 <0>         0.1268
     44 H22        -3.5687    0.1775    5.5113 H         1 <0>         0.1006
     45 H23        -2.1279   -1.2935    8.5789 H         1 <0>         0.2221
     46 H24        -4.0380   -3.5981    4.0524 H         1 <0>         0.1336
     47 H25        -4.4402   -1.8649    4.2134 H         1 <0>         0.1194
     48 H26        -2.5480   -2.5574    2.5205 H         1 <0>         0.1579
     49 H27        -1.5531   -2.7835    3.9741 H         1 <0>         0.1278
     50 H28        -3.0371   -0.3606    3.4536 H         1 <0>         0.4241
@<TRIPOS>BOND
     1    1    2 1
     2    1   23 1
     3    1   24 1
     4    1   25 1
     5    2    3 1
     6    2   26 1
     7    2   27 1
     8    3    4 1
     9    3   10 am
    10    4    9 1
    11    4    5 1
    12    4   28 1
    13    5    6 1
    14    5   29 1
    15    5   30 1
    16    6    7 1
    17    6   31 1
    18    6   32 1
    19    7    8 1
    20    7   33 1
    21    7   34 1
    22    8    9 1
    23    8   35 1
    24    8   36 1
    25    9   37 1
    26    9   38 1
    27   10   11 2
    28   10   12 1
    29   12   13 1
    30   12   39 1
    31   12   40 1
    32   13   22 1
    33   13   14 1
    34   13   50 1
    35   14   15 1
    36   14   41 1
    37   14   42 1
    38   15   16 1
    39   15   43 1
    40   15   44 1
    41   16   20 1
    42   16   17 2
    43   17   18 1
    44   17   45 1
    45   18   19 1
    46   19   20 2
    47   20   21 1
    48   21   22 1
    49   21   46 1
    50   21   47 1
    51   22   48 1
    52   22   49 1
@<TRIPOS>MOLECULE
CHEMBL518644
   57    60     0     0     0
SMALL
USER_CHARGES

@<TRIPOS>ATOM
      1 C1          9.2795   -0.3675    4.8860 C.3       1 <0>        -0.1499
      2 C2          8.3866   -0.4337    6.1267 C.3       1 <0>         0.1433
      3 C3          6.9975   -0.8569    5.7238 C.ar      1 <0>        -0.1113
      4 C4          6.5170   -0.5357    4.4666 C.ar      1 <0>        -0.0989
      5 C5          5.2463   -0.9202    4.0915 C.ar      1 <0>        -0.0591
      6 C6          4.4449   -1.6346    4.9834 C.ar      1 <0>        -0.1189
      7 C7          4.9356   -1.9553    6.2501 C.ar      1 <0>        -0.1465
      8 C8          6.2102   -1.5697    6.6106 C.ar      1 <0>        -0.1029
      9 C9          3.0819   -2.0493    4.5883 C.2       1 <0>         0.5651
     10 O1          2.4663   -1.4052    3.7615 O.2       1 <0>        -0.5131
     11 N1          2.5220   -3.1417    5.1449 N.am      1 <0>        -0.5749
     12 C10         1.3830   -3.7935    4.4937 C.3       1 <0>         0.0607
     13 C11         0.9785   -3.2890    3.1071 C.3       1 <0>        -0.1941
     14 C12         0.1032   -2.9729    4.3215 C.3       1 <0>        -0.1855
     15 C13         3.0524   -3.6772    6.4012 C.3       1 <0>         0.1284
     16 C14         2.3839   -5.0192    6.7060 C.3       1 <0>        -0.1308
     17 C15         0.8726   -4.8186    6.8349 C.3       1 <0>        -0.1466
     18 C16         0.5837   -3.8352    7.9708 C.3       1 <0>         0.0780
     19 C17         1.2521   -2.4932    7.6660 C.3       1 <0>        -0.1078
     20 C18         2.7634   -2.6938    7.5371 C.3       1 <0>        -0.1707
     21 C19         1.1166   -4.3733    9.2331 C.1       1 <0>         0.2155
     22 N2          1.5278   -4.7886   10.2072 N.1       1 <0>        -0.4303
     23 C20        -0.9276   -3.6346    8.0997 C.3       1 <0>        -0.1510
     24 C21        -1.4938   -2.2659    7.7162 C.3       1 <0>        -0.1668
     25 C22        -1.4233   -2.6797    9.1875 C.3       1 <0>        -0.1783
     26 C23         8.3282    0.9452    6.7871 C.3       1 <0>         0.4260
     27 F1          7.8017    1.8736    5.8826 F         1 <0>        -0.1731
     28 F2          7.5117    0.8847    7.9215 F         1 <0>        -0.1806
     29 F3          9.6177    1.3381    7.1611 F         1 <0>        -0.1714
     30 O2          8.9243   -1.3820    7.0505 O.3       1 <0>        -0.5192
     31 H1          8.8693    0.3559    4.1813 H         1 <0>         0.0898
     32 H2         10.2842   -0.0614    5.1774 H         1 <0>         0.0844
     33 H3          9.3211   -1.3498    4.4155 H         1 <0>         0.0926
     34 H4          7.1381    0.0174    3.7776 H         1 <0>         0.1390
     35 H5          4.8724   -0.6686    3.1101 H         1 <0>         0.1405
     36 H6          4.3205   -2.5078    6.9449 H         1 <0>         0.1886
     37 H7          6.5928   -1.8211    7.5888 H         1 <0>         0.1297
     38 H8          1.2743   -4.8595    4.6933 H         1 <0>         0.1430
     39 H9          1.5598   -2.4721    2.6793 H         1 <0>         0.1363
     40 H10         0.6037   -4.0232    2.3940 H         1 <0>         0.0937
     41 H11        -0.8474   -3.4991    4.4074 H         1 <0>         0.1002
     42 H12         0.1087   -1.9481    4.6927 H         1 <0>         0.1000
     43 H13         4.1291   -3.8201    6.3094 H         1 <0>         0.1027
     44 H14         2.5897   -5.7198    5.8968 H         1 <0>         0.0844
     45 H15         2.7785   -5.4177    7.6407 H         1 <0>         0.0813
     46 H16         0.4780   -4.4202    5.9002 H         1 <0>         0.1247
     47 H17         0.3963   -5.7747    7.0521 H         1 <0>         0.0777
     48 H18         0.8575   -2.0947    6.7313 H         1 <0>         0.0966
     49 H19         1.0463   -1.7926    8.4752 H         1 <0>         0.0760
     50 H20         3.1581   -3.0923    8.4718 H         1 <0>         0.0848
     51 H21         3.2397   -1.7377    7.3199 H         1 <0>         0.0985
     52 H22        -1.5384   -4.5110    7.8828 H         1 <0>         0.1169
     53 H23        -0.7896   -1.5084    7.3721 H         1 <0>         0.1037
     54 H24        -2.4773   -2.2416    7.2467 H         1 <0>         0.1007
     55 H25        -2.3604   -2.9276    9.6860 H         1 <0>         0.0990
     56 H26        -0.6727   -2.1944    9.8113 H         1 <0>         0.0937
     57 H27         8.4079   -1.4762    7.8627 H         1 <0>         0.3864
@<TRIPOS>BOND
     1    1    2 1
     2    1   31 1
     3    1   32 1
     4    1   33 1
     5    2    3 1
     6    2   26 1
     7    2   30 1
     8    3    8 ar
     9    3    4 ar
    10    4    5 ar
    11    4   34 1
    12    5    6 ar
    13    5   35 1
    14    6    7 ar
    15    6    9 1
    16    7    8 ar
    17    7   36 1
    18    8   37 1
    19    9   10 2
    20    9   11 am
    21   11   12 1
    22   11   15 1
    23   12   14 1
    24   12   13 1
    25   12   38 1
    26   13   14 1
    27   13   39 1
    28   13   40 1
    29   14   41 1
    30   14   42 1
    31   15   20 1
    32   15   16 1
    33   15   43 1
    34   16   17 1
    35   16   44 1
    36   16   45 1
    37   17   18 1
    38   17   46 1
    39   17   47 1
    40   18   19 1
    41   18   21 1
    42   18   23 1
    43   19   20 1
    44   19   48 1
    45   19   49 1
    46   20   50 1
    47   20   51 1
    48   21   22 3
    49   23   25 1
    50   23   24 1
    51   23   52 1
    52   24   25 1
    53   24   53 1
    54   24   54 1
    55   25   55 1
    56   25   56 1
    57   26   27 1
    58   26   28 1
    59   26   29 1
    60   30   57 1
@<TRIPOS>MOLECULE
CHEMBL217917
   58    62     0     0     0
SMALL
USER_CHARGES

@<TRIPOS>ATOM
      1 C1         -0.0837    1.4073    0.0797 C.3       1 <0>        -0.1773
      2 C2         -0.2680   -0.1014   -0.0955 C.3       1 <0>         0.0035
      3 C3          0.2014   -0.8126    1.1474 C.2       1 <0>         0.5048
      4 O1          1.1022   -1.6218    1.0794 O.2       1 <0>        -0.5222
      5 N1         -0.3797   -0.5493    2.3346 N.am      1 <0>        -0.6969
      6 C4          0.0766   -1.2406    3.5429 C.3       1 <0>         0.1530
      7 C5         -0.6364   -2.5894    3.6588 C.3       1 <0>        -0.0901
      8 C6         -0.1598   -3.3114    4.9207 C.3       1 <0>        -0.1109
      9 C7         -0.4809   -2.4575    6.1490 C.3       1 <0>        -0.0879
     10 C8          0.2321   -1.1088    6.0330 C.3       1 <0>        -0.1105
     11 C9         -0.2445   -0.3867    4.7711 C.3       1 <0>        -0.0905
     12 C10        -1.7553   -0.1595    4.8534 C.3       1 <0>        -0.1007
     13 C11        -2.4683   -1.5082    4.9693 C.3       1 <0>         0.1349
     14 C12        -1.9917   -2.2303    6.2313 C.3       1 <0>        -0.1411
     15 C13        -2.1472   -2.3621    3.7411 C.3       1 <0>        -0.1364
     16 O2         -3.8794   -1.2960    5.0462 O.3       1 <0>        -0.5598
     17 N2          0.5181   -0.5600   -1.2486 N.4       1 <0>        -0.3931
     18 C14        -0.1554   -0.3407   -2.5422 C.3       1 <0>         0.0101
     19 C15         0.4051   -1.6944   -3.0003 C.3       1 <0>         0.0393
     20 C16         0.4030   -2.0091   -1.4978 C.3       1 <0>        -0.0096
     21 O3          1.7087   -1.6216   -3.5811 O.3       1 <0>        -0.2848
     22 C17         2.0775   -2.6423   -4.4000 C.ar      1 <0>         0.0719
     23 C18         1.2566   -3.7509   -4.5412 C.ar      1 <0>        -0.1746
     24 C19         1.6334   -4.7872   -5.3740 C.ar      1 <0>        -0.0869
     25 C20         2.8281   -4.7207   -6.0666 C.ar      1 <0>        -0.1066
     26 C21         3.6498   -3.6174   -5.9284 C.ar      1 <0>        -0.1126
     27 C22         3.2747   -2.5741   -5.1012 C.ar      1 <0>         0.0862
     28 F1          4.0745   -1.4931   -4.9706 F         1 <0>        -0.1278
     29 H1          0.9705    1.6274    0.2480 H         1 <0>         0.0888
     30 H2         -0.4233    1.9217   -0.8193 H         1 <0>         0.0966
     31 H3         -0.6670    1.7477    0.9353 H         1 <0>         0.1087
     32 H4         -1.3222   -0.3215   -0.2638 H         1 <0>         0.1620
     33 H5         -1.1002    0.0980    2.3890 H         1 <0>         0.4077
     34 H6          1.1529   -1.4025    3.4843 H         1 <0>         0.1002
     35 H7         -0.4076   -3.1977    2.7838 H         1 <0>         0.0773
     36 H8         -0.6677   -4.2723    5.0033 H         1 <0>         0.0727
     37 H9          0.9165   -3.4733    4.8621 H         1 <0>         0.0712
     38 H10        -0.1414   -2.9719    7.0480 H         1 <0>         0.0833
     39 H11         0.0033   -0.5004    6.9080 H         1 <0>         0.0779
     40 H12         1.3084   -1.2706    5.9744 H         1 <0>         0.0728
     41 H13         0.2634    0.5741    4.6885 H         1 <0>         0.0875
     42 H14        -1.9841    0.4488    5.7284 H         1 <0>         0.0823
     43 H15        -2.0949    0.3549    3.9544 H         1 <0>         0.0630
     44 H16        -2.4997   -3.1911    6.3139 H         1 <0>         0.0692
     45 H17        -2.2205   -1.6219    7.1063 H         1 <0>         0.0760
     46 H18        -2.4867   -1.8478    2.8421 H         1 <0>         0.0640
     47 H19        -2.6552   -3.3230    3.8237 H         1 <0>         0.0710
     48 H20        -4.3960   -2.1100    5.1216 H         1 <0>         0.3809
     49 H21        -1.2428   -0.3236   -2.4682 H         1 <0>         0.1710
     50 H22         0.2431    0.5059   -3.1012 H         1 <0>         0.1513
     51 H23        -0.2951   -2.2934   -3.5827 H         1 <0>         0.1488
     52 H24         1.2748   -2.5764   -1.1717 H         1 <0>         0.1509
     53 H25        -0.5353   -2.4371   -1.1451 H         1 <0>         0.1598
     54 H26         0.3234   -3.8045   -4.0002 H         1 <0>         0.1391
     55 H27         0.9938   -5.6505   -5.4837 H         1 <0>         0.1412
     56 H28         3.1202   -5.5323   -6.7165 H         1 <0>         0.1444
     57 H29         4.5830   -3.5682   -6.4700 H         1 <0>         0.1516
     58 H30         1.4716   -0.2305   -1.2307 H         1 <0>         0.4456
@<TRIPOS>BOND
     1    1    2 1
     2    1   29 1
     3    1   30 1
     4    1   31 1
     5    2    3 1
     6    2   17 1
     7    2   32 1
     8    3    4 2
     9    3    5 am
    10    5    6 1
    11    5   33 1
    12    6   11 1
    13    6    7 1
    14    6   34 1
    15    7   15 1
    16    7    8 1
    17    7   35 1
    18    8    9 1
    19    8   36 1
    20    8   37 1
    21    9   14 1
    22    9   10 1
    23    9   38 1
    24   10   11 1
    25   10   39 1
    26   10   40 1
    27   11   12 1
    28   11   41 1
    29   12   13 1
    30   12   42 1
    31   12   43 1
    32   13   14 1
    33   13   15 1
    34   13   16 1
    35   14   44 1
    36   14   45 1
    37   15   46 1
    38   15   47 1
    39   16   48 1
    40   17   20 1
    41   17   18 1
    42   17   58 1
    43   18   19 1
    44   18   49 1
    45   18   50 1
    46   19   20 1
    47   19   21 1
    48   19   51 1
    49   20   52 1
    50   20   53 1
    51   21   22 1
    52   22   27 ar
    53   22   23 ar
    54   23   24 ar
    55   23   54 1
    56   24   25 ar
    57   24   55 1
    58   25   26 ar
    59   25   56 1
    60   26   27 ar
    61   26   57 1
    62   27   28 1
@<TRIPOS>MOLECULE
CHEMBL217917__1
   57    61     0     0     0
SMALL
USER_CHARGES

@<TRIPOS>ATOM
      1 C1          0.2177    1.0542   -0.4412 C.3       1 <0>        -0.1404
      2 C2          0.1172   -0.4644   -0.2840 C.3       1 <0>         0.0248
      3 C3          0.6370   -1.1339   -1.5300 C.2       1 <0>         0.5198
      4 O1         -0.0903   -1.8555   -2.1791 O.2       1 <0>        -0.5160
      5 N1          1.9100   -0.9308   -1.9232 N.am      1 <0>        -0.7257
      6 C4          2.4153   -1.5816   -3.1345 C.3       1 <0>         0.1572
      7 C5          2.9009   -2.9914   -2.7913 C.3       1 <0>        -0.0924
      8 C6          3.4286   -3.6711   -4.0564 C.3       1 <0>        -0.1095
      9 C7          4.5911   -2.8559   -4.6263 C.3       1 <0>        -0.0858
     10 C8          4.1056   -1.4462   -4.9695 C.3       1 <0>        -0.1088
     11 C9          3.5779   -0.7664   -3.7044 C.3       1 <0>        -0.0906
     12 C10         4.6983   -0.6812   -2.6660 C.3       1 <0>        -0.0985
     13 C11         5.1839   -2.0910   -2.3228 C.3       1 <0>         0.1353
     14 C12         5.7116   -2.7707   -3.5879 C.3       1 <0>        -0.1373
     15 C13         4.0213   -2.9062   -1.7529 C.3       1 <0>        -0.1344
     16 O2          6.2304   -2.0114   -1.3530 O.3       1 <0>        -0.5611
     17 N2         -1.2865   -0.8431   -0.0738 N.3       1 <0>        -0.4339
     18 C14        -1.7362   -0.4740    1.2814 C.3       1 <0>         0.0026
     19 C15        -2.4684   -1.8218    1.3451 C.3       1 <0>         0.0502
     20 C16        -1.3973   -2.2558    0.3347 C.3       1 <0>        -0.0099
     21 O3         -3.7951   -1.7926    0.8151 O.3       1 <0>        -0.2688
     22 C17        -4.6565   -2.7483    1.2544 C.ar      1 <0>         0.0973
     23 C18        -4.2021   -3.7679    2.0770 C.ar      1 <0>        -0.1842
     24 C19        -5.0792   -4.7382    2.5224 C.ar      1 <0>        -0.0891
     25 C20        -6.4096   -4.6944    2.1487 C.ar      1 <0>        -0.1287
     26 C21        -6.8669   -3.6798    1.3283 C.ar      1 <0>        -0.1158
     27 C22        -5.9947   -2.7020    0.8848 C.ar      1 <0>         0.0704
     28 F1         -6.4424   -1.7070    0.0881 F         1 <0>        -0.1305
     29 H1          1.2662    1.3435   -0.5127 H         1 <0>         0.0657
     30 H2         -0.3065    1.3613   -1.3462 H         1 <0>         0.0718
     31 H3         -0.2350    1.5397    0.4233 H         1 <0>         0.0700
     32 H4          0.7112   -0.7810    0.5733 H         1 <0>         0.0737
     33 H5          2.4917   -0.3537   -1.4040 H         1 <0>         0.3982
     34 H6          1.6171   -1.6424   -3.8742 H         1 <0>         0.0922
     35 H7          2.0726   -3.5722   -2.3853 H         1 <0>         0.0778
     36 H8          3.7745   -4.6754   -3.8119 H         1 <0>         0.0672
     37 H9          2.6303   -3.7318   -4.7961 H         1 <0>         0.0693
     38 H10         4.9671   -3.3402   -5.5275 H         1 <0>         0.0778
     39 H11         4.9338   -0.8654   -5.3754 H         1 <0>         0.0719
     40 H12         3.3073   -1.5069   -5.7092 H         1 <0>         0.0708
     41 H13         3.2319    0.2379   -3.9489 H         1 <0>         0.0851
     42 H14         5.5266   -0.1005   -3.0720 H         1 <0>         0.0758
     43 H15         4.3224   -0.1970   -1.7647 H         1 <0>         0.0660
     44 H16         6.0575   -3.7750   -3.3434 H         1 <0>         0.0654
     45 H17         6.5398   -2.1899   -3.9939 H         1 <0>         0.0718
     46 H18         3.6454   -2.4219   -0.8517 H         1 <0>         0.0678
     47 H19         4.3673   -3.9105   -1.5084 H         1 <0>         0.0650
     48 H20         6.5871   -2.8702   -1.0878 H         1 <0>         0.3768
     49 H21        -0.9219   -0.3878    2.0007 H         1 <0>         0.0900
     50 H22        -2.4065    0.3854    1.2975 H         1 <0>         0.1025
     51 H23        -2.3994   -2.3219    2.3112 H         1 <0>         0.1000
     52 H24        -1.7802   -2.9064   -0.4515 H         1 <0>         0.1022
     53 H25        -0.4924   -2.6451    0.8015 H         1 <0>         0.0795
     54 H26        -3.1630   -3.8037    2.3691 H         1 <0>         0.1381
     55 H27        -4.7250   -5.5323    3.1630 H         1 <0>         0.1328
     56 H28        -7.0929   -5.4544    2.4980 H         1 <0>         0.1354
     57 H29        -7.9065   -3.6482    1.0372 H         1 <0>         0.1432
@<TRIPOS>BOND
     1    1    2 1
     2    1   29 1
     3    1   30 1
     4    1   31 1
     5    2    3 1
     6    2   17 1
     7    2   32 1
     8    3    4 2
     9    3    5 am
    10    5    6 1
    11    5   33 1
    12    6   11 1
    13    6    7 1
    14    6   34 1
    15    7   15 1
    16    7    8 1
    17    7   35 1
    18    8    9 1
    19    8   36 1
    20    8   37 1
    21    9   14 1
    22    9   10 1
    23    9   38 1
    24   10   11 1
    25   10   39 1
    26   10   40 1
    27   11   12 1
    28   11   41 1
    29   12   13 1
    30   12   42 1
    31   12   43 1
    32   13   14 1
    33   13   15 1
    34   13   16 1
    35   14   44 1
    36   14   45 1
    37   15   46 1
    38   15   47 1
    39   16   48 1
    40   17   20 1
    41   17   18 1
    42   18   19 1
    43   18   49 1
    44   18   50 1
    45   19   20 1
    46   19   21 1
    47   19   51 1
    48   20   52 1
    49   20   53 1
    50   21   22 1
    51   22   27 ar
    52   22   23 ar
    53   23   24 ar
    54   23   54 1
    55   24   25 ar
    56   24   55 1
    57   25   26 ar
    58   25   56 1
    59   26   27 ar
    60   26   57 1
    61   27   28 1
@<TRIPOS>MOLECULE
CHEMBL218943
   62    65     0     0     0
SMALL
USER_CHARGES

@<TRIPOS>ATOM
      1 C1         -5.9646   -0.0942   -2.7903 C.3       1 <0>        -0.1534
      2 C2         -5.9074   -1.6232   -2.7966 C.3       1 <0>         0.0517
      3 O1         -5.1815   -2.0680   -3.9443 O.3       1 <0>        -0.3460
      4 C3         -5.0394   -3.3937   -4.0993 C.2       1 <0>         0.4954
      5 O2         -5.5154   -4.1514   -3.2874 O.2       1 <0>        -0.4996
      6 C4         -4.2860   -3.9371   -5.2860 C.3       1 <0>        -0.1637
      7 C5         -3.4768   -5.2194   -5.0813 C.3       1 <0>        -0.1143
      8 H1         -3.4256   -5.9310   -5.9053 H         1 <0>         0.1199
      9 C6         -2.7580   -3.8702   -5.2427 C.3       1 <0>        -0.1217
     10 H2         -2.2260   -3.6794   -6.1747 H         1 <0>         0.1212
     11 C7         -2.1184   -3.3048   -3.9649 C.3       1 <0>        -0.0854
     12 C8         -0.8688   -4.1177   -3.6345 C.3       1 <0>        -0.1314
     13 C9         -1.1896   -5.2787   -2.7143 C.3       1 <0>         0.1642
     14 C10        -2.0523   -6.3394   -3.3688 C.3       1 <0>        -0.1276
     15 C11        -3.4708   -5.8250   -3.6689 C.3       1 <0>        -0.1052
     16 N1         -1.8899   -4.7646   -1.5347 N.am      1 <0>        -0.6125
     17 C12        -2.9246   -5.5013   -0.7995 C.3       1 <0>         0.0985
     18 C13        -3.0475   -4.7878    0.5652 C.3       1 <0>        -0.0976
     19 C14        -2.5573   -3.3623    0.2209 C.3       1 <0>        -0.0852
     20 C15        -1.6632   -3.5598   -0.9833 C.2       1 <0>         0.5253
     21 O3         -0.8606   -2.7482   -1.3931 O.2       1 <0>        -0.5162
     22 C16        -3.7416   -2.4583   -0.1272 C.3       1 <0>        -0.1364
     23 C17        -1.7580   -2.7750    1.3859 C.3       1 <0>        -0.1386
     24 C18        -2.1396   -5.4419    1.6087 C.3       1 <0>         0.0771
     25 O4         -2.6049   -6.7650    1.8826 O.3       1 <0>        -0.2967
     26 C19        -1.9061   -7.4870    2.7923 C.ar      1 <0>         0.3524
     27 C20        -2.3098   -8.7838    3.0946 C.ar      1 <0>        -0.1884
     28 C21        -1.5945   -9.5143    4.0211 C.ar      1 <0>         0.0081
     29 C22        -0.4797   -8.9144    4.6257 C.ar      1 <0>        -0.1211
     30 C23        -0.1379   -7.6090    4.2697 C.ar      1 <0>         0.2001
     31 N2         -0.8464   -6.9501    3.3763 N.ar      1 <0>        -0.5381
     32 C24         0.2954   -9.6303    5.5938 C.1       1 <0>         0.2569
     33 N3          0.9103  -10.1983    6.3618 N.1       1 <0>        -0.4071
     34 H3         -4.9517    0.3071   -2.7577 H         1 <0>         0.0677
     35 H4         -6.4646    0.2544   -3.6940 H         1 <0>         0.0671
     36 H5         -6.5183    0.2451   -1.9149 H         1 <0>         0.0805
     37 H6         -5.4074   -1.9717   -1.8929 H         1 <0>         0.0720
     38 H7         -6.9203   -2.0245   -2.8293 H         1 <0>         0.0672
     39 H8         -4.7682   -3.7961   -6.2533 H         1 <0>         0.1401
     40 H9         -1.8437   -2.2622   -4.1249 H         1 <0>         0.0727
     41 H10        -2.8277   -3.3745   -3.1402 H         1 <0>         0.0637
     42 H11        -0.4401   -4.5039   -4.5593 H         1 <0>         0.0740
     43 H12        -0.1398   -3.4690   -3.1488 H         1 <0>         0.0949
     44 H13        -0.2552   -5.7378   -2.3912 H         1 <0>         0.0697
     45 H14        -1.5849   -6.6528   -4.3023 H         1 <0>         0.0809
     46 H15        -2.1266   -7.1991   -2.7028 H         1 <0>         0.0692
     47 H16        -3.7419   -5.0591   -2.9423 H         1 <0>         0.0932
     48 H17        -4.1867   -6.6456   -3.6207 H         1 <0>         0.0744
     49 H18        -3.8726   -5.4561   -1.3355 H         1 <0>         0.0875
     50 H19        -2.6201   -6.5381   -0.6570 H         1 <0>         0.0853
     51 H20        -4.0828   -4.7727    0.9057 H         1 <0>         0.1102
     52 H21        -4.4196   -2.4037    0.7245 H         1 <0>         0.0737
     53 H22        -3.3779   -1.4591   -0.3667 H         1 <0>         0.0703
     54 H23        -4.2710   -2.8682   -0.9873 H         1 <0>         0.0615
     55 H24        -0.8936   -3.4073    1.5888 H         1 <0>         0.0635
     56 H25        -1.4210   -1.7715    1.1259 H         1 <0>         0.0711
     57 H26        -2.3898   -2.7277    2.2728 H         1 <0>         0.0691
     58 H27        -1.1200   -5.4873    1.2259 H         1 <0>         0.0733
     59 H28        -2.1575   -4.8533    2.5259 H         1 <0>         0.0827
     60 H29        -3.1737   -9.2137    2.6096 H         1 <0>         0.1549
     61 H30        -1.8857  -10.5229    4.2749 H         1 <0>         0.1534
     62 H31         0.7179   -7.1361    4.7283 H         1 <0>         0.1715
@<TRIPOS>BOND
     1    1    2 1
     2    1   34 1
     3    1   35 1
     4    1   36 1
     5    2    3 1
     6    2   37 1
     7    2   38 1
     8    3    4 1
     9    4    5 2
    10    4    6 1
    11    6    9 1
    12    6    7 1
    13    6   39 1
    14    7    8 1
    15    7   15 1
    16    7    9 1
    17    9   10 1
    18    9   11 1
    19   11   12 1
    20   11   40 1
    21   11   41 1
    22   12   13 1
    23   12   42 1
    24   12   43 1
    25   13   14 1
    26   13   16 1
    27   13   44 1
    28   14   15 1
    29   14   45 1
    30   14   46 1
    31   15   47 1
    32   15   48 1
    33   16   20 am
    34   16   17 1
    35   17   18 1
    36   17   49 1
    37   17   50 1
    38   18   19 1
    39   18   24 1
    40   18   51 1
    41   19   20 1
    42   19   22 1
    43   19   23 1
    44   20   21 2
    45   22   52 1
    46   22   53 1
    47   22   54 1
    48   23   55 1
    49   23   56 1
    50   23   57 1
    51   24   25 1
    52   24   58 1
    53   24   59 1
    54   25   26 1
    55   26   31 ar
    56   26   27 ar
    57   27   28 ar
    58   27   60 1
    59   28   29 ar
    60   28   61 1
    61   29   30 ar
    62   29   32 1
    63   30   31 ar
    64   30   62 1
    65   32   33 3
@<TRIPOS>MOLECULE
CHEMBL218943__1
   62    65     0     0     0
SMALL
USER_CHARGES

@<TRIPOS>ATOM
      1 C1         -5.9943   -0.1102   -2.8015 C.3       1 <0>        -0.1533
      2 C2         -5.9248   -1.6386   -2.8004 C.3       1 <0>         0.0525
      3 O1         -5.1995   -2.0833   -3.9486 O.3       1 <0>        -0.3460
      4 C3         -5.0473   -3.4086   -4.0975 C.2       1 <0>         0.4952
      5 O2         -5.5143   -4.1660   -3.2802 O.2       1 <0>        -0.4993
      6 C4         -4.2938   -3.9518   -5.2842 C.3       1 <0>        -0.1639
      7 C5         -3.4803   -5.2311   -5.0782 C.3       1 <0>        -0.1144
      8 H1         -3.4279   -5.9442   -5.9010 H         1 <0>         0.1200
      9 C6         -2.7660   -3.8800   -5.2432 C.3       1 <0>        -0.1215
     10 H2         -2.2359   -3.6893   -6.1763 H         1 <0>         0.1214
     11 C7         -2.1264   -3.3101   -3.9673 C.3       1 <0>        -0.0857
     12 C8         -0.8738   -4.1184   -3.6371 C.3       1 <0>        -0.1317
     13 C9         -1.1896   -5.2787   -2.7143 C.3       1 <0>         0.1637
     14 C10        -2.0498   -6.3434   -3.3656 C.3       1 <0>        -0.1279
     15 C11        -3.4704   -5.8341   -3.6647 C.3       1 <0>        -0.1055
     16 N1         -1.8899   -4.7646   -1.5347 N.am      1 <0>        -0.6129
     17 C12        -2.9246   -5.5013   -0.7995 C.3       1 <0>         0.1001
     18 C13        -3.0475   -4.7878    0.5652 C.3       1 <0>        -0.0974
     19 C14        -2.5573   -3.3623    0.2209 C.3       1 <0>        -0.0853
     20 C15        -1.6632   -3.5598   -0.9833 C.2       1 <0>         0.5278
     21 O3         -0.8606   -2.7482   -1.3931 O.2       1 <0>        -0.5160
     22 C16        -3.7416   -2.4583   -0.1272 C.3       1 <0>        -0.1444
     23 C17        -1.7580   -2.7750    1.3859 C.3       1 <0>        -0.1317
     24 C18        -4.5008   -4.7666    1.0431 C.3       1 <0>         0.0792
     25 O4         -4.9287   -6.1004    1.3259 O.3       1 <0>        -0.2964
     26 C19        -6.2018   -6.2585    1.7633 C.ar      1 <0>         0.3538
     27 C20        -6.6714   -7.5342    2.0599 C.ar      1 <0>        -0.1884
     28 C21        -7.9682   -7.6891    2.5052 C.ar      1 <0>         0.0081
     29 C22        -8.7670   -6.5439    2.6419 C.ar      1 <0>        -0.1218
     30 C23        -8.2236   -5.2984    2.3243 C.ar      1 <0>         0.2000
     31 N2         -6.9786   -5.1963    1.9073 N.ar      1 <0>        -0.5374
     32 C24       -10.1195   -6.6515    3.0999 C.1       1 <0>         0.2573
     33 N3        -11.1925   -6.7369    3.4632 N.1       1 <0>        -0.4079
     34 H3         -4.9845    0.2994   -2.7745 H         1 <0>         0.0678
     35 H4         -6.5002    0.2299   -3.7051 H         1 <0>         0.0671
     36 H5         -6.5475    0.2290   -1.9258 H         1 <0>         0.0807
     37 H6         -5.4188   -1.9787   -1.8968 H         1 <0>         0.0712
     38 H7         -6.9346   -2.0482   -2.8274 H         1 <0>         0.0669
     39 H8         -4.7778   -3.8142   -6.2511 H         1 <0>         0.1399
     40 H9         -1.8553   -2.2670   -4.1297 H         1 <0>         0.0729
     41 H10        -2.8343   -3.3805   -3.1415 H         1 <0>         0.0634
     42 H11        -0.4451   -4.5050   -4.5618 H         1 <0>         0.0744
     43 H12        -0.1462   -3.4665   -3.1537 H         1 <0>         0.0951
     44 H13        -0.2533   -5.7342   -2.3916 H         1 <0>         0.0710
     45 H14        -1.5827   -6.6570   -4.2991 H         1 <0>         0.0812
     46 H15        -2.1204   -7.2020   -2.6978 H         1 <0>         0.0696
     47 H16        -3.7429   -5.0677   -2.9392 H         1 <0>         0.0934
     48 H17        -4.1836   -6.6569   -3.6140 H         1 <0>         0.0738
     49 H18        -3.8726   -5.4561   -1.3355 H         1 <0>         0.0855
     50 H19        -2.6201   -6.5381   -0.6570 H         1 <0>         0.0839
     51 H20        -2.4007   -5.2538    1.3086 H         1 <0>         0.1042
     52 H21        -4.4196   -2.4037    0.7245 H         1 <0>         0.0765
     53 H22        -3.3779   -1.4591   -0.3667 H         1 <0>         0.0706
     54 H23        -4.2710   -2.8682   -0.9873 H         1 <0>         0.0618
     55 H24        -0.8936   -3.4073    1.5888 H         1 <0>         0.0607
     56 H25        -1.4210   -1.7715    1.1259 H         1 <0>         0.0708
     57 H26        -2.3898   -2.7277    2.2728 H         1 <0>         0.0674
     58 H27        -4.5774   -4.1613    1.9463 H         1 <0>         0.0796
     59 H28        -5.1330   -4.3396    0.2647 H         1 <0>         0.0815
     60 H29        -6.0281   -8.3937    1.9424 H         1 <0>         0.1546
     61 H30        -8.3587   -8.6678    2.7423 H         1 <0>         0.1531
     62 H31        -8.8286   -4.4094    2.4251 H         1 <0>         0.1711
@<TRIPOS>BOND
     1    1    2 1
     2    1   34 1
     3    1   35 1
     4    1   36 1
     5    2    3 1
     6    2   37 1
     7    2   38 1
     8    3    4 1
     9    4    5 2
    10    4    6 1
    11    6    9 1
    12    6    7 1
    13    6   39 1
    14    7    8 1
    15    7   15 1
    16    7    9 1
    17    9   10 1
    18    9   11 1
    19   11   12 1
    20   11   40 1
    21   11   41 1
    22   12   13 1
    23   12   42 1
    24   12   43 1
    25   13   14 1
    26   13   16 1
    27   13   44 1
    28   14   15 1
    29   14   45 1
    30   14   46 1
    31   15   47 1
    32   15   48 1
    33   16   20 am
    34   16   17 1
    35   17   18 1
    36   17   49 1
    37   17   50 1
    38   18   19 1
    39   18   24 1
    40   18   51 1
    41   19   20 1
    42   19   22 1
    43   19   23 1
    44   20   21 2
    45   22   52 1
    46   22   53 1
    47   22   54 1
    48   23   55 1
    49   23   56 1
    50   23   57 1
    51   24   25 1
    52   24   58 1
    53   24   59 1
    54   25   26 1
    55   26   31 ar
    56   26   27 ar
    57   27   28 ar
    58   27   60 1
    59   28   29 ar
    60   28   61 1
    61   29   30 ar
    62   29   32 1
    63   30   31 ar
    64   30   62 1
    65   32   33 3
@<TRIPOS>MOLECULE
CHEMBL222576
   50    52     0     0     0
SMALL
USER_CHARGES

@<TRIPOS>ATOM
      1 C1         -0.8973    1.8591    0.2839 C.3       1 <0>        -0.1392
      2 C2         -1.4278    1.0801    1.4891 C.3       1 <0>         0.1287
      3 H1         -1.9334    0.1770    1.1472 H         1 <0>         0.0755
      4 C3         -2.4124    1.9552    2.2747 C.3       1 <0>         0.1384
      5 N1         -2.7072    1.2969    3.5552 N.pl3     1 <0>        -0.6652
      6 C4         -1.5904    0.9363    4.4398 C.3       1 <0>         0.1408
      7 C5         -0.6058    0.0613    3.6542 C.3       1 <0>         0.1263
      8 H2         -1.0521   -0.9158    3.4691 H         1 <0>         0.0797
      9 N2         -0.3105    0.7159    2.3716 N.am      1 <0>        -0.5934
     10 C6          0.9613    0.9810    2.0131 C.2       1 <0>         0.5691
     11 O1          1.1906    1.5589    0.9681 O.2       1 <0>        -0.5164
     12 C7          2.0754    0.5701    2.8885 C.ar      1 <0>        -0.1385
     13 C8          2.5129   -0.7576    2.8885 C.ar      1 <0>        -0.0198
     14 C9          3.5532   -1.1384    3.7069 C.ar      1 <0>        -0.1225
     15 C10         4.1691   -0.2022    4.5338 C.ar      1 <0>         0.2599
     16 C11         3.7349    1.1210    4.5362 C.ar      1 <0>        -0.1155
     17 C12         2.6992    1.5089    3.7154 C.ar      1 <0>        -0.0274
     18 Cl1         4.5048    2.2844    5.5695 Cl        1 <0>        -0.0525
     19 N3          5.2201   -0.5899    5.3598 N.pl3     1 <0>        -0.8539
     20 Cl2         4.0969   -2.7871    3.7080 Cl        1 <0>        -0.0527
     21 C13         0.6851   -0.1078    4.4579 C.3       1 <0>        -0.2168
     22 C14        -4.0280    1.0189    3.9258 C.ar      1 <0>         0.1350
     23 C15        -4.6064   -0.1940    3.5812 C.ar      1 <0>        -0.0858
     24 C16        -5.9107   -0.4663    3.9487 C.ar      1 <0>        -0.1515
     25 C17        -6.6415    0.4674    4.6597 C.ar      1 <0>        -0.0818
     26 C18        -6.0715    1.6786    5.0067 C.ar      1 <0>        -0.2062
     27 C19        -4.7633    1.9572    4.6468 C.ar      1 <0>         0.1205
     28 O2         -4.1997    3.1459    4.9920 O.3       1 <0>        -0.3052
     29 C20        -5.0132    4.0593    5.7310 C.3       1 <0>         0.0252
     30 H3         -0.1954    1.2365   -0.2708 H         1 <0>         0.0804
     31 H4         -1.7287    2.1356   -0.3646 H         1 <0>         0.0470
     32 H5         -0.3900    2.7602    0.6284 H         1 <0>         0.0689
     33 H6         -1.9662    2.9323    2.4599 H         1 <0>         0.0575
     34 H7         -3.3332    2.0731    1.7035 H         1 <0>         0.0798
     35 H8         -1.0857    1.8408    4.7791 H         1 <0>         0.0571
     36 H9         -1.9684    0.3813    5.2985 H         1 <0>         0.0798
     37 H10         2.0355   -1.4841    2.2477 H         1 <0>         0.1448
     38 H11         2.3661    2.5362    3.7141 H         1 <0>         0.1448
     39 H12         5.5230   -1.5114    5.3591 H         1 <0>         0.4075
     40 H13         5.6497    0.0614    5.9361 H         1 <0>         0.4075
     41 H14         0.4409   -0.3841    5.4837 H         1 <0>         0.0668
     42 H15         1.2945   -0.8904    4.0061 H         1 <0>         0.0928
     43 H16         1.2394    0.8307    4.4566 H         1 <0>         0.0980
     44 H17        -4.0379   -0.9250    3.0255 H         1 <0>         0.1274
     45 H18        -6.3602   -1.4108    3.6796 H         1 <0>         0.1247
     46 H19        -7.6605    0.2505    4.9445 H         1 <0>         0.1248
     47 H20        -6.6451    2.4058    5.5621 H         1 <0>         0.1277
     48 H21        -5.8974    4.3132    5.1464 H         1 <0>         0.0543
     49 H22        -5.3186    3.5965    6.6694 H         1 <0>         0.0541
     50 H23        -4.4440    4.9649    5.9408 H         1 <0>         0.0991
@<TRIPOS>BOND
     1    1    2 1
     2    1   30 1
     3    1   31 1
     4    1   32 1
     5    2    3 1
     6    2    9 1
     7    2    4 1
     8    4    5 1
     9    4   33 1
    10    4   34 1
    11    5    6 1
    12    5   22 1
    13    6    7 1
    14    6   35 1
    15    6   36 1
    16    7    8 1
    17    7    9 1
    18    7   21 1
    19    9   10 am
    20   10   11 2
    21   10   12 1
    22   12   17 ar
    23   12   13 ar
    24   13   14 ar
    25   13   37 1
    26   14   15 ar
    27   14   20 1
    28   15   16 ar
    29   15   19 1
    30   16   17 ar
    31   16   18 1
    32   17   38 1
    33   19   39 1
    34   19   40 1
    35   21   41 1
    36   21   42 1
    37   21   43 1
    38   22   27 ar
    39   22   23 ar
    40   23   24 ar
    41   23   44 1
    42   24   25 ar
    43   24   45 1
    44   25   26 ar
    45   25   46 1
    46   26   27 ar
    47   26   47 1
    48   27   28 1
    49   28   29 1
    50   29   48 1
    51   29   49 1
    52   29   50 1
@<TRIPOS>MOLECULE
CHEMBL597722
   48    51     0     0     0
SMALL
USER_CHARGES

@<TRIPOS>ATOM
      1 C1          0.0286    1.3257   -0.7834 C.ar      1 <0>        -0.1335
      2 C2          0.7218    1.5714    0.3891 C.ar      1 <0>        -0.1282
      3 C3          1.9130    0.9232    0.6387 C.ar      1 <0>        -0.0995
      4 C4          2.4202    0.0157   -0.2962 C.ar      1 <0>        -0.0305
      5 C5          1.7142   -0.2272   -1.4782 C.ar      1 <0>        -0.0640
      6 C6          0.5243    0.4288   -1.7137 C.ar      1 <0>        -0.1291
      7 C7          3.6928   -0.6808   -0.0372 C.2       1 <0>         0.3647
      8 O1          4.8365    0.0296    0.1060 O.3       1 <0>        -0.6301
      9 C8          3.7185   -2.0426    0.0583 C.2       1 <0>        -0.2497
     10 C9          2.5041   -2.7542    0.0594 C.2       1 <0>         0.3920
     11 C10         2.4252   -4.2237    0.1350 C.ar      1 <0>        -0.0364
     12 C11         1.2424   -4.8816   -0.2144 C.ar      1 <0>        -0.0938
     13 C12         1.1743   -6.2569   -0.1435 C.ar      1 <0>        -0.0831
     14 C13         2.2705   -6.9926    0.2717 C.ar      1 <0>        -0.1308
     15 C14         3.4469   -6.3500    0.6210 C.ar      1 <0>        -0.0338
     16 C15         3.5241   -4.9789    0.5539 C.ar      1 <0>        -0.6317
     17 S1          5.0108   -4.1350    0.9977 S.o2      1 <0>         2.6812
     18 O2          6.0907   -4.8900    0.4658 O.2       1 <0>        -0.9724
     19 O3          4.9068   -3.8093    2.3770 O.2       1 <0>        -0.9465
     20 N1          4.9583   -2.7011    0.1477 N.pl3     1 <0>        -0.8786
     21 C16         6.1588   -2.1444   -0.4808 C.3       1 <0>         0.1070
     22 C17         6.7965   -1.1461    0.4507 C.2       1 <0>         0.3845
     23 O4          6.2974   -0.9217    1.5327 O.2       1 <0>        -0.3902
     24 C18         8.0250   -0.4434    0.0470 C.ar      1 <0>        -0.0771
     25 C19         8.6005   -0.6953   -1.2025 C.ar      1 <0>        -0.0861
     26 C20         9.7516   -0.0329   -1.5733 C.ar      1 <0>        -0.0639
     27 C21        10.3377    0.8787   -0.7125 C.ar      1 <0>        -0.0428
     28 C22         9.7742    1.1334    0.5257 C.ar      1 <0>        -0.0636
     29 C23         8.6198    0.4838    0.9087 C.ar      1 <0>        -0.0682
     30 N2         11.5738    1.5846   -1.1180 N.pl3     1 <0>         0.0362
     31 O5         12.0689    1.3642   -2.1987 O.2       1 <0>        -0.1624
     32 O6         12.0884    2.3815   -0.3685 O.3       1 <0>        -0.1635
     33 O7          1.4642   -2.1223   -0.0052 O.2       1 <0>        -0.5030
     34 H1         -0.9061    1.8330   -0.9713 H         1 <0>         0.1089
     35 H2          0.3290    2.2730    1.1101 H         1 <0>         0.1115
     36 H3          2.4530    1.1162    1.5539 H         1 <0>         0.1143
     37 H4          2.0999   -0.9266   -2.2052 H         1 <0>         0.1095
     38 H5         -0.0224    0.2419   -2.6261 H         1 <0>         0.1106
     39 H6          0.3834   -4.3136   -0.5398 H         1 <0>         0.1397
     40 H7          0.2593   -6.7633   -0.4133 H         1 <0>         0.1297
     41 H8          2.2086   -8.0696    0.3238 H         1 <0>         0.1314
     42 H9          4.3020   -6.9249    0.9447 H         1 <0>         0.1342
     43 H10         6.8648   -2.9479   -0.6908 H         1 <0>         0.1023
     44 H11         5.8849   -1.6489   -1.4122 H         1 <0>         0.1120
     45 H12         8.1448   -1.4069   -1.8750 H         1 <0>         0.1555
     46 H13        10.1973   -0.2263   -2.5379 H         1 <0>         0.1560
     47 H14        10.2374    1.8462    1.1919 H         1 <0>         0.1547
     48 H15         8.1788    0.6869    1.8733 H         1 <0>         0.1564
@<TRIPOS>BOND
     1    1    6 ar
     2    1    2 ar
     3    1   34 1
     4    2    3 ar
     5    2   35 1
     6    3    4 ar
     7    3   36 1
     8    4    5 ar
     9    4    7 1
    10    5    6 ar
    11    5   37 1
    12    6   38 1
    13    7    8 1
    14    7    9 2
    15    9   20 1
    16    9   10 1
    17   10   11 1
    18   10   33 2
    19   11   16 ar
    20   11   12 ar
    21   12   13 ar
    22   12   39 1
    23   13   14 ar
    24   13   40 1
    25   14   15 ar
    26   14   41 1
    27   15   16 ar
    28   15   42 1
    29   16   17 1
    30   17   18 2
    31   17   19 2
    32   17   20 1
    33   20   21 1
    34   21   22 1
    35   21   43 1
    36   21   44 1
    37   22   23 2
    38   22   24 1
    39   24   29 ar
    40   24   25 ar
    41   25   26 ar
    42   25   45 1
    43   26   27 ar
    44   26   46 1
    45   27   28 ar
    46   27   30 1
    47   28   29 ar
    48   28   47 1
    49   29   48 1
    50   30   31 2
    51   30   32 1
@<TRIPOS>MOLECULE
CHEMBL597722__1
   48    51     0     0     0
SMALL
USER_CHARGES

@<TRIPOS>ATOM
      1 C1          1.1535    1.4606    2.6049 C.ar      1 <0>        -0.1062
      2 C2          1.8136    2.1297    1.5894 C.ar      1 <0>        -0.1518
      3 C3          2.6408    1.4391    0.7281 C.ar      1 <0>        -0.0790
      4 C4          2.8111    0.0622    0.8828 C.ar      1 <0>        -0.1207
      5 C5          2.1422   -0.6067    1.9094 C.ar      1 <0>        -0.0129
      6 C6          1.3179    0.0958    2.7637 C.ar      1 <0>        -0.1499
      7 C7          3.6961   -0.6848   -0.0373 C.2       1 <0>         0.5018
      8 O1          4.3575   -0.0856   -0.8670 O.2       1 <0>        -0.5189
      9 C8          3.7748   -2.0954    0.0461 C.2       1 <0>        -0.2399
     10 C9          2.6265   -2.8151    0.0401 C.2       1 <0>         0.2664
     11 C10         2.5695   -4.2795    0.1151 C.ar      1 <0>         0.0195
     12 C11         1.3957   -4.9598   -0.2283 C.ar      1 <0>        -0.0967
     13 C12         1.3540   -6.3357   -0.1555 C.ar      1 <0>        -0.0818
     14 C13         2.4651   -7.0518    0.2552 C.ar      1 <0>        -0.1425
     15 C14         3.6328   -6.3887    0.5985 C.ar      1 <0>        -0.0314
     16 C15         3.6848   -5.0184    0.5294 C.ar      1 <0>        -0.6497
     17 S1          5.1551   -4.1395    0.9630 S.o2      1 <0>         2.6848
     18 O2          6.2480   -4.8568    0.4061 O.2       1 <0>        -0.9732
     19 O3          5.0623   -3.8306    2.3469 O.2       1 <0>        -0.9445
     20 N1          5.0418   -2.7000    0.1262 N.pl3     1 <0>        -0.8833
     21 C16         6.2165   -2.0871   -0.4988 C.3       1 <0>         0.0804
     22 C17         6.8131   -1.0714    0.4412 C.2       1 <0>         0.3639
     23 O4          6.3071   -0.8786    1.5261 O.2       1 <0>        -0.4037
     24 C18         8.0100   -0.3136    0.0424 C.ar      1 <0>        -0.0965
     25 C19         8.5932   -0.5290   -1.2103 C.ar      1 <0>        -0.0741
     26 C20         9.7145    0.1850   -1.5766 C.ar      1 <0>        -0.0639
     27 C21        10.2631    1.1125   -0.7080 C.ar      1 <0>        -0.0333
     28 C22         9.6917    1.3314    0.5334 C.ar      1 <0>        -0.0642
     29 C23         8.5666    0.6298    0.9119 C.ar      1 <0>        -0.0655
     30 N2         11.4674    1.8739   -1.1087 N.pl3     1 <0>         0.0333
     31 O5         11.9693    1.6850   -2.1922 O.2       1 <0>        -0.1567
     32 O6         11.9492    2.6849   -0.3524 O.3       1 <0>        -0.1590
     33 O7          1.4560   -2.1392   -0.0396 O.3       1 <0>        -0.6578
     34 H1          0.5105    2.0067    3.2793 H         1 <0>         0.1133
     35 H2          1.6807    3.1948    1.4706 H         1 <0>         0.1146
     36 H3          3.1552    1.9624   -0.0643 H         1 <0>         0.1201
     37 H4          2.2694   -1.6719    2.0343 H         1 <0>         0.1284
     38 H5          0.7998   -0.4204    3.5583 H         1 <0>         0.1162
     39 H6          0.5247   -4.4082   -0.5500 H         1 <0>         0.1410
     40 H7          0.4472   -6.8590   -0.4207 H         1 <0>         0.1267
     41 H8          2.4219   -8.1297    0.3086 H         1 <0>         0.1283
     42 H9          4.4991   -6.9481    0.9193 H         1 <0>         0.1305
     43 H10         6.9555   -2.8579   -0.7175 H         1 <0>         0.1165
     44 H11         5.9200   -1.5948   -1.4250 H         1 <0>         0.1355
     45 H12         8.1667   -1.2528   -1.8889 H         1 <0>         0.1597
     46 H13        10.1661    0.0199   -2.5436 H         1 <0>         0.1598
     47 H14        10.1256    2.0568    1.2057 H         1 <0>         0.1580
     48 H15         8.1192    0.8049    1.8792 H         1 <0>         0.1583
@<TRIPOS>BOND
     1    1    6 ar
     2    1    2 ar
     3    1   34 1
     4    2    3 ar
     5    2   35 1
     6    3    4 ar
     7    3   36 1
     8    4    5 ar
     9    4    7 1
    10    5    6 ar
    11    5   37 1
    12    6   38 1
    13    7    8 2
    14    7    9 1
    15    9   20 1
    16    9   10 2
    17   10   11 1
    18   10   33 1
    19   11   16 ar
    20   11   12 ar
    21   12   13 ar
    22   12   39 1
    23   13   14 ar
    24   13   40 1
    25   14   15 ar
    26   14   41 1
    27   15   16 ar
    28   15   42 1
    29   16   17 1
    30   17   18 2
    31   17   19 2
    32   17   20 1
    33   20   21 1
    34   21   22 1
    35   21   43 1
    36   21   44 1
    37   22   23 2
    38   22   24 1
    39   24   29 ar
    40   24   25 ar
    41   25   26 ar
    42   25   45 1
    43   26   27 ar
    44   26   46 1
    45   27   28 ar
    46   27   30 1
    47   28   29 ar
    48   28   47 1
    49   29   48 1
    50   30   31 2
    51   30   32 1
@<TRIPOS>MOLECULE
CHEMBL561782
   58    61     0     0     0
SMALL
USER_CHARGES

@<TRIPOS>ATOM
      1 C1         -0.8130    1.6077    0.8761 C.3       1 <0>        -0.1964
      2 C2         -0.5855    0.1744    0.3916 C.3       1 <0>         0.1412
      3 H1         -1.4400   -0.4443    0.6655 H         1 <0>         0.0878
      4 C3         -0.4125    0.1675   -1.1323 C.3       1 <0>         0.1346
      5 N1          0.0596   -1.1616   -1.5453 N.pl3     1 <0>        -0.6792
      6 C4          1.2809   -1.7017   -0.9316 C.3       1 <0>         0.1237
      7 C5          1.1079   -1.6948    0.5923 C.3       1 <0>         0.1006
      8 N2          0.6335   -0.3672    1.0085 N.pl3     1 <0>        -0.9869
      9 S1          1.4608    0.5051    2.1474 S.o2      1 <0>         2.6933
     10 O1          0.4905    1.2435    2.8772 O.2       1 <0>        -0.9528
     11 O2          2.3616   -0.3973    2.7748 O.2       1 <0>        -0.9471
     12 C6          2.4471    1.6837    1.2858 C.ar      1 <0>        -0.7293
     13 C7          2.1573    3.0321    1.3874 C.ar      1 <0>         0.0390
     14 C8          2.9282    3.9586    0.7135 C.ar      1 <0>        -0.2100
     15 C9          3.9967    3.5354   -0.0674 C.ar      1 <0>         0.2833
     16 C10         4.2862    2.1810   -0.1676 C.ar      1 <0>        -0.2051
     17 C11         3.5137    1.2586    0.5133 C.ar      1 <0>         0.1062
     18 Cl1         3.8782   -0.4345    0.3944 Cl        1 <0>        -0.0381
     19 N3          4.7778    4.4704   -0.7504 N.pl3     1 <0>        -0.6227
     20 C12         5.9883    4.0667   -1.4856 C.3       1 <0>         0.0975
     21 C13         5.7873    4.4115   -2.9625 C.3       1 <0>         0.0924
     22 N4          5.2650    5.7630   -3.1110 N.am      1 <0>        -0.7167
     23 C14         4.6158    6.4329   -2.1576 C.2       1 <0>         0.5125
     24 O3          4.1580    7.5234   -2.4263 O.2       1 <0>        -0.5402
     25 C15         4.4215    5.8969   -0.7698 C.3       1 <0>         0.1051
     26 C16        -0.6404   -1.8988   -2.5053 C.ar      1 <0>         0.2149
     27 C17        -1.6886   -2.7245   -2.1199 C.ar      1 <0>        -0.0966
     28 C18        -2.3789   -3.4514   -3.0698 C.ar      1 <0>        -0.1126
     29 C19        -2.0266   -3.3575   -4.4058 C.ar      1 <0>         0.0973
     30 C20        -0.9821   -2.5351   -4.7922 C.ar      1 <0>        -0.1035
     31 C21        -0.2923   -1.8022   -3.8461 C.ar      1 <0>        -0.1673
     32 C22         0.8406   -0.9024   -4.2681 C.3       1 <0>         0.5175
     33 F1          0.9379   -0.8983   -5.6637 F         1 <0>        -0.1791
     34 F2          0.5971    0.3983   -3.8138 F         1 <0>        -0.1705
     35 F3          2.0384   -1.3717   -3.7184 F         1 <0>        -0.1721
     36 F4         -2.7030   -4.0698   -5.3333 F         1 <0>        -0.1297
     37 H2          0.1263    2.1591    0.8332 H         1 <0>         0.0573
     38 H3         -1.5496    2.0946    0.2370 H         1 <0>         0.0796
     39 H4         -1.1777    1.5905    1.9031 H         1 <0>         0.1082
     40 H5         -1.3687    0.3808   -1.6100 H         1 <0>         0.0839
     41 H6          0.3197    0.9217   -1.4208 H         1 <0>         0.0646
     42 H7          1.4429   -2.7229   -1.2767 H         1 <0>         0.0838
     43 H8          2.1336   -1.0806   -1.2058 H         1 <0>         0.0682
     44 H9          0.3757   -2.4490    0.8808 H         1 <0>         0.0797
     45 H10         2.0641   -1.9081    1.0700 H         1 <0>         0.1026
     46 H11         1.3268    3.3609    1.9944 H         1 <0>         0.1545
     47 H12         2.7006    5.0113    0.7930 H         1 <0>         0.1399
     48 H13         5.1159    1.8488   -0.7741 H         1 <0>         0.1431
     49 H14         6.8520    4.6058   -1.0963 H         1 <0>         0.0865
     50 H15         6.1442    2.9934   -1.3764 H         1 <0>         0.1083
     51 H16         6.7429    4.3371   -3.4816 H         1 <0>         0.0950
     52 H17         5.0843    3.7048   -3.4035 H         1 <0>         0.0737
     53 H18         5.3990    6.2073   -3.9628 H         1 <0>         0.4043
     54 H19         3.3789    6.0168   -0.4753 H         1 <0>         0.1223
     55 H20         5.0630    6.4429   -0.0781 H         1 <0>         0.1077
     56 H21        -1.9635   -2.7983   -1.0780 H         1 <0>         0.1470
     57 H22        -3.1939   -4.0938   -2.7705 H         1 <0>         0.1475
     58 H23        -0.7091   -2.4634   -5.8347 H         1 <0>         0.1511
@<TRIPOS>BOND
     1    1    2 1
     2    1   37 1
     3    1   38 1
     4    1   39 1
     5    2    3 1
     6    2    8 1
     7    2    4 1
     8    4    5 1
     9    4   40 1
    10    4   41 1
    11    5    6 1
    12    5   26 1
    13    6    7 1
    14    6   42 1
    15    6   43 1
    16    7    8 1
    17    7   44 1
    18    7   45 1
    19    8    9 1
    20    9   10 2
    21    9   11 2
    22    9   12 1
    23   12   17 ar
    24   12   13 ar
    25   13   14 ar
    26   13   46 1
    27   14   15 ar
    28   14   47 1
    29   15   16 ar
    30   15   19 1
    31   16   17 ar
    32   16   48 1
    33   17   18 1
    34   19   25 1
    35   19   20 1
    36   20   21 1
    37   20   49 1
    38   20   50 1
    39   21   22 1
    40   21   51 1
    41   21   52 1
    42   22   23 am
    43   22   53 1
    44   23   24 2
    45   23   25 1
    46   25   54 1
    47   25   55 1
    48   26   31 ar
    49   26   27 ar
    50   27   28 ar
    51   27   56 1
    52   28   29 ar
    53   28   57 1
    54   29   30 ar
    55   29   36 1
    56   30   31 ar
    57   30   58 1
    58   31   32 1
    59   32   33 1
    60   32   34 1
    61   32   35 1
@<TRIPOS>MOLECULE
CHEMBL375156
   63    67     0     0     0
SMALL
USER_CHARGES

@<TRIPOS>ATOM
      1 C1          0.5150    1.4651   -0.2977 C.3       1 <0>        -0.1851
      2 C2          0.3115   -0.0462   -0.1734 C.3       1 <0>         0.0641
      3 C3         -1.1616   -0.3603   -0.2220 C.2       1 <0>         0.5220
      4 O1         -1.6940   -0.9175    0.7145 O.2       1 <0>        -0.5189
      5 N1         -1.8873   -0.0222   -1.3062 N.am      1 <0>        -0.7241
      6 C4         -3.3193   -0.3276   -1.3534 C.3       1 <0>         0.1571
      7 C5         -4.1024    0.7904   -0.6622 C.3       1 <0>        -0.0914
      8 C6         -5.5979    0.4715   -0.7116 C.3       1 <0>        -0.1095
      9 C7         -6.0478    0.3600   -2.1697 C.3       1 <0>        -0.0859
     10 C8         -5.2648   -0.7580   -2.8609 C.3       1 <0>        -0.1087
     11 C9         -3.7692   -0.4390   -2.8116 C.3       1 <0>        -0.0908
     12 C10        -3.5065    0.8865   -3.5291 C.3       1 <0>        -0.0989
     13 C11        -4.2895    2.0045   -2.8378 C.3       1 <0>         0.1354
     14 C12        -5.7851    1.6856   -2.8872 C.3       1 <0>        -0.1377
     15 C13        -3.8396    2.1160   -1.3797 C.3       1 <0>        -0.1349
     16 O2         -4.0441    3.2426   -3.5080 O.3       1 <0>        -0.5612
     17 N2          0.8697   -0.5121    1.1031 N.3       1 <0>        -0.5129
     18 C14         0.2212    0.1592    2.2375 C.3       1 <0>         0.0281
     19 C15         0.6985   -0.4802    3.5458 C.3       1 <0>         0.1277
     20 N3          2.1690   -0.4576    3.5676 N.pl3     1 <0>        -0.6004
     21 C16         2.8905   -0.9893    2.4014 C.3       1 <0>         0.1269
     22 C17         2.3269   -0.3299    1.1382 C.3       1 <0>         0.0387
     23 C18         2.8585    0.0523    4.6616 C.ar      1 <0>         0.4329
     24 C19         2.1705    0.3442    5.8352 C.ar      1 <0>        -0.2420
     25 C20         2.8690    0.8510    6.9159 C.ar      1 <0>         0.0178
     26 C21         4.2374    1.0497    6.7864 C.ar      1 <0>        -0.3078
     27 C22         4.8559    0.7382    5.5925 C.ar      1 <0>         0.2108
     28 N4          4.1649    0.2508    4.5793 N.ar      1 <0>        -0.5415
     29 C23         5.0389    1.6004    7.9377 C.3       1 <0>         0.5213
     30 F1          5.5060    0.5447    8.7279 F         1 <0>        -0.1780
     31 F2          6.1258    2.3291    7.4430 F         1 <0>        -0.1781
     32 F3          4.2287    2.4387    8.7111 F         1 <0>        -0.1792
     33 H1          1.5805    1.6924   -0.2625 H         1 <0>         0.0712
     34 H2          0.1008    1.8108   -1.2448 H         1 <0>         0.0683
     35 H3          0.0087    1.9689    0.5257 H         1 <0>         0.0645
     36 H4          0.8178   -0.5499   -0.9968 H         1 <0>         0.1112
     37 H5         -1.4615    0.4235   -2.0552 H         1 <0>         0.3989
     38 H6         -3.5065   -1.2719   -0.8423 H         1 <0>         0.0931
     39 H7         -3.7819    0.8698    0.3766 H         1 <0>         0.0779
     40 H8         -5.7851   -0.4729   -0.2004 H         1 <0>         0.0694
     41 H9         -6.1558    1.2680   -0.2191 H         1 <0>         0.0672
     42 H10        -7.1132    0.1328   -2.2049 H         1 <0>         0.0777
     43 H11        -5.4519   -1.7024   -2.3498 H         1 <0>         0.0708
     44 H12        -5.5852   -0.8374   -3.8997 H         1 <0>         0.0718
     45 H13        -3.2114   -1.2355   -3.3040 H         1 <0>         0.0850
     46 H14        -2.4410    1.1137   -3.4939 H         1 <0>         0.0660
     47 H15        -3.8269    0.8071   -4.5679 H         1 <0>         0.0757
     48 H16        -6.1055    1.6061   -3.9260 H         1 <0>         0.0717
     49 H17        -6.3429    2.4820   -2.3947 H         1 <0>         0.0654
     50 H18        -4.3975    2.9125   -0.8873 H         1 <0>         0.0649
     51 H19        -2.7742    2.3432   -1.3445 H         1 <0>         0.0685
     52 H20        -4.5097    3.9974   -3.1226 H         1 <0>         0.3770
     53 H21         0.4838    1.2170    2.2326 H         1 <0>         0.0359
     54 H22        -0.8603    0.0521    2.1536 H         1 <0>         0.1161
     55 H23         0.3110    0.0860    4.3927 H         1 <0>         0.0879
     56 H24         0.3473   -1.5107    3.5992 H         1 <0>         0.0821
     57 H25         3.9522   -0.7596    2.4918 H         1 <0>         0.1030
     58 H26         2.7500   -2.0687    2.3448 H         1 <0>         0.0741
     59 H27         2.7725   -0.7916    0.2571 H         1 <0>         0.0892
     60 H28         2.5602    0.7348    1.1487 H         1 <0>         0.0441
     61 H29         1.1055    0.1776    5.9013 H         1 <0>         0.1437
     62 H30         2.3617    1.0872    7.8396 H         1 <0>         0.1453
     63 H31         5.9198    0.8916    5.4874 H         1 <0>         0.1668
@<TRIPOS>BOND
     1    1    2 1
     2    1   33 1
     3    1   34 1
     4    1   35 1
     5    2    3 1
     6    2   17 1
     7    2   36 1
     8    3    4 2
     9    3    5 am
    10    5    6 1
    11    5   37 1
    12    6   11 1
    13    6    7 1
    14    6   38 1
    15    7   15 1
    16    7    8 1
    17    7   39 1
    18    8    9 1
    19    8   40 1
    20    8   41 1
    21    9   14 1
    22    9   10 1
    23    9   42 1
    24   10   11 1
    25   10   43 1
    26   10   44 1
    27   11   12 1
    28   11   45 1
    29   12   13 1
    30   12   46 1
    31   12   47 1
    32   13   14 1
    33   13   15 1
    34   13   16 1
    35   14   48 1
    36   14   49 1
    37   15   50 1
    38   15   51 1
    39   16   52 1
    40   17   22 1
    41   17   18 1
    42   18   19 1
    43   18   53 1
    44   18   54 1
    45   19   20 1
    46   19   55 1
    47   19   56 1
    48   20   21 1
    49   20   23 1
    50   21   22 1
    51   21   57 1
    52   21   58 1
    53   22   59 1
    54   22   60 1
    55   23   28 ar
    56   23   24 ar
    57   24   25 ar
    58   24   61 1
    59   25   26 ar
    60   25   62 1
    61   26   27 ar
    62   26   29 1
    63   27   28 ar
    64   27   63 1
    65   29   30 1
    66   29   31 1
    67   29   32 1
@<TRIPOS>MOLECULE
CHEMBL490967
   67    70     0     0     0
SMALL
USER_CHARGES

@<TRIPOS>ATOM
      1 C1         -0.6315    1.4717    0.1090 C.3       1 <0>        -0.1858
      2 C2         -0.4085   -0.0389    0.0136 C.3       1 <0>         0.1569
      3 H1         -1.3584   -0.5581    0.1414 H         1 <0>         0.0866
      4 C3          0.1876   -0.3858   -1.3549 C.3       1 <0>         0.0412
      5 N1          0.5425   -1.8110   -1.3838 N.3       1 <0>        -0.5277
      6 C4          1.5837   -2.1210   -0.3949 C.3       1 <0>         0.0170
      7 C5          1.0449   -1.8452    1.0128 C.3       1 <0>         0.1199
      8 N2          0.5329   -0.4665    1.0596 N.pl3     1 <0>        -0.9929
      9 S1          1.0082    0.5778    2.2538 S.o2      1 <0>         2.6879
     10 O1          2.1757    0.0195    2.8405 O.2       1 <0>        -0.9545
     11 O2          0.9893    1.8801    1.6856 O.2       1 <0>        -0.9471
     12 C6         -0.2413    0.5521    3.4959 C.ar      1 <0>        -0.6647
     13 C7         -1.3046    1.4326    3.4250 C.ar      1 <0>        -0.0207
     14 C8         -2.2848    1.4124    4.3995 C.ar      1 <0>        -0.1149
     15 C9         -2.2019    0.5115    5.4447 C.ar      1 <0>        -0.0793
     16 C10        -1.1391   -0.3696    5.5151 C.ar      1 <0>        -0.1117
     17 C11        -0.1611   -0.3523    4.5383 C.ar      1 <0>        -0.0161
     18 C12        -3.2700    0.4902    6.5076 C.3       1 <0>         0.1392
     19 C13        -2.6599    0.0346    7.8346 C.3       1 <0>        -0.1512
     20 C14        -4.3793   -0.4800    6.0965 C.3       1 <0>         0.4276
     21 F1         -3.8442   -1.7640    5.9473 F         1 <0>        -0.1726
     22 F2         -5.3708   -0.4998    7.0833 F         1 <0>        -0.1691
     23 F3         -4.9372   -0.0634    4.8831 F         1 <0>        -0.1795
     24 O3         -3.8166    1.8017    6.6600 O.3       1 <0>        -0.5172
     25 C15         0.9570   -2.2231   -2.7315 C.3       1 <0>         0.0622
     26 C16         0.9680   -3.7506   -2.8169 C.3       1 <0>        -0.0178
     27 C17         2.1618   -4.3142   -2.0263 C.3       1 <0>        -0.1271
     28 C18         3.0368   -5.0830   -3.0378 C.3       1 <0>        -0.1261
     29 C19         2.6824   -4.4487   -4.4057 C.3       1 <0>        -0.1253
     30 C20         1.1593   -4.1966   -4.2813 C.3       1 <0>        -0.1116
     31 C21        -0.3222   -4.3071   -2.2721 C.ar      1 <0>        -0.0225
     32 C22        -1.3127   -3.4634   -1.7931 C.ar      1 <0>        -0.1448
     33 C23        -2.4828   -4.0100   -1.3009 C.ar      1 <0>         0.0830
     34 N3         -2.6620   -5.3163   -1.2834 N.ar      1 <0>        -0.4901
     35 C24        -1.7420   -6.1485   -1.7306 C.ar      1 <0>         0.0877
     36 C25        -0.5492   -5.6746   -2.2432 C.ar      1 <0>        -0.1716
     37 H2          0.2767    1.9929   -0.1937 H         1 <0>         0.0930
     38 H3         -1.4521    1.7601   -0.5480 H         1 <0>         0.0742
     39 H4         -0.8781    1.7384    1.1367 H         1 <0>         0.0689
     40 H5         -0.5455   -0.1777   -2.1342 H         1 <0>         0.0914
     41 H6          1.0809    0.2150   -1.5254 H         1 <0>         0.0474
     42 H7          1.8632   -3.1712   -0.4781 H         1 <0>         0.1151
     43 H8          2.4576   -1.4959   -0.5788 H         1 <0>         0.0439
     44 H9          0.2364   -2.5407    1.2382 H         1 <0>         0.0785
     45 H10         1.8469   -1.9632    1.7415 H         1 <0>         0.0994
     46 H11        -1.3693    2.1364    2.6084 H         1 <0>         0.1504
     47 H12        -3.1152    2.1008    4.3445 H         1 <0>         0.1359
     48 H13        -1.0741   -1.0732    6.3319 H         1 <0>         0.1433
     49 H14         0.6673   -1.0432    4.5913 H         1 <0>         0.1464
     50 H15        -1.8696    0.7258    8.1275 H         1 <0>         0.0938
     51 H16        -3.4324    0.0192    8.6034 H         1 <0>         0.0872
     52 H17        -2.2430   -0.9658    7.7184 H         1 <0>         0.0908
     53 H18        -4.2212    2.1551    5.8559 H         1 <0>         0.3877
     54 H19         0.2570   -1.8232   -3.4651 H         1 <0>         0.0816
     55 H20         1.9568   -1.8405   -2.9370 H         1 <0>         0.0481
     56 H21         2.7333   -3.4994   -1.5818 H         1 <0>         0.0814
     57 H22         1.8084   -4.9909   -1.2483 H         1 <0>         0.0720
     58 H23         4.0939   -4.9403   -2.8136 H         1 <0>         0.0671
     59 H24         2.7844   -6.1433   -3.0321 H         1 <0>         0.0665
     60 H25         3.2190   -3.5105   -4.5471 H         1 <0>         0.0672
     61 H26         2.8939   -5.1424   -5.2195 H         1 <0>         0.0688
     62 H27         0.6036   -5.1138   -4.4764 H         1 <0>         0.0739
     63 H28         0.8462   -3.4072   -4.9645 H         1 <0>         0.0697
     64 H29        -1.1716   -2.3928   -1.8041 H         1 <0>         0.1671
     65 H30        -3.2593   -3.3596   -0.9260 H         1 <0>         0.1466
     66 H31        -1.9244   -7.2125   -1.6998 H         1 <0>         0.1483
     67 H32         0.1984   -6.3609   -2.6125 H         1 <0>         0.1269
@<TRIPOS>BOND
     1    1    2 1
     2    1   37 1
     3    1   38 1
     4    1   39 1
     5    2    3 1
     6    2    8 1
     7    2    4 1
     8    4    5 1
     9    4   40 1
    10    4   41 1
    11    5    6 1
    12    5   25 1
    13    6    7 1
    14    6   42 1
    15    6   43 1
    16    7    8 1
    17    7   44 1
    18    7   45 1
    19    8    9 1
    20    9   10 2
    21    9   11 2
    22    9   12 1
    23   12   17 ar
    24   12   13 ar
    25   13   14 ar
    26   13   46 1
    27   14   15 ar
    28   14   47 1
    29   15   16 ar
    30   15   18 1
    31   16   17 ar
    32   16   48 1
    33   17   49 1
    34   18   19 1
    35   18   20 1
    36   18   24 1
    37   19   50 1
    38   19   51 1
    39   19   52 1
    40   20   21 1
    41   20   22 1
    42   20   23 1
    43   24   53 1
    44   25   26 1
    45   25   54 1
    46   25   55 1
    47   26   30 1
    48   26   27 1
    49   26   31 1
    50   27   28 1
    51   27   56 1
    52   27   57 1
    53   28   29 1
    54   28   58 1
    55   28   59 1
    56   29   30 1
    57   29   60 1
    58   29   61 1
    59   30   62 1
    60   30   63 1
    61   31   36 ar
    62   31   32 ar
    63   32   33 ar
    64   32   64 1
    65   33   34 ar
    66   33   65 1
    67   34   35 ar
    68   35   36 ar
    69   35   66 1
    70   36   67 1
@<TRIPOS>MOLECULE
CHEMBL490967__1
   68    71     0     0     0
SMALL
USER_CHARGES

@<TRIPOS>ATOM
      1 C1         -0.6315    1.4717    0.1090 C.3       1 <0>        -0.1904
      2 C2         -0.4085   -0.0389    0.0136 C.3       1 <0>         0.1589
      3 H1         -1.3584   -0.5581    0.1414 H         1 <0>         0.0823
      4 C3          0.1876   -0.3858   -1.3549 C.3       1 <0>         0.0354
      5 N1          0.5425   -1.8110   -1.3838 N.3       1 <0>        -0.5438
      6 C4          1.5837   -2.1210   -0.3949 C.3       1 <0>         0.0109
      7 C5          1.0449   -1.8452    1.0128 C.3       1 <0>         0.1203
      8 N2          0.5329   -0.4665    1.0596 N.pl3     1 <0>        -0.9968
      9 S1          1.0082    0.5778    2.2538 S.o2      1 <0>         2.6869
     10 O1          2.1757    0.0195    2.8405 O.2       1 <0>        -0.9496
     11 O2          0.9893    1.8801    1.6856 O.2       1 <0>        -0.9416
     12 C6         -0.2413    0.5521    3.4959 C.ar      1 <0>        -0.6670
     13 C7         -1.3046    1.4326    3.4250 C.ar      1 <0>        -0.0213
     14 C8         -2.2848    1.4124    4.3995 C.ar      1 <0>        -0.1141
     15 C9         -2.2019    0.5115    5.4447 C.ar      1 <0>        -0.0757
     16 C10        -1.1391   -0.3696    5.5151 C.ar      1 <0>        -0.1115
     17 C11        -0.1611   -0.3523    4.5383 C.ar      1 <0>        -0.0177
     18 C12        -3.2700    0.4902    6.5076 C.3       1 <0>         0.1379
     19 C13        -2.6599    0.0346    7.8346 C.3       1 <0>        -0.1529
     20 C14        -4.3793   -0.4800    6.0965 C.3       1 <0>         0.4284
     21 F1         -3.8442   -1.7640    5.9473 F         1 <0>        -0.1754
     22 F2         -5.3708   -0.4998    7.0833 F         1 <0>        -0.1660
     23 F3         -4.9372   -0.0634    4.8831 F         1 <0>        -0.1814
     24 O3         -3.8166    1.8017    6.6600 O.3       1 <0>        -0.5144
     25 C15         0.9570   -2.2231   -2.7315 C.3       1 <0>         0.0491
     26 C16         0.9680   -3.7506   -2.8169 C.3       1 <0>        -0.0359
     27 C17         2.1618   -4.3142   -2.0263 C.3       1 <0>        -0.1294
     28 C18         3.0368   -5.0830   -3.0378 C.3       1 <0>        -0.1287
     29 C19         2.6824   -4.4487   -4.4057 C.3       1 <0>        -0.1268
     30 C20         1.1593   -4.1966   -4.2813 C.3       1 <0>        -0.1125
     31 C21        -0.3222   -4.3071   -2.2721 C.ar      1 <0>         0.0640
     32 C22        -1.3127   -3.4634   -1.7931 C.ar      1 <0>        -0.1064
     33 C23        -2.4828   -4.0100   -1.3009 C.ar      1 <0>         0.1153
     34 N3         -2.6620   -5.3163   -1.2834 N.ar      1 <0>        -0.4481
     35 C24        -1.7420   -6.1485   -1.7306 C.ar      1 <0>         0.1250
     36 C25        -0.5492   -5.6746   -2.2432 C.ar      1 <0>        -0.1317
     37 H2          0.2767    1.9929   -0.1937 H         1 <0>         0.0964
     38 H3         -1.4521    1.7601   -0.5480 H         1 <0>         0.0763
     39 H4         -0.8781    1.7384    1.1367 H         1 <0>         0.0725
     40 H5         -0.5455   -0.1777   -2.1342 H         1 <0>         0.0957
     41 H6          1.0809    0.2150   -1.5254 H         1 <0>         0.0582
     42 H7          1.8632   -3.1712   -0.4781 H         1 <0>         0.1135
     43 H8          2.4576   -1.4959   -0.5788 H         1 <0>         0.0559
     44 H9          0.2364   -2.5407    1.2382 H         1 <0>         0.0729
     45 H10         1.8469   -1.9632    1.7415 H         1 <0>         0.1046
     46 H11        -1.3693    2.1364    2.6084 H         1 <0>         0.1506
     47 H12        -3.1152    2.1008    4.3445 H         1 <0>         0.1375
     48 H13        -1.0741   -1.0732    6.3319 H         1 <0>         0.1445
     49 H14         0.6673   -1.0432    4.5913 H         1 <0>         0.1462
     50 H15        -1.8696    0.7258    8.1275 H         1 <0>         0.0954
     51 H16        -3.4324    0.0192    8.6034 H         1 <0>         0.0893
     52 H17        -2.2430   -0.9658    7.7184 H         1 <0>         0.0904
     53 H18        -4.2212    2.1551    5.8559 H         1 <0>         0.3877
     54 H19         0.2570   -1.8232   -3.4651 H         1 <0>         0.0913
     55 H20         1.9568   -1.8405   -2.9370 H         1 <0>         0.0667
     56 H21         2.7333   -3.4994   -1.5818 H         1 <0>         0.0952
     57 H22         1.8084   -4.9909   -1.2483 H         1 <0>         0.0735
     58 H23         4.0939   -4.9403   -2.8136 H         1 <0>         0.0777
     59 H24         2.7844   -6.1433   -3.0321 H         1 <0>         0.0705
     60 H25         3.2190   -3.5105   -4.5471 H         1 <0>         0.0752
     61 H26         2.8939   -5.1424   -5.2195 H         1 <0>         0.0787
     62 H27         0.6036   -5.1138   -4.4764 H         1 <0>         0.0760
     63 H28         0.8462   -3.4072   -4.9645 H         1 <0>         0.0820
     64 H29        -1.1716   -2.3928   -1.8041 H         1 <0>         0.2129
     65 H30        -3.2593   -3.3596   -0.9260 H         1 <0>         0.2037
     66 H31        -1.9244   -7.2125   -1.6998 H         1 <0>         0.2057
     67 H32         0.1984   -6.3609   -2.6125 H         1 <0>         0.1794
     68 H33        -3.4922   -5.6745   -0.9321 H         1 <0>         0.4483
@<TRIPOS>BOND
     1    1    2 1
     2    1   37 1
     3    1   38 1
     4    1   39 1
     5    2    3 1
     6    2    8 1
     7    2    4 1
     8    4    5 1
     9    4   40 1
    10    4   41 1
    11    5    6 1
    12    5   25 1
    13    6    7 1
    14    6   42 1
    15    6   43 1
    16    7    8 1
    17    7   44 1
    18    7   45 1
    19    8    9 1
    20    9   10 2
    21    9   11 2
    22    9   12 1
    23   12   17 ar
    24   12   13 ar
    25   13   14 ar
    26   13   46 1
    27   14   15 ar
    28   14   47 1
    29   15   16 ar
    30   15   18 1
    31   16   17 ar
    32   16   48 1
    33   17   49 1
    34   18   19 1
    35   18   20 1
    36   18   24 1
    37   19   50 1
    38   19   51 1
    39   19   52 1
    40   20   21 1
    41   20   22 1
    42   20   23 1
    43   24   53 1
    44   25   26 1
    45   25   54 1
    46   25   55 1
    47   26   30 1
    48   26   27 1
    49   26   31 1
    50   27   28 1
    51   27   56 1
    52   27   57 1
    53   28   29 1
    54   28   58 1
    55   28   59 1
    56   29   30 1
    57   29   60 1
    58   29   61 1
    59   30   62 1
    60   30   63 1
    61   31   36 ar
    62   31   32 ar
    63   32   33 ar
    64   32   64 1
    65   33   34 ar
    66   33   65 1
    67   34   35 ar
    68   34   68 1
    69   35   36 ar
    70   35   66 1
    71   36   67 1
@<TRIPOS>MOLECULE
CHEMBL490967__2
   68    71     0     0     0
SMALL
USER_CHARGES

@<TRIPOS>ATOM
      1 C1          0.7917   -0.9958    2.9930 C.3       1 <0>        -0.1940
      2 C2          0.6901   -2.1302    1.9714 C.3       1 <0>         0.1339
      3 H1         -0.3497   -2.4418    1.8722 H         1 <0>         0.1032
      4 C3          1.2152   -1.6496    0.6145 C.3       1 <0>        -0.0199
      5 N1          1.2437   -2.7772   -0.3256 N.4       1 <0>        -0.3845
      6 C4          2.2046   -3.7877    0.1345 C.3       1 <0>        -0.0414
      7 C5          1.7285   -4.3742    1.4676 C.3       1 <0>         0.0911
      8 N2          1.5075   -3.2699    2.4152 N.pl3     1 <0>        -1.0092
      9 S1          2.1652   -3.3055    3.9346 S.o2      1 <0>         2.6906
     10 O1          3.1720   -4.3082    3.9179 O.2       1 <0>        -0.9385
     11 O2          2.4385   -1.9573    4.2905 O.2       1 <0>        -0.9331
     12 C6          0.9090   -3.8716    5.0329 C.ar      1 <0>        -0.6723
     13 C7          0.0601   -2.9641    5.6384 C.ar      1 <0>        -0.0220
     14 C8         -0.9255   -3.4081    6.5001 C.ar      1 <0>        -0.1122
     15 C9         -1.0624   -4.7597    6.7558 C.ar      1 <0>        -0.0682
     16 C10        -0.2140   -5.6673    6.1496 C.ar      1 <0>        -0.1087
     17 C11         0.7688   -5.2236    5.2846 C.ar      1 <0>        -0.0164
     18 C12        -2.1361   -5.2437    7.6959 C.3       1 <0>         0.1361
     19 C13        -1.6700   -6.5279    8.3847 C.3       1 <0>        -0.1535
     20 C14        -3.4165   -5.5242    6.9067 C.3       1 <0>         0.4284
     21 F1         -3.1642   -6.5056    5.9421 F         1 <0>        -0.1740
     22 F2         -4.4133   -5.9735    7.7794 F         1 <0>        -0.1644
     23 F3         -3.8427   -4.3499    6.2769 F         1 <0>        -0.1811
     24 O3         -2.3939   -4.2413    8.6812 O.3       1 <0>        -0.5134
     25 C15         1.6420   -2.2945   -1.6546 C.3       1 <0>         0.0006
     26 C16         1.5151   -3.4324   -2.6696 C.3       1 <0>        -0.0408
     27 C17         2.7035   -4.3997   -2.5283 C.3       1 <0>        -0.1518
     28 C18         3.4424   -4.3907   -3.8824 C.3       1 <0>        -0.1247
     29 C19         3.0580   -3.0305   -4.5159 C.3       1 <0>        -0.1291
     30 C20         1.5734   -2.8693   -4.1046 C.3       1 <0>        -0.1041
     31 C21         0.2189   -4.1710   -2.4571 C.ar      1 <0>        -0.0668
     32 C22        -0.9625   -3.4811   -2.2321 C.ar      1 <0>        -0.2043
     33 C23        -2.1320   -4.1924   -2.0414 C.ar      1 <0>         0.1209
     34 N3         -2.1321   -5.5107   -2.0712 N.ar      1 <0>        -0.4709
     35 C24        -1.0277   -6.1997   -2.2825 C.ar      1 <0>         0.1232
     36 C25         0.1783   -5.5566   -2.4876 C.ar      1 <0>        -0.1704
     37 H2          1.8191   -0.6339    3.0332 H         1 <0>         0.1127
     38 H3          0.1307   -0.1809    2.6980 H         1 <0>         0.0900
     39 H4          0.4977   -1.3645    3.9757 H         1 <0>         0.0842
     40 H5          0.5599   -0.8696    0.2267 H         1 <0>         0.1463
     41 H6          2.2226   -1.2513    0.7350 H         1 <0>         0.1407
     42 H7          2.2784   -4.5832   -0.6069 H         1 <0>         0.1575
     43 H8          3.1821   -3.3247    0.2695 H         1 <0>         0.1403
     44 H9          0.7947   -4.9158    1.3168 H         1 <0>         0.0971
     45 H10         2.4875   -5.0497    1.8624 H         1 <0>         0.1439
     46 H11         0.1670   -1.9081    5.4386 H         1 <0>         0.1506
     47 H12        -1.5883   -2.6991    6.9737 H         1 <0>         0.1401
     48 H13        -0.3208   -6.7232    6.3496 H         1 <0>         0.1478
     49 H14         1.4292   -5.9329    4.8081 H         1 <0>         0.1479
     50 H15        -0.7578   -6.3281    8.9470 H         1 <0>         0.0955
     51 H16        -2.4466   -6.8780    9.0647 H         1 <0>         0.0911
     52 H17        -1.4734   -7.2925    7.6332 H         1 <0>         0.0912
     53 H18        -2.6939   -3.3980    8.3152 H         1 <0>         0.3879
     54 H19         0.9941   -1.4696   -1.9508 H         1 <0>         0.1371
     55 H20         2.6758   -1.9508   -1.6215 H         1 <0>         0.1425
     56 H21         3.3705   -4.0585   -1.7366 H         1 <0>         0.0820
     57 H22         2.3430   -5.4041   -2.3063 H         1 <0>         0.0944
     58 H23         4.5200   -4.4492   -3.7293 H         1 <0>         0.0796
     59 H24         3.0999   -5.2139   -4.5094 H         1 <0>         0.0763
     60 H25         3.6637   -2.2256   -4.0996 H         1 <0>         0.0737
     61 H26         3.1564   -3.0681   -5.6008 H         1 <0>         0.0818
     62 H27         0.9291   -3.4469   -4.7675 H         1 <0>         0.0871
     63 H28         1.2871   -1.8177   -4.1137 H         1 <0>         0.0811
     64 H29        -0.9687   -2.4014   -2.2059 H         1 <0>         0.1383
     65 H30        -3.0565   -3.6624   -1.8656 H         1 <0>         0.1655
     66 H31        -1.0669   -7.2788   -2.2996 H         1 <0>         0.1672
     67 H32         1.0785   -6.1262   -2.6651 H         1 <0>         0.1517
     68 H33         0.3246   -3.1899   -0.3818 H         1 <0>         0.4193
@<TRIPOS>BOND
     1    1    2 1
     2    1   37 1
     3    1   38 1
     4    1   39 1
     5    2    3 1
     6    2    8 1
     7    2    4 1
     8    4    5 1
     9    4   40 1
    10    4   41 1
    11    5    6 1
    12    5   25 1
    13    5   68 1
    14    6    7 1
    15    6   42 1
    16    6   43 1
    17    7    8 1
    18    7   44 1
    19    7   45 1
    20    8    9 1
    21    9   10 2
    22    9   11 2
    23    9   12 1
    24   12   17 ar
    25   12   13 ar
    26   13   14 ar
    27   13   46 1
    28   14   15 ar
    29   14   47 1
    30   15   16 ar
    31   15   18 1
    32   16   17 ar
    33   16   48 1
    34   17   49 1
    35   18   19 1
    36   18   20 1
    37   18   24 1
    38   19   50 1
    39   19   51 1
    40   19   52 1
    41   20   21 1
    42   20   22 1
    43   20   23 1
    44   24   53 1
    45   25   26 1
    46   25   54 1
    47   25   55 1
    48   26   30 1
    49   26   27 1
    50   26   31 1
    51   27   28 1
    52   27   56 1
    53   27   57 1
    54   28   29 1
    55   28   58 1
    56   28   59 1
    57   29   30 1
    58   29   60 1
    59   29   61 1
    60   30   62 1
    61   30   63 1
    62   31   36 ar
    63   31   32 ar
    64   32   33 ar
    65   32   64 1
    66   33   34 ar
    67   33   65 1
    68   34   35 ar
    69   35   36 ar
    70   35   66 1
    71   36   67 1
@<TRIPOS>MOLECULE
CHEMBL490967__3
   67    70     0     0     0
SMALL
USER_CHARGES

@<TRIPOS>ATOM
      1 C1         -0.6315    1.4717    0.1090 C.3       1 <0>        -0.1860
      2 C2         -0.4085   -0.0389    0.0136 C.3       1 <0>         0.1573
      3 H1         -1.3584   -0.5581    0.1414 H         1 <0>         0.0866
      4 C3          0.1876   -0.3858   -1.3549 C.3       1 <0>         0.0410
      5 N1          0.5425   -1.8110   -1.3838 N.3       1 <0>        -0.5275
      6 C4          1.5837   -2.1210   -0.3949 C.3       1 <0>         0.0168
      7 C5          1.0449   -1.8452    1.0128 C.3       1 <0>         0.1201
      8 N2          0.5329   -0.4665    1.0596 N.pl3     1 <0>        -0.9929
      9 S1          1.0082    0.5778    2.2538 S.o2      1 <0>         2.6876
     10 O1          2.1757    0.0195    2.8405 O.2       1 <0>        -0.9544
     11 O2          0.9893    1.8801    1.6856 O.2       1 <0>        -0.9470
     12 C6         -0.2413    0.5521    3.4959 C.ar      1 <0>        -0.6646
     13 C7         -1.3046    1.4326    3.4250 C.ar      1 <0>        -0.0207
     14 C8         -2.2848    1.4124    4.3995 C.ar      1 <0>        -0.1148
     15 C9         -2.2019    0.5115    5.4447 C.ar      1 <0>        -0.0793
     16 C10        -1.1391   -0.3696    5.5151 C.ar      1 <0>        -0.1117
     17 C11        -0.1611   -0.3523    4.5383 C.ar      1 <0>        -0.0162
     18 C12        -3.2700    0.4902    6.5076 C.3       1 <0>         0.1395
     19 C13        -3.4077   -0.9284    7.0639 C.3       1 <0>        -0.1506
     20 C14        -2.8836    1.4460    7.6381 C.3       1 <0>         0.4269
     21 F1         -2.7577    2.7432    7.1295 F         1 <0>        -0.1794
     22 F2         -3.8751    1.4262    8.6248 F         1 <0>        -0.1690
     23 F3         -1.6647    1.0426    8.1937 F         1 <0>        -0.1726
     24 O3         -4.5151    0.9023    5.9401 O.3       1 <0>        -0.5171
     25 C15         0.9570   -2.2231   -2.7315 C.3       1 <0>         0.0620
     26 C16         0.9680   -3.7506   -2.8169 C.3       1 <0>        -0.0177
     27 C17         2.1618   -4.3142   -2.0263 C.3       1 <0>        -0.1271
     28 C18         3.0368   -5.0830   -3.0378 C.3       1 <0>        -0.1261
     29 C19         2.6824   -4.4487   -4.4057 C.3       1 <0>        -0.1254
     30 C20         1.1593   -4.1966   -4.2813 C.3       1 <0>        -0.1117
     31 C21        -0.3222   -4.3071   -2.2721 C.ar      1 <0>        -0.0224
     32 C22        -1.3127   -3.4634   -1.7931 C.ar      1 <0>        -0.1448
     33 C23        -2.4828   -4.0100   -1.3009 C.ar      1 <0>         0.0830
     34 N3         -2.6620   -5.3163   -1.2834 N.ar      1 <0>        -0.4902
     35 C24        -1.7420   -6.1485   -1.7306 C.ar      1 <0>         0.0876
     36 C25        -0.5492   -5.6746   -2.2432 C.ar      1 <0>        -0.1715
     37 H2          0.2767    1.9929   -0.1937 H         1 <0>         0.0929
     38 H3         -1.4521    1.7601   -0.5480 H         1 <0>         0.0742
     39 H4         -0.8781    1.7384    1.1367 H         1 <0>         0.0690
     40 H5         -0.5455   -0.1777   -2.1342 H         1 <0>         0.0914
     41 H6          1.0809    0.2150   -1.5254 H         1 <0>         0.0474
     42 H7          1.8632   -3.1712   -0.4781 H         1 <0>         0.1151
     43 H8          2.4576   -1.4959   -0.5788 H         1 <0>         0.0439
     44 H9          0.2364   -2.5407    1.2382 H         1 <0>         0.0785
     45 H10         1.8469   -1.9632    1.7415 H         1 <0>         0.0993
     46 H11        -1.3693    2.1364    2.6084 H         1 <0>         0.1504
     47 H12        -3.1152    2.1008    4.3445 H         1 <0>         0.1359
     48 H13        -1.0741   -1.0732    6.3319 H         1 <0>         0.1433
     49 H14         0.6673   -1.0432    4.5913 H         1 <0>         0.1464
     50 H15        -2.4580   -1.2427    7.4967 H         1 <0>         0.0906
     51 H16        -4.1803   -0.9438    7.8327 H         1 <0>         0.0871
     52 H17        -3.6830   -1.6094    6.2585 H         1 <0>         0.0938
     53 H18        -4.5013    1.7944    5.5673 H         1 <0>         0.3877
     54 H19         0.2570   -1.8232   -3.4651 H         1 <0>         0.0817
     55 H20         1.9568   -1.8405   -2.9370 H         1 <0>         0.0481
     56 H21         2.7333   -3.4994   -1.5818 H         1 <0>         0.0814
     57 H22         1.8084   -4.9909   -1.2483 H         1 <0>         0.0720
     58 H23         4.0939   -4.9403   -2.8136 H         1 <0>         0.0671
     59 H24         2.7844   -6.1433   -3.0321 H         1 <0>         0.0665
     60 H25         3.2190   -3.5105   -4.5471 H         1 <0>         0.0672
     61 H26         2.8939   -5.1424   -5.2195 H         1 <0>         0.0689
     62 H27         0.6036   -5.1138   -4.4764 H         1 <0>         0.0739
     63 H28         0.8462   -3.4072   -4.9645 H         1 <0>         0.0698
     64 H29        -1.1716   -2.3928   -1.8041 H         1 <0>         0.1671
     65 H30        -3.2593   -3.3596   -0.9260 H         1 <0>         0.1467
     66 H31        -1.9244   -7.2125   -1.6998 H         1 <0>         0.1483
     67 H32         0.1984   -6.3609   -2.6125 H         1 <0>         0.1268
@<TRIPOS>BOND
     1    1    2 1
     2    1   37 1
     3    1   38 1
     4    1   39 1
     5    2    3 1
     6    2    8 1
     7    2    4 1
     8    4    5 1
     9    4   40 1
    10    4   41 1
    11    5    6 1
    12    5   25 1
    13    6    7 1
    14    6   42 1
    15    6   43 1
    16    7    8 1
    17    7   44 1
    18    7   45 1
    19    8    9 1
    20    9   10 2
    21    9   11 2
    22    9   12 1
    23   12   17 ar
    24   12   13 ar
    25   13   14 ar
    26   13   46 1
    27   14   15 ar
    28   14   47 1
    29   15   16 ar
    30   15   18 1
    31   16   17 ar
    32   16   48 1
    33   17   49 1
    34   18   19 1
    35   18   20 1
    36   18   24 1
    37   19   50 1
    38   19   51 1
    39   19   52 1
    40   20   21 1
    41   20   22 1
    42   20   23 1
    43   24   53 1
    44   25   26 1
    45   25   54 1
    46   25   55 1
    47   26   30 1
    48   26   27 1
    49   26   31 1
    50   27   28 1
    51   27   56 1
    52   27   57 1
    53   28   29 1
    54   28   58 1
    55   28   59 1
    56   29   30 1
    57   29   60 1
    58   29   61 1
    59   30   62 1
    60   30   63 1
    61   31   36 ar
    62   31   32 ar
    63   32   33 ar
    64   32   64 1
    65   33   34 ar
    66   33   65 1
    67   34   35 ar
    68   35   36 ar
    69   35   66 1
    70   36   67 1
@<TRIPOS>MOLECULE
CHEMBL490967__4
   68    71     0     0     0
SMALL
USER_CHARGES

@<TRIPOS>ATOM
      1 C1          0.7917   -0.9958    2.9930 C.3       1 <0>        -0.1942
      2 C2          0.6901   -2.1302    1.9714 C.3       1 <0>         0.1344
      3 H1         -0.3497   -2.4418    1.8722 H         1 <0>         0.1032
      4 C3          1.2152   -1.6496    0.6145 C.3       1 <0>        -0.0201
      5 N1          1.2437   -2.7772   -0.3256 N.4       1 <0>        -0.3843
      6 C4          2.2046   -3.7877    0.1345 C.3       1 <0>        -0.0417
      7 C5          1.7285   -4.3742    1.4676 C.3       1 <0>         0.0913
      8 N2          1.5075   -3.2699    2.4152 N.pl3     1 <0>        -1.0092
      9 S1          2.1652   -3.3055    3.9346 S.o2      1 <0>         2.6903
     10 O1          3.1720   -4.3082    3.9179 O.2       1 <0>        -0.9383
     11 O2          2.4385   -1.9573    4.2905 O.2       1 <0>        -0.9330
     12 C6          0.9090   -3.8716    5.0329 C.ar      1 <0>        -0.6722
     13 C7          0.0601   -2.9641    5.6384 C.ar      1 <0>        -0.0220
     14 C8         -0.9255   -3.4081    6.5001 C.ar      1 <0>        -0.1122
     15 C9         -1.0624   -4.7597    6.7558 C.ar      1 <0>        -0.0682
     16 C10        -0.2140   -5.6673    6.1496 C.ar      1 <0>        -0.1088
     17 C11         0.7688   -5.2236    5.2846 C.ar      1 <0>        -0.0163
     18 C12        -2.1361   -5.2437    7.6959 C.3       1 <0>         0.1362
     19 C13        -2.5870   -6.6446    7.2773 C.3       1 <0>        -0.1518
     20 C14        -1.5825   -5.2909    9.1215 C.3       1 <0>         0.4271
     21 F1         -1.1703   -4.0099    9.5043 F         1 <0>        -0.1791
     22 F2         -2.5794   -5.7402    9.9942 F         1 <0>        -0.1651
     23 F3         -0.4918   -6.1655    9.1695 F         1 <0>        -0.1722
     24 O3         -3.2503   -4.3503    7.6469 O.3       1 <0>        -0.5153
     25 C15         1.6420   -2.2945   -1.6546 C.3       1 <0>         0.0006
     26 C16         1.5151   -3.4324   -2.6696 C.3       1 <0>        -0.0409
     27 C17         2.7035   -4.3997   -2.5283 C.3       1 <0>        -0.1518
     28 C18         3.4424   -4.3907   -3.8824 C.3       1 <0>        -0.1248
     29 C19         3.0580   -3.0305   -4.5159 C.3       1 <0>        -0.1292
     30 C20         1.5734   -2.8693   -4.1046 C.3       1 <0>        -0.1041
     31 C21         0.2189   -4.1710   -2.4571 C.ar      1 <0>        -0.0667
     32 C22        -0.9625   -3.4811   -2.2321 C.ar      1 <0>        -0.2042
     33 C23        -2.1320   -4.1924   -2.0414 C.ar      1 <0>         0.1209
     34 N3         -2.1321   -5.5107   -2.0712 N.ar      1 <0>        -0.4710
     35 C24        -1.0277   -6.1997   -2.2825 C.ar      1 <0>         0.1231
     36 C25         0.1783   -5.5566   -2.4876 C.ar      1 <0>        -0.1704
     37 H2          1.8191   -0.6339    3.0332 H         1 <0>         0.1126
     38 H3          0.1307   -0.1809    2.6980 H         1 <0>         0.0900
     39 H4          0.4977   -1.3645    3.9757 H         1 <0>         0.0843
     40 H5          0.5599   -0.8696    0.2267 H         1 <0>         0.1463
     41 H6          2.2226   -1.2513    0.7350 H         1 <0>         0.1407
     42 H7          2.2784   -4.5832   -0.6069 H         1 <0>         0.1575
     43 H8          3.1821   -3.3247    0.2695 H         1 <0>         0.1403
     44 H9          0.7947   -4.9158    1.3168 H         1 <0>         0.0970
     45 H10         2.4875   -5.0497    1.8624 H         1 <0>         0.1438
     46 H11         0.1670   -1.9081    5.4386 H         1 <0>         0.1506
     47 H12        -1.5883   -2.6991    6.9737 H         1 <0>         0.1401
     48 H13        -0.3208   -6.7232    6.3496 H         1 <0>         0.1477
     49 H14         1.4292   -5.9329    4.8081 H         1 <0>         0.1480
     50 H15        -1.7371   -7.3261    7.3147 H         1 <0>         0.0915
     51 H16        -3.3636   -6.9947    7.9573 H         1 <0>         0.0910
     52 H17        -2.9813   -6.6110    6.2617 H         1 <0>         0.0929
     53 H18        -3.0374   -3.4417    7.9005 H         1 <0>         0.3884
     54 H19         0.9941   -1.4696   -1.9508 H         1 <0>         0.1371
     55 H20         2.6758   -1.9508   -1.6215 H         1 <0>         0.1424
     56 H21         3.3705   -4.0585   -1.7366 H         1 <0>         0.0820
     57 H22         2.3430   -5.4041   -2.3063 H         1 <0>         0.0944
     58 H23         4.5200   -4.4492   -3.7293 H         1 <0>         0.0796
     59 H24         3.0999   -5.2139   -4.5094 H         1 <0>         0.0763
     60 H25         3.6637   -2.2256   -4.0996 H         1 <0>         0.0737
     61 H26         3.1564   -3.0681   -5.6008 H         1 <0>         0.0818
     62 H27         0.9291   -3.4469   -4.7675 H         1 <0>         0.0871
     63 H28         1.2871   -1.8177   -4.1137 H         1 <0>         0.0811
     64 H29        -0.9687   -2.4014   -2.2059 H         1 <0>         0.1383
     65 H30        -3.0565   -3.6624   -1.8656 H         1 <0>         0.1656
     66 H31        -1.0669   -7.2788   -2.2996 H         1 <0>         0.1672
     67 H32         1.0785   -6.1262   -2.6651 H         1 <0>         0.1516
     68 H33         0.3246   -3.1899   -0.3818 H         1 <0>         0.4192
@<TRIPOS>BOND
     1    1    2 1
     2    1   37 1
     3    1   38 1
     4    1   39 1
     5    2    3 1
     6    2    8 1
     7    2    4 1
     8    4    5 1
     9    4   40 1
    10    4   41 1
    11    5    6 1
    12    5   25 1
    13    5   68 1
    14    6    7 1
    15    6   42 1
    16    6   43 1
    17    7    8 1
    18    7   44 1
    19    7   45 1
    20    8    9 1
    21    9   10 2
    22    9   11 2
    23    9   12 1
    24   12   17 ar
    25   12   13 ar
    26   13   14 ar
    27   13   46 1
    28   14   15 ar
    29   14   47 1
    30   15   16 ar
    31   15   18 1
    32   16   17 ar
    33   16   48 1
    34   17   49 1
    35   18   19 1
    36   18   20 1
    37   18   24 1
    38   19   50 1
    39   19   51 1
    40   19   52 1
    41   20   21 1
    42   20   22 1
    43   20   23 1
    44   24   53 1
    45   25   26 1
    46   25   54 1
    47   25   55 1
    48   26   30 1
    49   26   27 1
    50   26   31 1
    51   27   28 1
    52   27   56 1
    53   27   57 1
    54   28   29 1
    55   28   58 1
    56   28   59 1
    57   29   30 1
    58   29   60 1
    59   29   61 1
    60   30   62 1
    61   30   63 1
    62   31   36 ar
    63   31   32 ar
    64   32   33 ar
    65   32   64 1
    66   33   34 ar
    67   33   65 1
    68   34   35 ar
    69   35   36 ar
    70   35   66 1
    71   36   67 1
@<TRIPOS>MOLECULE
CHEMBL490967__5
   68    71     0     0     0
SMALL
USER_CHARGES

@<TRIPOS>ATOM
      1 C1         -0.6315    1.4717    0.1090 C.3       1 <0>        -0.1906
      2 C2         -0.4085   -0.0389    0.0136 C.3       1 <0>         0.1593
      3 H1         -1.3584   -0.5581    0.1414 H         1 <0>         0.0824
      4 C3          0.1876   -0.3858   -1.3549 C.3       1 <0>         0.0352
      5 N1          0.5425   -1.8110   -1.3838 N.3       1 <0>        -0.5436
      6 C4          1.5837   -2.1210   -0.3949 C.3       1 <0>         0.0107
      7 C5          1.0449   -1.8452    1.0128 C.3       1 <0>         0.1205
      8 N2          0.5329   -0.4665    1.0596 N.pl3     1 <0>        -0.9968
      9 S1          1.0082    0.5778    2.2538 S.o2      1 <0>         2.6867
     10 O1          2.1757    0.0195    2.8405 O.2       1 <0>        -0.9495
     11 O2          0.9893    1.8801    1.6856 O.2       1 <0>        -0.9415
     12 C6         -0.2413    0.5521    3.4959 C.ar      1 <0>        -0.6670
     13 C7         -1.3046    1.4326    3.4250 C.ar      1 <0>        -0.0212
     14 C8         -2.2848    1.4124    4.3995 C.ar      1 <0>        -0.1140
     15 C9         -2.2019    0.5115    5.4447 C.ar      1 <0>        -0.0757
     16 C10        -1.1391   -0.3696    5.5151 C.ar      1 <0>        -0.1116
     17 C11        -0.1611   -0.3523    4.5383 C.ar      1 <0>        -0.0177
     18 C12        -3.2700    0.4902    6.5076 C.3       1 <0>         0.1380
     19 C13        -3.4077   -0.9284    7.0639 C.3       1 <0>        -0.1501
     20 C14        -2.8836    1.4460    7.6381 C.3       1 <0>         0.4267
     21 F1         -2.7577    2.7432    7.1295 F         1 <0>        -0.1786
     22 F2         -3.8751    1.4262    8.6248 F         1 <0>        -0.1669
     23 F3         -1.6647    1.0426    8.1937 F         1 <0>        -0.1722
     24 O3         -4.5151    0.9023    5.9401 O.3       1 <0>        -0.5176
     25 C15         0.9570   -2.2231   -2.7315 C.3       1 <0>         0.0490
     26 C16         0.9680   -3.7506   -2.8169 C.3       1 <0>        -0.0359
     27 C17         2.1618   -4.3142   -2.0263 C.3       1 <0>        -0.1293
     28 C18         3.0368   -5.0830   -3.0378 C.3       1 <0>        -0.1287
     29 C19         2.6824   -4.4487   -4.4057 C.3       1 <0>        -0.1268
     30 C20         1.1593   -4.1966   -4.2813 C.3       1 <0>        -0.1125
     31 C21        -0.3222   -4.3071   -2.2721 C.ar      1 <0>         0.0642
     32 C22        -1.3127   -3.4634   -1.7931 C.ar      1 <0>        -0.1064
     33 C23        -2.4828   -4.0100   -1.3009 C.ar      1 <0>         0.1152
     34 N3         -2.6620   -5.3163   -1.2834 N.ar      1 <0>        -0.4482
     35 C24        -1.7420   -6.1485   -1.7306 C.ar      1 <0>         0.1250
     36 C25        -0.5492   -5.6746   -2.2432 C.ar      1 <0>        -0.1317
     37 H2          0.2767    1.9929   -0.1937 H         1 <0>         0.0963
     38 H3         -1.4521    1.7601   -0.5480 H         1 <0>         0.0763
     39 H4         -0.8781    1.7384    1.1367 H         1 <0>         0.0726
     40 H5         -0.5455   -0.1777   -2.1342 H         1 <0>         0.0957
     41 H6          1.0809    0.2150   -1.5254 H         1 <0>         0.0582
     42 H7          1.8632   -3.1712   -0.4781 H         1 <0>         0.1135
     43 H8          2.4576   -1.4959   -0.5788 H         1 <0>         0.0558
     44 H9          0.2364   -2.5407    1.2382 H         1 <0>         0.0728
     45 H10         1.8469   -1.9632    1.7415 H         1 <0>         0.1045
     46 H11        -1.3693    2.1364    2.6084 H         1 <0>         0.1506
     47 H12        -3.1152    2.1008    4.3445 H         1 <0>         0.1375
     48 H13        -1.0741   -1.0732    6.3319 H         1 <0>         0.1444
     49 H14         0.6673   -1.0432    4.5913 H         1 <0>         0.1462
     50 H15        -2.4580   -1.2427    7.4967 H         1 <0>         0.0911
     51 H16        -4.1803   -0.9438    7.8327 H         1 <0>         0.0891
     52 H17        -3.6830   -1.6094    6.2585 H         1 <0>         0.0911
     53 H18        -4.5013    1.7944    5.5673 H         1 <0>         0.3888
     54 H19         0.2570   -1.8232   -3.4651 H         1 <0>         0.0913
     55 H20         1.9568   -1.8405   -2.9370 H         1 <0>         0.0667
     56 H21         2.7333   -3.4994   -1.5818 H         1 <0>         0.0952
     57 H22         1.8084   -4.9909   -1.2483 H         1 <0>         0.0735
     58 H23         4.0939   -4.9403   -2.8136 H         1 <0>         0.0777
     59 H24         2.7844   -6.1433   -3.0321 H         1 <0>         0.0705
     60 H25         3.2190   -3.5105   -4.5471 H         1 <0>         0.0752
     61 H26         2.8939   -5.1424   -5.2195 H         1 <0>         0.0787
     62 H27         0.6036   -5.1138   -4.4764 H         1 <0>         0.0760
     63 H28         0.8462   -3.4072   -4.9645 H         1 <0>         0.0820
     64 H29        -1.1716   -2.3928   -1.8041 H         1 <0>         0.2129
     65 H30        -3.2593   -3.3596   -0.9260 H         1 <0>         0.2039
     66 H31        -1.9244   -7.2125   -1.6998 H         1 <0>         0.2057
     67 H32         0.1984   -6.3609   -2.6125 H         1 <0>         0.1794
     68 H33        -3.4922   -5.6745   -0.9321 H         1 <0>         0.4482
@<TRIPOS>BOND
     1    1    2 1
     2    1   37 1
     3    1   38 1
     4    1   39 1
     5    2    3 1
     6    2    8 1
     7    2    4 1
     8    4    5 1
     9    4   40 1
    10    4   41 1
    11    5    6 1
    12    5   25 1
    13    6    7 1
    14    6   42 1
    15    6   43 1
    16    7    8 1
    17    7   44 1
    18    7   45 1
    19    8    9 1
    20    9   10 2
    21    9   11 2
    22    9   12 1
    23   12   17 ar
    24   12   13 ar
    25   13   14 ar
    26   13   46 1
    27   14   15 ar
    28   14   47 1
    29   15   16 ar
    30   15   18 1
    31   16   17 ar
    32   16   48 1
    33   17   49 1
    34   18   19 1
    35   18   20 1
    36   18   24 1
    37   19   50 1
    38   19   51 1
    39   19   52 1
    40   20   21 1
    41   20   22 1
    42   20   23 1
    43   24   53 1
    44   25   26 1
    45   25   54 1
    46   25   55 1
    47   26   30 1
    48   26   27 1
    49   26   31 1
    50   27   28 1
    51   27   56 1
    52   27   57 1
    53   28   29 1
    54   28   58 1
    55   28   59 1
    56   29   30 1
    57   29   60 1
    58   29   61 1
    59   30   62 1
    60   30   63 1
    61   31   36 ar
    62   31   32 ar
    63   32   33 ar
    64   32   64 1
    65   33   34 ar
    66   33   65 1
    67   34   35 ar
    68   34   68 1
    69   35   36 ar
    70   35   66 1
    71   36   67 1
@<TRIPOS>MOLECULE
CHEMBL246678
   54    58     0     0     0
SMALL
USER_CHARGES

@<TRIPOS>ATOM
      1 C1          0.4307    1.4909    0.0459 C.3       1 <0>        -0.1365
      2 C2          0.2376   -0.0269    0.0552 C.3       1 <0>         0.0947
      3 C3          1.2756   -0.6673    0.9790 C.3       1 <0>        -0.1959
      4 C4         -1.1470   -0.3541    0.5521 C.2       1 <0>         0.4857
      5 O1         -1.9181   -0.9633   -0.1587 O.2       1 <0>        -0.5132
      6 N1         -1.5284    0.0302    1.7863 N.am      1 <0>        -0.7121
      7 C5         -2.8744   -0.2879    2.2693 C.3       1 <0>         0.1567
      8 C6         -3.8545    0.7855    1.7917 C.3       1 <0>        -0.0912
      9 C7         -3.4251    2.1481    2.3392 C.3       1 <0>        -0.1032
     10 C8         -3.4212    2.1051    3.8685 C.3       1 <0>        -0.0855
     11 C9         -2.4410    1.0317    4.3461 C.3       1 <0>        -0.1067
     12 C10        -2.8705   -0.3309    3.7987 C.3       1 <0>        -0.0918
     13 C11        -4.2762   -0.6632    4.3031 C.3       1 <0>        -0.0851
     14 C12        -5.2564    0.4102    3.8256 C.3       1 <0>         0.0656
     15 C13        -4.8269    1.7729    4.3730 C.3       1 <0>        -0.0934
     16 C14        -5.2602    0.4532    2.2962 C.3       1 <0>        -0.0914
     17 C15        -6.6410    0.0830    4.3224 C.2       1 <0>         0.0633
     18 N2         -6.9886   -0.9587    5.0639 N.2       1 <0>        -0.3874
     19 N3         -8.2579   -0.8796    5.2763 N.2       1 <0>        -0.2025
     20 N4         -8.7157    0.1737    4.6943 N.2       1 <0>        -0.2019
     21 N5         -7.7441    0.7847    4.1067 N.2       1 <0>        -0.3863
     22 O2          0.4008   -0.5360   -1.2700 O.3       1 <0>        -0.2711
     23 C16         0.2786   -1.8802   -1.4343 C.ar      1 <0>         0.1453
     24 C17        -0.1155   -2.6766   -0.3696 C.ar      1 <0>        -0.1427
     25 C18        -0.2399   -4.0422   -0.5379 C.ar      1 <0>        -0.1121
     26 C19         0.0286   -4.6165   -1.7689 C.ar      1 <0>         0.0747
     27 C20         0.4221   -3.8235   -2.8332 C.ar      1 <0>        -0.1144
     28 C21         0.5424   -2.4559   -2.6693 C.ar      1 <0>        -0.0435
     29 Cl1         1.0296   -1.4604   -4.0055 Cl        1 <0>        -0.0470
     30 F1         -0.0932   -5.9521   -1.9314 F         1 <0>        -0.1351
     31 H1          1.4580    1.7247   -0.2333 H         1 <0>         0.0814
     32 H2         -0.2529    1.9396   -0.6748 H         1 <0>         0.0771
     33 H3          0.2244    1.8895    1.0392 H         1 <0>         0.0846
     34 H4          1.0261   -0.4435    2.0162 H         1 <0>         0.0814
     35 H5          1.2770   -1.7472    0.8306 H         1 <0>         0.0828
     36 H6          2.2631   -0.2676    0.7484 H         1 <0>         0.0840
     37 H7         -0.9117    0.5174    2.3548 H         1 <0>         0.3978
     38 H8         -3.1803   -1.2587    1.8793 H         1 <0>         0.0896
     39 H9         -3.8573    0.8161    0.7022 H         1 <0>         0.0715
     40 H10        -2.4236    2.3848    1.9798 H         1 <0>         0.0548
     41 H11        -4.1233    2.9128    1.9989 H         1 <0>         0.0642
     42 H12        -3.1152    3.0759    4.2585 H         1 <0>         0.0681
     43 H13        -1.4396    1.2684    3.9867 H         1 <0>         0.0526
     44 H14        -2.4383    1.0011    5.4357 H         1 <0>         0.0679
     45 H15        -2.1722   -1.0956    4.1389 H         1 <0>         0.0736
     46 H16        -4.5822   -1.6339    3.9131 H         1 <0>         0.0671
     47 H17        -4.2735   -0.6938    5.3927 H         1 <0>         0.0713
     48 H18        -4.8242    1.7423    5.4625 H         1 <0>         0.0570
     49 H19        -5.5252    2.5376    4.0328 H         1 <0>         0.0676
     50 H20        -5.9585    1.2179    1.9559 H         1 <0>         0.0712
     51 H21        -5.5662   -0.5175    1.9062 H         1 <0>         0.0583
     52 H22        -0.3248   -2.2295    0.5910 H         1 <0>         0.1465
     53 H23        -0.5465   -4.6624    0.2915 H         1 <0>         0.1433
     54 H24         0.6313   -4.2727   -3.7928 H         1 <0>         0.1504
@<TRIPOS>BOND
     1    1    2 1
     2    1   31 1
     3    1   32 1
     4    1   33 1
     5    2    3 1
     6    2    4 1
     7    2   22 1
     8    3   34 1
     9    3   35 1
    10    3   36 1
    11    4    5 2
    12    4    6 am
    13    6    7 1
    14    6   37 1
    15    7   12 1
    16    7    8 1
    17    7   38 1
    18    8   16 1
    19    8    9 1
    20    8   39 1
    21    9   10 1
    22    9   40 1
    23    9   41 1
    24   10   15 1
    25   10   11 1
    26   10   42 1
    27   11   12 1
    28   11   43 1
    29   11   44 1
    30   12   13 1
    31   12   45 1
    32   13   14 1
    33   13   46 1
    34   13   47 1
    35   14   15 1
    36   14   16 1
    37   14   17 1
    38   15   48 1
    39   15   49 1
    40   16   50 1
    41   16   51 1
    42   17   21 2
    43   17   18 1
    44   18   19 1
    45   19   20 2
    46   20   21 1
    47   22   23 1
    48   23   28 ar
    49   23   24 ar
    50   24   25 ar
    51   24   52 1
    52   25   26 ar
    53   25   53 1
    54   26   27 ar
    55   26   30 1
    56   27   28 ar
    57   27   54 1
    58   28   29 1
@<TRIPOS>MOLECULE
CHEMBL246678__1
   55    59     0     0     0
SMALL
USER_CHARGES

@<TRIPOS>ATOM
      1 C1          0.4307    1.4909    0.0459 C.3       1 <0>        -0.1376
      2 C2          0.2376   -0.0269    0.0552 C.3       1 <0>         0.0957
      3 C3          1.2756   -0.6673    0.9790 C.3       1 <0>        -0.1970
      4 C4         -1.1470   -0.3541    0.5521 C.2       1 <0>         0.4895
      5 O1         -1.9181   -0.9633   -0.1587 O.2       1 <0>        -0.5105
      6 N1         -1.5284    0.0302    1.7863 N.am      1 <0>        -0.7162
      7 C5         -2.8744   -0.2879    2.2693 C.3       1 <0>         0.1546
      8 C6         -3.8545    0.7855    1.7917 C.3       1 <0>        -0.0919
      9 C7         -3.4251    2.1481    2.3392 C.3       1 <0>        -0.1090
     10 C8         -3.4212    2.1051    3.8685 C.3       1 <0>        -0.0838
     11 C9         -2.4410    1.0317    4.3461 C.3       1 <0>        -0.1126
     12 C10        -2.8705   -0.3309    3.7987 C.3       1 <0>        -0.0913
     13 C11        -4.2762   -0.6632    4.3031 C.3       1 <0>        -0.0940
     14 C12        -5.2564    0.4102    3.8256 C.3       1 <0>         0.0460
     15 C13        -4.8269    1.7729    4.3730 C.3       1 <0>        -0.0996
     16 C14        -5.2602    0.4532    2.2962 C.3       1 <0>        -0.0978
     17 C15        -6.6410    0.0830    4.3224 C.2       1 <0>         0.1828
     18 N2         -7.7322    0.7749    4.1041 N.2       1 <0>        -0.2966
     19 N3         -8.7079    0.1728    4.6928 N.pl3     1 <0>        -0.2304
     20 N4         -8.2598   -0.8832    5.2780 N.2       1 <0>        -0.0509
     21 N5         -6.9907   -0.9688    5.0632 N.2       1 <0>        -0.2726
     22 O2          0.4008   -0.5360   -1.2700 O.3       1 <0>        -0.2702
     23 C16         0.2786   -1.8802   -1.4343 C.ar      1 <0>         0.1424
     24 C17        -0.1155   -2.6766   -0.3696 C.ar      1 <0>        -0.1452
     25 C18        -0.2399   -4.0422   -0.5379 C.ar      1 <0>        -0.1137
     26 C19         0.0286   -4.6165   -1.7689 C.ar      1 <0>         0.0773
     27 C20         0.4221   -3.8235   -2.8332 C.ar      1 <0>        -0.1130
     28 C21         0.5424   -2.4559   -2.6693 C.ar      1 <0>        -0.0419
     29 Cl1         1.0296   -1.4604   -4.0055 Cl        1 <0>        -0.0429
     30 F1         -0.0932   -5.9521   -1.9314 F         1 <0>        -0.1335
     31 H1          1.4580    1.7247   -0.2333 H         1 <0>         0.0842
     32 H2         -0.2529    1.9396   -0.6748 H         1 <0>         0.0772
     33 H3          0.2244    1.8895    1.0392 H         1 <0>         0.0836
     34 H4          1.0261   -0.4435    2.0162 H         1 <0>         0.0804
     35 H5          1.2770   -1.7472    0.8306 H         1 <0>         0.0839
     36 H6          2.2631   -0.2676    0.7484 H         1 <0>         0.0866
     37 H7         -0.9117    0.5174    2.3548 H         1 <0>         0.4003
     38 H8         -3.1803   -1.2587    1.8793 H         1 <0>         0.0928
     39 H9         -3.8573    0.8161    0.7022 H         1 <0>         0.0825
     40 H10        -2.4236    2.3848    1.9798 H         1 <0>         0.0651
     41 H11        -4.1233    2.9128    1.9989 H         1 <0>         0.0679
     42 H12        -3.1152    3.0759    4.2585 H         1 <0>         0.0795
     43 H13        -1.4396    1.2684    3.9867 H         1 <0>         0.0628
     44 H14        -2.4383    1.0011    5.4357 H         1 <0>         0.0729
     45 H15        -2.1722   -1.0956    4.1389 H         1 <0>         0.0855
     46 H16        -4.5822   -1.6339    3.9131 H         1 <0>         0.0767
     47 H17        -4.2735   -0.6938    5.3927 H         1 <0>         0.0806
     48 H18        -4.8242    1.7423    5.4625 H         1 <0>         0.0675
     49 H19        -5.5252    2.5376    4.0328 H         1 <0>         0.0738
     50 H20        -5.9585    1.2179    1.9559 H         1 <0>         0.0772
     51 H21        -5.5662   -0.5175    1.9062 H         1 <0>         0.0687
     52 H22        -0.3248   -2.2295    0.5910 H         1 <0>         0.1443
     53 H23        -0.5465   -4.6624    0.2915 H         1 <0>         0.1427
     54 H24         0.6313   -4.2727   -3.7928 H         1 <0>         0.1523
     55 H25        -9.6319    0.4678    4.6947 H         1 <0>         0.4749
@<TRIPOS>BOND
     1    1    2 1
     2    1   31 1
     3    1   32 1
     4    1   33 1
     5    2    3 1
     6    2    4 1
     7    2   22 1
     8    3   34 1
     9    3   35 1
    10    3   36 1
    11    4    5 2
    12    4    6 am
    13    6    7 1
    14    6   37 1
    15    7   12 1
    16    7    8 1
    17    7   38 1
    18    8   16 1
    19    8    9 1
    20    8   39 1
    21    9   10 1
    22    9   40 1
    23    9   41 1
    24   10   15 1
    25   10   11 1
    26   10   42 1
    27   11   12 1
    28   11   43 1
    29   11   44 1
    30   12   13 1
    31   12   45 1
    32   13   14 1
    33   13   46 1
    34   13   47 1
    35   14   15 1
    36   14   16 1
    37   14   17 1
    38   15   48 1
    39   15   49 1
    40   16   50 1
    41   16   51 1
    42   17   21 1
    43   17   18 2
    44   18   19 1
    45   19   20 1
    46   19   55 1
    47   20   21 2
    48   22   23 1
    49   23   28 ar
    50   23   24 ar
    51   24   25 ar
    52   24   52 1
    53   25   26 ar
    54   25   53 1
    55   26   27 ar
    56   26   30 1
    57   27   28 ar
    58   27   54 1
    59   28   29 1
@<TRIPOS>MOLECULE
CHEMBL246678__2
   55    59     0     0     0
SMALL
USER_CHARGES

@<TRIPOS>ATOM
      1 C1          0.4307    1.4909    0.0459 C.3       1 <0>        -0.1376
      2 C2          0.2376   -0.0269    0.0552 C.3       1 <0>         0.0959
      3 C3          1.2756   -0.6673    0.9790 C.3       1 <0>        -0.1972
      4 C4         -1.1470   -0.3541    0.5521 C.2       1 <0>         0.4898
      5 O1         -1.9181   -0.9633   -0.1587 O.2       1 <0>        -0.5091
      6 N1         -1.5284    0.0302    1.7863 N.am      1 <0>        -0.7170
      7 C5         -2.8744   -0.2879    2.2693 C.3       1 <0>         0.1544
      8 C6         -3.8545    0.7855    1.7917 C.3       1 <0>        -0.0916
      9 C7         -3.4251    2.1481    2.3392 C.3       1 <0>        -0.1107
     10 C8         -3.4212    2.1051    3.8685 C.3       1 <0>        -0.0819
     11 C9         -2.4410    1.0317    4.3461 C.3       1 <0>        -0.1135
     12 C10        -2.8705   -0.3309    3.7987 C.3       1 <0>        -0.0921
     13 C11        -4.2762   -0.6632    4.3031 C.3       1 <0>        -0.0907
     14 C12        -5.2564    0.4102    3.8256 C.3       1 <0>         0.0278
     15 C13        -4.8269    1.7729    4.3730 C.3       1 <0>        -0.1086
     16 C14        -5.2602    0.4532    2.2962 C.3       1 <0>        -0.1014
     17 C15        -6.6410    0.0830    4.3224 C.2       1 <0>         0.2034
     18 N2         -7.0469   -1.0642    4.8092 N.2       1 <0>        -0.2940
     19 N3         -8.2911   -0.9458    5.1223 N.2       1 <0>        -0.0664
     20 N4         -8.6893    0.2473    4.8478 N.2       1 <0>        -0.0859
     21 N5         -7.6993    0.9139    4.3578 N.pl3     1 <0>        -0.4047
     22 O2          0.4008   -0.5360   -1.2700 O.3       1 <0>        -0.2702
     23 C16         0.2786   -1.8802   -1.4343 C.ar      1 <0>         0.1415
     24 C17        -0.1155   -2.6766   -0.3696 C.ar      1 <0>        -0.1455
     25 C18        -0.2399   -4.0422   -0.5379 C.ar      1 <0>        -0.1136
     26 C19         0.0286   -4.6165   -1.7689 C.ar      1 <0>         0.0781
     27 C20         0.4221   -3.8235   -2.8332 C.ar      1 <0>        -0.1129
     28 C21         0.5424   -2.4559   -2.6693 C.ar      1 <0>        -0.0415
     29 Cl1         1.0296   -1.4604   -4.0055 Cl        1 <0>        -0.0427
     30 F1         -0.0932   -5.9521   -1.9314 F         1 <0>        -0.1330
     31 H1          1.4580    1.7247   -0.2333 H         1 <0>         0.0847
     32 H2         -0.2529    1.9396   -0.6748 H         1 <0>         0.0771
     33 H3          0.2244    1.8895    1.0392 H         1 <0>         0.0831
     34 H4          1.0261   -0.4435    2.0162 H         1 <0>         0.0801
     35 H5          1.2770   -1.7472    0.8306 H         1 <0>         0.0843
     36 H6          2.2631   -0.2676    0.7484 H         1 <0>         0.0869
     37 H7         -0.9117    0.5174    2.3548 H         1 <0>         0.4005
     38 H8         -3.1803   -1.2587    1.8793 H         1 <0>         0.0949
     39 H9         -3.8573    0.8161    0.7022 H         1 <0>         0.0854
     40 H10        -2.4236    2.3848    1.9798 H         1 <0>         0.0684
     41 H11        -4.1233    2.9128    1.9989 H         1 <0>         0.0675
     42 H12        -3.1152    3.0759    4.2585 H         1 <0>         0.0823
     43 H13        -1.4396    1.2684    3.9867 H         1 <0>         0.0651
     44 H14        -2.4383    1.0011    5.4357 H         1 <0>         0.0742
     45 H15        -2.1722   -1.0956    4.1389 H         1 <0>         0.0884
     46 H16        -4.5822   -1.6339    3.9131 H         1 <0>         0.0843
     47 H17        -4.2735   -0.6938    5.3927 H         1 <0>         0.0808
     48 H18        -4.8242    1.7423    5.4625 H         1 <0>         0.0751
     49 H19        -5.5252    2.5376    4.0328 H         1 <0>         0.0655
     50 H20        -5.9585    1.2179    1.9559 H         1 <0>         0.0702
     51 H21        -5.5662   -0.5175    1.9062 H         1 <0>         0.0777
     52 H22        -0.3248   -2.2295    0.5910 H         1 <0>         0.1439
     53 H23        -0.5465   -4.6624    0.2915 H         1 <0>         0.1430
     54 H24         0.6313   -4.2727   -3.7928 H         1 <0>         0.1526
     55 H25        -7.7153    1.8392    4.0673 H         1 <0>         0.4550
@<TRIPOS>BOND
     1    1    2 1
     2    1   31 1
     3    1   32 1
     4    1   33 1
     5    2    3 1
     6    2    4 1
     7    2   22 1
     8    3   34 1
     9    3   35 1
    10    3   36 1
    11    4    5 2
    12    4    6 am
    13    6    7 1
    14    6   37 1
    15    7   12 1
    16    7    8 1
    17    7   38 1
    18    8   16 1
    19    8    9 1
    20    8   39 1
    21    9   10 1
    22    9   40 1
    23    9   41 1
    24   10   15 1
    25   10   11 1
    26   10   42 1
    27   11   12 1
    28   11   43 1
    29   11   44 1
    30   12   13 1
    31   12   45 1
    32   13   14 1
    33   13   46 1
    34   13   47 1
    35   14   15 1
    36   14   16 1
    37   14   17 1
    38   15   48 1
    39   15   49 1
    40   16   50 1
    41   16   51 1
    42   17   18 2
    43   17   21 1
    44   18   19 1
    45   19   20 2
    46   20   21 1
    47   21   55 1
    48   22   23 1
    49   23   28 ar
    50   23   24 ar
    51   24   25 ar
    52   24   52 1
    53   25   26 ar
    54   25   53 1
    55   26   27 ar
    56   26   30 1
    57   27   28 ar
    58   27   54 1
    59   28   29 1
@<TRIPOS>MOLECULE
CHEMBL1083161
   36    37     0     0     0
SMALL
USER_CHARGES

@<TRIPOS>ATOM
      1 C1          0.7675    1.1130    1.0429 C.3       1 <0>        -0.1369
      2 C2          0.6015   -0.3867    0.7890 C.3       1 <0>        -0.1028
      3 C3          1.2610   -1.1722    1.9244 C.3       1 <0>        -0.1429
      4 C4         -0.8878   -0.7318    0.7280 C.3       1 <0>        -0.1447
      5 C5          1.2554   -0.7501   -0.5192 C.2       1 <0>         0.3863
      6 O1          1.8752    0.0825   -1.1363 O.2       1 <0>        -0.4251
      7 C6          1.1359   -2.1527   -1.0572 C.3       1 <0>        -0.1889
      8 S1          2.1479   -2.3144   -2.5540 S.3       1 <0>         0.0323
      9 C7          2.0234   -4.0220   -2.9703 C.2       1 <0>         0.0229
     10 C8          1.1110   -4.9103   -2.4940 C.2       1 <0>        -0.0721
     11 N1          1.3419   -6.1019   -3.0442 N.2       1 <0>        -0.2192
     12 N2          2.3473   -6.0316   -3.8448 N.2       1 <0>        -0.0532
     13 N3          2.8211   -4.7110   -3.8394 N.pl3     1 <0>        -0.2981
     14 C9          3.8994   -4.2010   -4.5764 C.ar      1 <0>         0.1234
     15 C10         3.8008   -2.9557   -5.1820 C.ar      1 <0>        -0.1096
     16 C11         4.8647   -2.4559   -5.9075 C.ar      1 <0>        -0.0976
     17 C12         6.0269   -3.1949   -6.0312 C.ar      1 <0>        -0.1047
     18 C13         6.1280   -4.4356   -5.4291 C.ar      1 <0>        -0.1020
     19 C14         5.0697   -4.9379   -4.6972 C.ar      1 <0>        -0.0953
     20 H1          1.8286    1.3588    1.0864 H         1 <0>         0.0641
     21 H2          0.2977    1.6726    0.2340 H         1 <0>         0.0625
     22 H3          0.2946    1.3758    1.9891 H         1 <0>         0.0676
     23 H4          0.8499   -0.8447    2.8793 H         1 <0>         0.0747
     24 H5          1.0664   -2.2363    1.7908 H         1 <0>         0.0645
     25 H6          2.3364   -0.9951    1.9119 H         1 <0>         0.0624
     26 H7         -1.3576   -0.1722   -0.0808 H         1 <0>         0.0632
     27 H8         -1.0060   -1.8002    0.5472 H         1 <0>         0.0647
     28 H9         -1.3607   -0.4689    1.6742 H         1 <0>         0.0739
     29 H10         1.4835   -2.8612   -0.3053 H         1 <0>         0.1288
     30 H11         0.0938   -2.3616   -1.2989 H         1 <0>         0.1315
     31 H12         0.3274   -4.6868   -1.7851 H         1 <0>         0.1886
     32 H13         2.8931   -2.3784   -5.0863 H         1 <0>         0.1339
     33 H14         4.7886   -1.4872   -6.3788 H         1 <0>         0.1387
     34 H15         6.8571   -2.8024   -6.5995 H         1 <0>         0.1352
     35 H16         7.0368   -5.0107   -5.5278 H         1 <0>         0.1381
     36 H17         5.1509   -5.9050   -4.2235 H         1 <0>         0.1358
@<TRIPOS>BOND
     1    1    2 1
     2    1   20 1
     3    1   21 1
     4    1   22 1
     5    2    3 1
     6    2    4 1
     7    2    5 1
     8    3   23 1
     9    3   24 1
    10    3   25 1
    11    4   26 1
    12    4   27 1
    13    4   28 1
    14    5    6 2
    15    5    7 1
    16    7    8 1
    17    7   29 1
    18    7   30 1
    19    8    9 1
    20    9   13 1
    21    9   10 2
    22   10   11 1
    23   10   31 1
    24   11   12 2
    25   12   13 1
    26   13   14 1
    27   14   19 ar
    28   14   15 ar
    29   15   16 ar
    30   15   32 1
    31   16   17 ar
    32   16   33 1
    33   17   18 ar
    34   17   34 1
    35   18   19 ar
    36   18   35 1
    37   19   36 1
@<TRIPOS>MOLECULE
CHEMBL538945
   80    84     0     0     0
SMALL
USER_CHARGES

@<TRIPOS>ATOM
      1 C1         -0.7593    0.1849    2.7126 C.3       1 <0>        -0.1540
      2 C2         -0.6552   -1.3362    2.5849 C.3       1 <0>        -0.1193
      3 C3          0.7696   -1.7800    2.9226 C.3       1 <0>        -0.0866
      4 C4          0.8721   -3.2782    2.7968 C.ar      1 <0>        -0.0559
      5 C5          0.6034   -4.0813    3.8910 C.ar      1 <0>        -0.1229
      6 C6          0.6954   -5.4535    3.7825 C.ar      1 <0>        -0.0593
      7 C7          1.0606   -6.0313    2.5656 C.ar      1 <0>        -0.1374
      8 C8          1.3303   -5.2155    1.4657 C.ar      1 <0>        -0.0919
      9 C9          1.2291   -3.8449    1.5861 C.ar      1 <0>        -0.1236
     10 C10         1.1616   -7.5012    2.4423 C.2       1 <0>         0.5632
     11 O1          0.3992   -8.2169    3.0619 O.2       1 <0>        -0.5331
     12 N1          2.0991   -8.0475    1.6429 N.am      1 <0>        -0.6073
     13 C11         3.1065   -7.2027    0.9859 C.3       1 <0>         0.0758
     14 C12         4.5004   -7.7253    1.3550 C.3       1 <0>         0.1068
     15 N2          4.5340   -9.1765    1.1250 N.pl3     1 <0>        -0.5972
     16 C13         3.5266  -10.0212    1.7820 C.3       1 <0>         0.1123
     17 C14         2.1362   -9.4992    1.4173 C.3       1 <0>         0.0979
     18 C15         5.4980   -9.7382    0.3029 C.ar      1 <0>         0.4996
     19 C16         6.5731   -8.9755   -0.1477 C.ar      1 <0>        -0.3635
     20 C17         7.5154   -9.5810   -0.9695 C.ar      1 <0>         0.4271
     21 N3          7.3622  -10.8606   -1.2976 N.ar      1 <0>        -0.6367
     22 C18         6.3277  -11.5567   -0.8513 C.ar      1 <0>         0.6364
     23 N4          5.4123  -11.0148   -0.0621 N.ar      1 <0>        -0.6399
     24 N5          6.2028  -12.8862   -1.2146 N.pl3     1 <0>        -0.8180
     25 O2          8.5771   -8.8763   -1.4314 O.3       1 <0>        -0.2394
     26 C19         9.5224   -9.5417   -2.1460 C.ar      1 <0>         0.0731
     27 C20         9.2715   -9.9048   -3.4613 C.ar      1 <0>        -0.1053
     28 C21        10.2342  -10.5808   -4.1857 C.ar      1 <0>        -0.1046
     29 C22        11.4469  -10.8955   -3.6009 C.ar      1 <0>        -0.0501
     30 C23        11.6993  -10.5352   -2.2900 C.ar      1 <0>        -0.0957
     31 C24        10.7421   -9.8541   -1.5632 C.ar      1 <0>        -0.1108
     32 C25        12.4953  -11.6329   -4.3934 C.3       1 <0>        -0.1136
     33 C26        13.3939  -10.6248   -5.1125 C.3       1 <0>         0.0477
     34 C27        12.5306   -9.6761   -5.9464 C.3       1 <0>        -0.1168
     35 C28        14.3500  -11.3595   -6.0166 C.2       1 <0>         0.4824
     36 O3         13.9206  -12.0641   -6.9142 O.co2     1 <0>        -0.6837
     37 O4         15.5528  -11.2492   -5.8504 O.co2     1 <0>        -0.6657
     38 O5         14.1330   -9.8727   -4.1481 O.3       1 <0>        -0.2972
     39 C29        14.9580  -10.5694   -3.3229 C.ar      1 <0>         0.1687
     40 C30        15.1227  -11.9359   -3.4969 C.ar      1 <0>        -0.1602
     41 C31        15.9623  -12.6417   -2.6570 C.ar      1 <0>        -0.0972
     42 C32        16.6379  -11.9875   -1.6435 C.ar      1 <0>        -0.1748
     43 C33        16.4751  -10.6257   -1.4678 C.ar      1 <0>        -0.0972
     44 C34        15.6415   -9.9143   -2.3088 C.ar      1 <0>        -0.1730
     45 H1         -0.0589    0.6562    2.0232 H         1 <0>         0.0554
     46 H2         -1.7743    0.5011    2.4721 H         1 <0>         0.0557
     47 H3         -0.5189    0.4811    3.7337 H         1 <0>         0.0549
     48 H4         -1.3556   -1.8075    3.2744 H         1 <0>         0.0637
     49 H5         -0.8956   -1.6324    1.5638 H         1 <0>         0.0639
     50 H6          1.4700   -1.3087    2.2331 H         1 <0>         0.0761
     51 H7          1.0100   -1.4838    3.9437 H         1 <0>         0.0754
     52 H8          0.3213   -3.6329    4.8321 H         1 <0>         0.1291
     53 H9          0.4857   -6.0792    4.6375 H         1 <0>         0.1320
     54 H10         1.6134   -5.6564    0.5213 H         1 <0>         0.1349
     55 H11         1.4333   -3.2127    0.7346 H         1 <0>         0.1299
     56 H12         2.9732   -7.2480   -0.0950 H         1 <0>         0.0794
     57 H13         2.9995   -6.1732    1.3274 H         1 <0>         0.1141
     58 H14         5.2504   -7.2386    0.7315 H         1 <0>         0.1042
     59 H15         4.7030   -7.5166    2.4055 H         1 <0>         0.0765
     60 H16         3.6336  -11.0508    1.4405 H         1 <0>         0.1118
     61 H17         3.6599   -9.9760    2.8628 H         1 <0>         0.0682
     62 H18         1.3886   -9.9859    2.0437 H         1 <0>         0.1050
     63 H19         1.9322   -9.7117    0.3679 H         1 <0>         0.0750
     64 H20         6.6715   -7.9378    0.1349 H         1 <0>         0.1445
     65 H21         6.8680  -13.2966   -1.7890 H         1 <0>         0.4167
     66 H22         5.4500  -13.4077   -0.8948 H         1 <0>         0.4132
     67 H23         8.3243   -9.6596   -3.9185 H         1 <0>         0.1203
     68 H24        10.0392  -10.8639   -5.2095 H         1 <0>         0.1283
     69 H25        12.6471  -10.7828   -1.8353 H         1 <0>         0.1260
     70 H26        10.9414   -9.5690   -0.5407 H         1 <0>         0.1239
     71 H27        13.0986  -12.2417   -3.7199 H         1 <0>         0.0882
     72 H28        12.0102  -12.2758   -5.1279 H         1 <0>         0.0929
     73 H29        11.9059   -9.0766   -5.2842 H         1 <0>         0.0558
     74 H30        13.1739   -9.0194   -6.5320 H         1 <0>         0.0561
     75 H31        11.8968  -10.2563   -6.6171 H         1 <0>         0.0760
     76 H32        14.5946  -12.4475   -4.2880 H         1 <0>         0.1371
     77 H33        16.0908  -13.7055   -2.7921 H         1 <0>         0.1128
     78 H34        17.2935  -12.5411   -0.9877 H         1 <0>         0.1104
     79 H35        17.0037  -10.1170   -0.6751 H         1 <0>         0.1157
     80 H36        15.5181   -8.8499   -2.1739 H         1 <0>         0.1183
@<TRIPOS>BOND
     1    1    2 1
     2    1   45 1
     3    1   46 1
     4    1   47 1
     5    2    3 1
     6    2   48 1
     7    2   49 1
     8    3    4 1
     9    3   50 1
    10    3   51 1
    11    4    9 ar
    12    4    5 ar
    13    5    6 ar
    14    5   52 1
    15    6    7 ar
    16    6   53 1
    17    7    8 ar
    18    7   10 1
    19    8    9 ar
    20    8   54 1
    21    9   55 1
    22   10   11 2
    23   10   12 am
    24   12   17 1
    25   12   13 1
    26   13   14 1
    27   13   56 1
    28   13   57 1
    29   14   15 1
    30   14   58 1
    31   14   59 1
    32   15   16 1
    33   15   18 1
    34   16   17 1
    35   16   60 1
    36   16   61 1
    37   17   62 1
    38   17   63 1
    39   18   23 ar
    40   18   19 ar
    41   19   20 ar
    42   19   64 1
    43   20   21 ar
    44   20   25 1
    45   21   22 ar
    46   22   23 ar
    47   22   24 1
    48   24   65 1
    49   24   66 1
    50   25   26 1
    51   26   31 ar
    52   26   27 ar
    53   27   28 ar
    54   27   67 1
    55   28   29 ar
    56   28   68 1
    57   29   30 ar
    58   29   32 1
    59   30   31 ar
    60   30   69 1
    61   31   70 1
    62   32   33 1
    63   32   71 1
    64   32   72 1
    65   33   34 1
    66   33   35 1
    67   33   38 1
    68   34   73 1
    69   34   74 1
    70   34   75 1
    71   35   36 2
    72   35   37 1
    73   38   39 1
    74   39   44 ar
    75   39   40 ar
    76   40   41 ar
    77   40   76 1
    78   41   42 ar
    79   41   77 1
    80   42   43 ar
    81   42   78 1
    82   43   44 ar
    83   43   79 1
    84   44   80 1
@<TRIPOS>MOLECULE
CHEMBL538945__1
   80    84     0     0     0
SMALL
USER_CHARGES

@<TRIPOS>ATOM
      1 C1         -1.4507   -1.1304    3.0942 C.3       1 <0>        -0.1540
      2 C2         -1.2077   -2.6348    2.9578 C.3       1 <0>        -0.1192
      3 C3          0.2551   -2.9464    3.2801 C.3       1 <0>        -0.0866
      4 C4          0.4945   -4.4282    3.1459 C.ar      1 <0>        -0.0560
      5 C5          0.3117   -5.2572    4.2384 C.ar      1 <0>        -0.1234
      6 C6          0.5291   -6.6146    4.1222 C.ar      1 <0>        -0.0593
      7 C7          0.9343   -7.1511    2.8991 C.ar      1 <0>        -0.1374
      8 C8          1.1169   -6.3092    1.8009 C.ar      1 <0>        -0.0923
      9 C9          0.8906   -4.9544    1.9291 C.ar      1 <0>        -0.1235
     10 C10         1.1696   -8.6048    2.7675 C.2       1 <0>         0.5631
     11 O1          0.4935   -9.3899    3.4031 O.2       1 <0>        -0.5343
     12 N1          2.1337   -9.0594    1.9427 N.am      1 <0>        -0.6068
     13 C11         3.0420   -8.1230    1.2660 C.3       1 <0>         0.0745
     14 C12         4.4870   -8.5152    1.5985 C.3       1 <0>         0.1070
     15 N2          4.6491   -9.9563    1.3602 N.pl3     1 <0>        -0.5981
     16 C13         3.7408  -10.8927    2.0368 C.3       1 <0>         0.1130
     17 C14         2.2994  -10.5008    1.7087 C.3       1 <0>         0.0977
     18 C15         5.6406  -10.4238    0.5120 C.ar      1 <0>         0.4985
     19 C16         6.6311   -9.5642    0.0425 C.ar      1 <0>        -0.3638
     20 C17         7.6048  -10.0772   -0.8051 C.ar      1 <0>         0.4287
     21 N3          7.5607  -11.3637   -1.1391 N.ar      1 <0>        -0.6353
     22 C18         6.6044  -12.1533   -0.6743 C.ar      1 <0>         0.6350
     23 N4          5.6624  -11.7010    0.1397 N.ar      1 <0>        -0.6410
     24 N5          6.5920  -13.4867   -1.0445 N.pl3     1 <0>        -0.8189
     25 O2          8.5871   -9.2766   -1.2861 O.3       1 <0>        -0.2381
     26 C19         9.5715   -9.8495   -2.0275 C.ar      1 <0>         0.0759
     27 C20         9.3253  -10.2204   -3.3416 C.ar      1 <0>        -0.1050
     28 C21        10.3277  -10.8022   -4.0932 C.ar      1 <0>        -0.0800
     29 C22        11.5756  -11.0150   -3.5370 C.ar      1 <0>        -0.0579
     30 C23        11.8234  -10.6468   -2.2275 C.ar      1 <0>        -0.0915
     31 C24        10.8261  -10.0594   -1.4734 C.ar      1 <0>        -0.1204
     32 C25        12.6673  -11.6499   -4.3593 C.3       1 <0>        -0.0492
     33 C26        13.4587  -10.5598   -5.0849 C.3       1 <0>         0.0384
     34 C27        14.4854  -11.2087   -6.0154 C.3       1 <0>        -0.1767
     35 C28        12.5149   -9.7082   -5.8942 C.2       1 <0>         0.4895
     36 O3         12.4285   -8.5128   -5.6706 O.co2     1 <0>        -0.6634
     37 O4         11.8377  -10.2146   -6.7725 O.co2     1 <0>        -0.6872
     38 O5         14.1339   -9.7433   -4.1261 O.3       1 <0>        -0.2986
     39 C29        14.9003   -8.7302   -4.6090 C.ar      1 <0>         0.1676
     40 C30        14.9004   -8.4455   -5.9668 C.ar      1 <0>        -0.1569
     41 C31        15.6799   -7.4149   -6.4552 C.ar      1 <0>        -0.0994
     42 C32        16.4601   -6.6677   -5.5921 C.ar      1 <0>        -0.1749
     43 C33        16.4621   -6.9498   -4.2386 C.ar      1 <0>        -0.0988
     44 C34        15.6796   -7.9754   -3.7444 C.ar      1 <0>        -0.1721
     45 H1         -0.8036   -0.5935    2.4006 H         1 <0>         0.0555
     46 H2         -2.4929   -0.9084    2.8646 H         1 <0>         0.0555
     47 H3         -1.2289   -0.8175    4.1145 H         1 <0>         0.0548
     48 H4         -1.8549   -3.1717    3.6514 H         1 <0>         0.0635
     49 H5         -1.4296   -2.9477    1.9376 H         1 <0>         0.0641
     50 H6          0.9023   -2.4095    2.5866 H         1 <0>         0.0762
     51 H7          0.4770   -2.6335    4.3004 H         1 <0>         0.0752
     52 H8         -0.0016   -4.8407    5.1844 H         1 <0>         0.1289
     53 H9          0.3864   -7.2605    4.9759 H         1 <0>         0.1319
     54 H10         1.4304   -6.7182    0.8517 H         1 <0>         0.1360
     55 H11         1.0273   -4.3025    1.0790 H         1 <0>         0.1301
     56 H12         2.8870   -8.1771    0.1885 H         1 <0>         0.0800
     57 H13         2.8486   -7.1088    1.6154 H         1 <0>         0.1147
     58 H14         5.1732   -7.9592    0.9596 H         1 <0>         0.1046
     59 H15         4.6952   -8.2917    2.6448 H         1 <0>         0.0759
     60 H16         3.9342  -11.9069    1.6874 H         1 <0>         0.1115
     61 H17         3.8959  -10.8385    3.1144 H         1 <0>         0.0673
     62 H18         1.6157  -11.0566    2.3504 H         1 <0>         0.1046
     63 H19         2.0903  -10.7282    0.6634 H         1 <0>         0.0751
     64 H20         6.6417   -8.5233    0.3304 H         1 <0>         0.1444
     65 H21         7.2780  -13.8319   -1.6370 H         1 <0>         0.4163
     66 H22         5.8974  -14.0761   -0.7113 H         1 <0>         0.4123
     67 H23         8.3507  -10.0547   -3.7764 H         1 <0>         0.1179
     68 H24        10.1365  -11.0913   -5.1161 H         1 <0>         0.1347
     69 H25        12.7987  -10.8147   -1.7952 H         1 <0>         0.1251
     70 H26        11.0215   -9.7679   -0.4520 H         1 <0>         0.1210
     71 H27        13.3357  -12.2099   -3.7054 H         1 <0>         0.0700
     72 H28        12.2247  -12.3256   -5.0911 H         1 <0>         0.0928
     73 H29        13.9676  -11.7318   -6.8194 H         1 <0>         0.0752
     74 H30        15.1298  -10.4384   -6.4390 H         1 <0>         0.0703
     75 H31        15.0901  -11.9183   -5.4507 H         1 <0>         0.0513
     76 H32        14.2917   -9.0292   -6.6415 H         1 <0>         0.1387
     77 H33        15.6803   -7.1928   -7.5121 H         1 <0>         0.1123
     78 H34        17.0691   -5.8627   -5.9760 H         1 <0>         0.1101
     79 H35        17.0726   -6.3650   -3.5665 H         1 <0>         0.1155
     80 H36        15.6781   -8.1925   -2.6864 H         1 <0>         0.1178
@<TRIPOS>BOND
     1    1    2 1
     2    1   45 1
     3    1   46 1
     4    1   47 1
     5    2    3 1
     6    2   48 1
     7    2   49 1
     8    3    4 1
     9    3   50 1
    10    3   51 1
    11    4    9 ar
    12    4    5 ar
    13    5    6 ar
    14    5   52 1
    15    6    7 ar
    16    6   53 1
    17    7    8 ar
    18    7   10 1
    19    8    9 ar
    20    8   54 1
    21    9   55 1
    22   10   11 2
    23   10   12 am
    24   12   17 1
    25   12   13 1
    26   13   14 1
    27   13   56 1
    28   13   57 1
    29   14   15 1
    30   14   58 1
    31   14   59 1
    32   15   16 1
    33   15   18 1
    34   16   17 1
    35   16   60 1
    36   16   61 1
    37   17   62 1
    38   17   63 1
    39   18   23 ar
    40   18   19 ar
    41   19   20 ar
    42   19   64 1
    43   20   21 ar
    44   20   25 1
    45   21   22 ar
    46   22   23 ar
    47   22   24 1
    48   24   65 1
    49   24   66 1
    50   25   26 1
    51   26   31 ar
    52   26   27 ar
    53   27   28 ar
    54   27   67 1
    55   28   29 ar
    56   28   68 1
    57   29   30 ar
    58   29   32 1
    59   30   31 ar
    60   30   69 1
    61   31   70 1
    62   32   33 1
    63   32   71 1
    64   32   72 1
    65   33   34 1
    66   33   35 1
    67   33   38 1
    68   34   73 1
    69   34   74 1
    70   34   75 1
    71   35   36 2
    72   35   37 1
    73   38   39 1
    74   39   44 ar
    75   39   40 ar
    76   40   41 ar
    77   40   76 1
    78   41   42 ar
    79   41   77 1
    80   42   43 ar
    81   42   78 1
    82   43   44 ar
    83   43   79 1
    84   44   80 1
@<TRIPOS>MOLECULE
CHEMBL258871
   47    49     0     0     0
SMALL
USER_CHARGES

@<TRIPOS>ATOM
      1 C1         -0.8898    1.8664    0.8072 C.3       1 <0>        -0.1471
      2 C2         -0.5413    0.3891    0.6152 C.3       1 <0>        -0.0957
      3 C3         -1.8215   -0.4065    0.3500 C.3       1 <0>        -0.1282
      4 C4         -1.4651   -1.8791    0.1239 C.3       1 <0>         0.1069
      5 N1         -0.6839   -2.3583    1.2722 N.am      1 <0>        -0.5877
      6 C5          0.5178   -1.6123    1.6698 C.3       1 <0>         0.0684
      7 C6          0.1393   -0.1427    1.8786 C.3       1 <0>        -0.1321
      8 C7         -1.0626   -3.4610    1.9484 C.2       1 <0>         0.5722
      9 O1         -2.1291   -3.9886    1.7016 O.2       1 <0>        -0.5308
     10 C8         -0.1786   -4.0299    2.9925 C.ar      1 <0>         0.0877
     11 C9         -0.6527   -5.0443    3.8214 C.ar      1 <0>        -0.0980
     12 C10         0.1858   -5.5664    4.7934 C.ar      1 <0>        -0.0705
     13 C11         1.4699   -5.0557    4.9028 C.ar      1 <0>        -0.1286
     14 C12         1.8747   -4.0462    4.0443 C.ar      1 <0>         0.1146
     15 N2          1.0600   -3.5726    3.1268 N.ar      1 <0>        -0.4327
     16 C13         3.2697   -3.4878    4.1592 C.3       1 <0>        -0.5582
     17 S1          4.3901   -4.4351    3.0925 S.o2      1 <0>         2.4852
     18 O2          4.5398   -5.7571    3.5915 O.2       1 <0>        -0.9051
     19 O3          4.0734   -4.2080    1.7260 O.2       1 <0>        -0.8955
     20 C14         5.9698   -3.6878    3.3181 C.ar      1 <0>        -0.6628
     21 C15         6.3616   -2.6392    2.5054 C.ar      1 <0>         0.0572
     22 C16         7.6021   -2.0529    2.6829 C.ar      1 <0>        -0.1267
     23 C17         8.4501   -2.5150    3.6718 C.ar      1 <0>        -0.0373
     24 C18         8.0592   -3.5627    4.4842 C.ar      1 <0>        -0.1267
     25 C19         6.8164   -4.1458    4.3116 C.ar      1 <0>         0.0566
     26 Cl1         6.3224   -5.4566    5.3370 Cl        1 <0>        -0.0113
     27 Cl2         5.2971   -2.0594    1.2626 Cl        1 <0>        -0.0072
     28 H1          0.0220    2.4334    0.9950 H         1 <0>         0.0552
     29 H2         -1.3745    2.2453   -0.0925 H         1 <0>         0.0554
     30 H3         -1.5652    1.9730    1.6561 H         1 <0>         0.0536
     31 H4          0.1345    0.2827   -0.2335 H         1 <0>         0.0725
     32 H5         -2.4874   -0.3210    1.2086 H         1 <0>         0.0669
     33 H6         -2.3178   -0.0120   -0.5367 H         1 <0>         0.0765
     34 H7         -2.3789   -2.4664    0.0330 H         1 <0>         0.0942
     35 H8         -0.8737   -1.9764   -0.7866 H         1 <0>         0.0716
     36 H9          0.9125   -2.0235    2.5990 H         1 <0>         0.1449
     37 H10         1.2710   -1.6878    0.8855 H         1 <0>         0.0698
     38 H11         1.0385    0.4396    2.0799 H         1 <0>         0.0746
     39 H12        -0.5451   -0.0597    2.7229 H         1 <0>         0.0632
     40 H13        -1.6596   -5.4182    3.7083 H         1 <0>         0.1574
     41 H14        -0.1535   -6.3531    5.4510 H         1 <0>         0.1549
     42 H15         2.1480   -5.4405    5.6501 H         1 <0>         0.1522
     43 H16         3.2695   -2.4429    3.8490 H         1 <0>         0.1571
     44 H17         3.6057   -3.5595    5.1937 H         1 <0>         0.1547
     45 H18         7.9081   -1.2342    2.0485 H         1 <0>         0.1524
     46 H19         9.4186   -2.0574    3.8096 H         1 <0>         0.1535
     47 H20         8.7223   -3.9236    5.2564 H         1 <0>         0.1523
@<TRIPOS>BOND
     1    1    2 1
     2    1   28 1
     3    1   29 1
     4    1   30 1
     5    2    7 1
     6    2    3 1
     7    2   31 1
     8    3    4 1
     9    3   32 1
    10    3   33 1
    11    4    5 1
    12    4   34 1
    13    4   35 1
    14    5    6 1
    15    5    8 am
    16    6    7 1
    17    6   36 1
    18    6   37 1
    19    7   38 1
    20    7   39 1
    21    8    9 2
    22    8   10 1
    23   10   15 ar
    24   10   11 ar
    25   11   12 ar
    26   11   40 1
    27   12   13 ar
    28   12   41 1
    29   13   14 ar
    30   13   42 1
    31   14   15 ar
    32   14   16 1
    33   16   17 1
    34   16   43 1
    35   16   44 1
    36   17   18 2
    37   17   19 2
    38   17   20 1
    39   20   25 ar
    40   20   21 ar
    41   21   22 ar
    42   21   27 1
    43   22   23 ar
    44   22   45 1
    45   23   24 ar
    46   23   46 1
    47   24   25 ar
    48   24   47 1
    49   25   26 1
@<TRIPOS>MOLECULE
CHEMBL562769
   47    49     0     0     0
SMALL
USER_CHARGES

@<TRIPOS>ATOM
      1 C1         -0.0167    1.3777    0.0096 C.ar      1 <0>        -0.1248
      2 C2          1.1710    2.0855    0.0021 C.ar      1 <0>        -0.0144
      3 C3          2.3777    1.4116   -0.0130 C.ar      1 <0>        -0.6682
      4 C4          2.3977    0.0294   -0.0210 C.ar      1 <0>        -0.0146
      5 C5          1.2098   -0.6793   -0.0135 C.ar      1 <0>        -0.0568
      6 C6          0.0021   -0.0041    0.0020 C.ar      1 <0>        -0.0535
      7 Cl1         1.2341   -2.4151   -0.0242 Cl        1 <0>        -0.0535
      8 S1          3.8908    2.3145   -0.0226 S.o2      1 <0>         2.6957
      9 O1          4.8723    1.4562   -0.5874 O.2       1 <0>        -0.9473
     10 O2          3.5962    3.5950   -0.5638 O.2       1 <0>        -0.9490
     11 N1          4.3263    2.5570    1.5566 N.pl3     1 <0>        -1.1115
     12 C7          4.6698    1.4135    2.4055 C.3       1 <0>         0.1526
     13 C8          5.3706    1.9021    3.6470 C.ar      1 <0>        -0.0773
     14 C9          6.7479    2.0336    3.6537 C.ar      1 <0>        -0.1049
     15 C10         7.3957    2.4804    4.7868 C.ar      1 <0>        -0.0591
     16 C11         6.6585    2.8000    5.9281 C.ar      1 <0>        -0.1265
     17 C12         5.2693    2.6651    5.9146 C.ar      1 <0>        -0.0882
     18 C13         4.6334    2.2227    4.7731 C.ar      1 <0>        -0.1085
     19 C14         7.3461    3.2789    7.1462 C.2       1 <0>         0.5569
     20 O3          8.5561    3.3950    7.1552 O.2       1 <0>        -0.5315
     21 N2          6.6314    3.5867    8.2466 N.am      1 <0>        -0.7206
     22 C15         7.3128    4.0612    9.4536 C.3       1 <0>         0.1389
     23 C16         7.7345    2.8625   10.3282 C.3       1 <0>        -0.1354
     24 C17         7.5174    3.3567   11.7800 C.3       1 <0>        -0.1254
     25 C18         6.2202    4.1952   11.6653 C.3       1 <0>        -0.1249
     26 C19         6.3500    4.9086   10.3037 C.3       1 <0>        -0.1320
     27 H1         -0.9592    1.9048    0.0259 H         1 <0>         0.1453
     28 H2          1.1559    3.1654    0.0076 H         1 <0>         0.1485
     29 H3          3.3407   -0.4970   -0.0336 H         1 <0>         0.1519
     30 H4         -0.9257   -0.5568    0.0079 H         1 <0>         0.1439
     31 H5          4.3540    3.4561    1.9195 H         1 <0>         0.4231
     32 H6          3.7598    0.8835    2.6868 H         1 <0>         0.0790
     33 H7          5.3284    0.7393    1.8580 H         1 <0>         0.0951
     34 H8          7.3172    1.7856    2.7701 H         1 <0>         0.1365
     35 H9          8.4709    2.5822    4.7909 H         1 <0>         0.1404
     36 H10         4.6932    2.9107    6.7944 H         1 <0>         0.1277
     37 H11         3.5582    2.1220    4.7599 H         1 <0>         0.1326
     38 H12         5.6659    3.4940    8.2394 H         1 <0>         0.3989
     39 H13         8.1877    4.6512    9.1805 H         1 <0>         0.0938
     40 H14         7.1033    1.9984   10.1210 H         1 <0>         0.0700
     41 H15         8.7836    2.6186   10.1611 H         1 <0>         0.0722
     42 H16         7.3745    2.5147   12.4574 H         1 <0>         0.0700
     43 H17         8.3517    3.9782   12.1053 H         1 <0>         0.0706
     44 H18         5.3445    3.5463   11.6741 H         1 <0>         0.0672
     45 H19         6.1643    4.9239   12.4740 H         1 <0>         0.0698
     46 H20         6.7581    5.9095   10.4440 H         1 <0>         0.0768
     47 H21         5.3758    4.9668    9.8183 H         1 <0>         0.0706
@<TRIPOS>BOND
     1    1    6 ar
     2    1    2 ar
     3    1   27 1
     4    2    3 ar
     5    2   28 1
     6    3    4 ar
     7    3    8 1
     8    4    5 ar
     9    4   29 1
    10    5    6 ar
    11    5    7 1
    12    6   30 1
    13    8    9 2
    14    8   10 2
    15    8   11 1
    16   11   12 1
    17   11   31 1
    18   12   13 1
    19   12   32 1
    20   12   33 1
    21   13   18 ar
    22   13   14 ar
    23   14   15 ar
    24   14   34 1
    25   15   16 ar
    26   15   35 1
    27   16   17 ar
    28   16   19 1
    29   17   18 ar
    30   17   36 1
    31   18   37 1
    32   19   20 2
    33   19   21 am
    34   21   22 1
    35   21   38 1
    36   22   26 1
    37   22   23 1
    38   22   39 1
    39   23   24 1
    40   23   40 1
    41   23   41 1
    42   24   25 1
    43   24   42 1
    44   24   43 1
    45   25   26 1
    46   25   44 1
    47   25   45 1
    48   26   46 1
    49   26   47 1
@<TRIPOS>MOLECULE
CHEMBL374283
   47    49     0     0     0
SMALL
USER_CHARGES

@<TRIPOS>ATOM
      1 C1         -0.8442    0.2612   -0.3487 C.3       1 <0>        -0.1759
      2 C2         -0.4175   -1.1568    0.0362 C.3       1 <0>         0.1133
      3 H1          0.1211   -1.6142   -0.7937 H         1 <0>         0.1149
      4 C3         -1.6569   -1.9938    0.3679 C.3       1 <0>        -0.1440
      5 C4         -2.3329   -1.4243    1.6172 C.3       1 <0>         0.1864
      6 C5         -1.3670   -1.5011    2.8018 C.3       1 <0>        -0.1477
      7 C6         -0.1244   -0.6584    2.4977 C.3       1 <0>         0.1517
      8 H2         -0.4045    0.3924    2.4243 H         1 <0>         0.0751
      9 N1          0.4523   -1.1053    1.2192 N.am      1 <0>        -0.5992
     10 C7          1.7491   -1.4627    1.1342 C.2       1 <0>         0.5731
     11 O1          2.4312   -1.5195    2.1391 O.2       1 <0>        -0.5221
     12 C8          2.3408   -1.7850   -0.1782 C.ar      1 <0>        -0.1763
     13 C9          1.8352   -1.1923   -1.3389 C.ar      1 <0>        -0.0412
     14 C10         2.3896   -1.4951   -2.5628 C.ar      1 <0>        -0.1205
     15 C11         3.4528   -2.3908   -2.6447 C.ar      1 <0>         0.2676
     16 C12         3.9582   -2.9832   -1.4901 C.ar      1 <0>        -0.1188
     17 C13         3.4118   -2.6794   -0.2628 C.ar      1 <0>         0.0077
     18 Cl1         5.2829   -4.1001   -1.5970 Cl        1 <0>        -0.0500
     19 N2          4.0110   -2.6949   -3.8828 N.pl3     1 <0>        -0.8512
     20 Cl2         1.7621   -0.7598   -4.0048 Cl        1 <0>        -0.0525
     21 C14         0.9036   -0.8382    3.6166 C.3       1 <0>        -0.1380
     22 N3         -3.5372   -2.2023    1.9181 N.am      1 <0>        -0.6318
     23 C15        -4.9064   -1.6682    1.9677 C.3       1 <0>         0.0909
     24 C16        -5.7689   -2.8953    2.3214 C.3       1 <0>         0.0919
     25 N4         -4.7940   -3.9906    2.4335 N.am      1 <0>        -0.7445
     26 C17        -3.5667   -3.5144    2.1861 C.2       1 <0>         0.6986
     27 O2         -2.5693   -4.2094    2.2068 O.2       1 <0>        -0.5790
     28 H3          0.0392    0.8565   -0.5794 H         1 <0>         0.0665
     29 H4         -1.4934    0.2205   -1.2233 H         1 <0>         0.0761
     30 H5         -1.3825    0.7169    0.4824 H         1 <0>         0.0685
     31 H6         -2.3534   -1.9603   -0.4699 H         1 <0>         0.0786
     32 H7         -1.3598   -3.0260    0.5535 H         1 <0>         0.0897
     33 H8         -2.6075   -0.3845    1.4394 H         1 <0>         0.0934
     34 H9         -1.8572   -1.1169    3.6963 H         1 <0>         0.0766
     35 H10        -1.0726   -2.5379    2.9645 H         1 <0>         0.0898
     36 H11         1.0105   -0.4978   -1.2760 H         1 <0>         0.1612
     37 H12         3.8072   -3.1354    0.6328 H         1 <0>         0.1509
     38 H13         3.6595   -2.2831   -4.6876 H         1 <0>         0.4082
     39 H14         4.7516   -3.3187   -3.9409 H         1 <0>         0.4087
     40 H15         1.2270   -1.8785    3.6492 H         1 <0>         0.0744
     41 H16         1.7636   -0.1961    3.4265 H         1 <0>         0.0739
     42 H17         0.4524   -0.5679    4.5714 H         1 <0>         0.0454
     43 H18        -4.9915   -0.9049    2.7412 H         1 <0>         0.0823
     44 H19        -5.1950   -1.2645    0.9972 H         1 <0>         0.0821
     45 H20        -6.2822   -2.7414    3.2705 H         1 <0>         0.0829
     46 H21        -6.4857   -3.1010    1.5265 H         1 <0>         0.0826
     47 H22        -5.0065   -4.9123    2.6483 H         1 <0>         0.4296
@<TRIPOS>BOND
     1    1    2 1
     2    1   28 1
     3    1   29 1
     4    1   30 1
     5    2    3 1
     6    2    9 1
     7    2    4 1
     8    4    5 1
     9    4   31 1
    10    4   32 1
    11    5    6 1
    12    5   22 1
    13    5   33 1
    14    6    7 1
    15    6   34 1
    16    6   35 1
    17    7    8 1
    18    7    9 1
    19    7   21 1
    20    9   10 am
    21   10   11 2
    22   10   12 1
    23   12   17 ar
    24   12   13 ar
    25   13   14 ar
    26   13   36 1
    27   14   15 ar
    28   14   20 1
    29   15   16 ar
    30   15   19 1
    31   16   17 ar
    32   16   18 1
    33   17   37 1
    34   19   38 1
    35   19   39 1
    36   21   40 1
    37   21   41 1
    38   21   42 1
    39   22   26 am
    40   22   23 1
    41   23   24 1
    42   23   43 1
    43   23   44 1
    44   24   25 1
    45   24   45 1
    46   24   46 1
    47   25   26 am
    48   25   47 1
    49   26   27 2
@<TRIPOS>MOLECULE
CHEMBL560449
   72    76     0     0     0
SMALL
USER_CHARGES

@<TRIPOS>ATOM
      1 C1         -3.2156   -5.7378   -0.0541 C.3       1 <0>        -0.1896
      2 C2         -2.5885   -5.1966   -1.3404 C.3       1 <0>        -0.0107
      3 N1         -1.1903   -4.8256   -1.0851 N.4       1 <0>        -0.3848
      4 C3         -0.4213   -6.0286   -0.7423 C.3       1 <0>        -0.0244
      5 C4          1.0088   -5.6290   -0.3645 C.3       1 <0>         0.0880
      6 N2          1.5784   -4.8378   -1.4662 N.am      1 <0>        -0.6370
      7 C5          0.7944   -3.7060   -1.9843 C.3       1 <0>         0.0845
      8 C6         -0.6257   -4.1964   -2.2857 C.3       1 <0>        -0.0214
      9 C7          2.7845   -5.1409   -1.9857 C.2       1 <0>         0.5227
     10 O1          3.4166   -6.0775   -1.5451 O.2       1 <0>        -0.5051
     11 C8          3.3478   -4.3159   -3.1140 C.3       1 <0>        -0.1416
     12 C9          4.7760   -4.7736   -3.4169 C.3       1 <0>        -0.0225
     13 C10         5.3338   -3.9981   -4.6281 C.3       1 <0>        -0.1090
     14 C11         6.1807   -5.0457   -5.3926 C.3       1 <0>        -0.1300
     15 C12         5.3414   -6.3388   -5.2428 C.3       1 <0>        -0.1299
     16 C13         4.7808   -6.2619   -3.8077 C.3       1 <0>        -0.1021
     17 C14         5.6680   -4.5499   -2.1941 C.3       1 <0>        -0.1415
     18 C15         5.6856   -3.0837   -1.8466 C.2       1 <0>         0.5126
     19 O2          5.1326   -2.2824   -2.5698 O.2       1 <0>        -0.5396
     20 N3          6.3158   -2.6628   -0.7321 N.am      1 <0>        -0.7237
     21 C16         6.3328   -1.2373   -0.3942 C.3       1 <0>         0.1598
     22 C17         7.4873   -0.5529   -1.1288 C.3       1 <0>        -0.0936
     23 C18         8.8113   -1.1930   -0.7066 C.3       1 <0>        -0.1074
     24 C19         8.9986   -1.0289    0.8030 C.3       1 <0>        -0.0878
     25 C20         9.0165    0.4598    1.1558 C.3       1 <0>        -0.1098
     26 C21         7.6925    1.0999    0.7336 C.3       1 <0>        -0.0891
     27 C22         7.5052    0.9357   -0.7760 C.3       1 <0>        -0.1069
     28 C23         6.5380    0.4155    1.4682 C.3       1 <0>        -0.1050
     29 C24         6.5201   -1.0732    1.1154 C.3       1 <0>        -0.0912
     30 C25         7.8441   -1.7133    1.5376 C.3       1 <0>        -0.1097
     31 H1         -2.6618   -6.6156    0.2788 H         1 <0>         0.0805
     32 H2         -3.1787   -4.9703    0.7190 H         1 <0>         0.0813
     33 H3         -4.2531   -6.0131   -0.2435 H         1 <0>         0.1079
     34 H4         -2.6254   -5.9641   -2.1135 H         1 <0>         0.1292
     35 H5         -3.1424   -4.3188   -1.6733 H         1 <0>         0.1326
     36 H6         -0.8926   -6.5331    0.1011 H         1 <0>         0.1443
     37 H7         -0.3963   -6.7007   -1.6002 H         1 <0>         0.1332
     38 H8          0.9934   -5.0306    0.5464 H         1 <0>         0.0922
     39 H9          1.6101   -6.5246   -0.2078 H         1 <0>         0.1356
     40 H10         0.7573   -2.9134   -1.2370 H         1 <0>         0.0969
     41 H11         1.2538   -3.3302   -2.8985 H         1 <0>         0.1327
     42 H12        -0.5945   -4.9239   -3.0968 H         1 <0>         0.1341
     43 H13        -1.2475   -3.3507   -2.5795 H         1 <0>         0.1450
     44 H14         2.7291   -4.4445   -4.0021 H         1 <0>         0.0974
     45 H15         3.3565   -3.2646   -2.8263 H         1 <0>         0.1195
     46 H16         4.5202   -3.6340   -5.2555 H         1 <0>         0.0661
     47 H17         5.9602   -3.1704   -4.2956 H         1 <0>         0.0811
     48 H18         6.2810   -4.7697   -6.4423 H         1 <0>         0.0681
     49 H19         7.1596   -5.1645   -4.9281 H         1 <0>         0.0660
     50 H20         4.5291   -6.3527   -5.9695 H         1 <0>         0.0629
     51 H21         5.9734   -7.2193   -5.3588 H         1 <0>         0.0663
     52 H22         5.4193   -6.8247   -3.1267 H         1 <0>         0.0707
     53 H23         3.7657   -6.6581   -3.7816 H         1 <0>         0.0594
     54 H24         5.2772   -5.1186   -1.3503 H         1 <0>         0.1043
     55 H25         6.6816   -4.8824   -2.4181 H         1 <0>         0.0981
     56 H26         6.7580   -3.3036   -0.1536 H         1 <0>         0.3994
     57 H27         5.3896   -0.7813   -0.6950 H         1 <0>         0.0849
     58 H28         7.3539   -0.6699   -2.2043 H         1 <0>         0.0740
     59 H29         8.7986   -2.2536   -0.9579 H         1 <0>         0.0595
     60 H30         9.6338   -0.7054   -1.2299 H         1 <0>         0.0645
     61 H31         9.9419   -1.4849    1.1038 H         1 <0>         0.0723
     62 H32         9.1499    0.5767    2.2313 H         1 <0>         0.0637
     63 H33         9.8390    0.9474    0.6325 H         1 <0>         0.0646
     64 H34         7.7052    2.1604    0.9849 H         1 <0>         0.0739
     65 H35         8.3277    1.4233   -1.2993 H         1 <0>         0.0674
     66 H36         6.5620    1.3918   -1.0768 H         1 <0>         0.0631
     67 H37         6.6714    0.5324    2.5436 H         1 <0>         0.0689
     68 H38         5.5948    0.8715    1.1674 H         1 <0>         0.0633
     69 H39         5.6977   -1.5608    1.6387 H         1 <0>         0.0714
     70 H40         7.8314   -2.7738    1.2862 H         1 <0>         0.0579
     71 H41         7.9776   -1.5963    2.6130 H         1 <0>         0.0686
     72 H42        -1.1516   -4.1741   -0.3156 H         1 <0>         0.4230
@<TRIPOS>BOND
     1    1    2 1
     2    1   31 1
     3    1   32 1
     4    1   33 1
     5    2    3 1
     6    2   34 1
     7    2   35 1
     8    3    8 1
     9    3    4 1
    10    3   72 1
    11    4    5 1
    12    4   36 1
    13    4   37 1
    14    5    6 1
    15    5   38 1
    16    5   39 1
    17    6    7 1
    18    6    9 am
    19    7    8 1
    20    7   40 1
    21    7   41 1
    22    8   42 1
    23    8   43 1
    24    9   10 2
    25    9   11 1
    26   11   12 1
    27   11   44 1
    28   11   45 1
    29   12   16 1
    30   12   13 1
    31   12   17 1
    32   13   14 1
    33   13   46 1
    34   13   47 1
    35   14   15 1
    36   14   48 1
    37   14   49 1
    38   15   16 1
    39   15   50 1
    40   15   51 1
    41   16   52 1
    42   16   53 1
    43   17   18 1
    44   17   54 1
    45   17   55 1
    46   18   19 2
    47   18   20 am
    48   20   21 1
    49   20   56 1
    50   21   29 1
    51   21   22 1
    52   21   57 1
    53   22   27 1
    54   22   23 1
    55   22   58 1
    56   23   24 1
    57   23   59 1
    58   23   60 1
    59   24   30 1
    60   24   25 1
    61   24   61 1
    62   25   26 1
    63   25   62 1
    64   25   63 1
    65   26   27 1
    66   26   28 1
    67   26   64 1
    68   27   65 1
    69   27   66 1
    70   28   29 1
    71   28   67 1
    72   28   68 1
    73   29   30 1
    74   29   69 1
    75   30   70 1
    76   30   71 1
@<TRIPOS>MOLECULE
CHEMBL560449__1
   71    75     0     0     0
SMALL
USER_CHARGES

@<TRIPOS>ATOM
      1 C1          2.0182   -5.4146   -2.9671 C.3       1 <0>        -0.1505
      2 C2          2.8355   -4.9359   -1.7656 C.3       1 <0>         0.0506
      3 N1          1.9399   -4.7082   -0.6236 N.3       1 <0>        -0.5385
      4 C3          1.3387   -5.9683   -0.1667 C.3       1 <0>         0.0384
      5 C4          0.2799   -5.6681    0.8996 C.3       1 <0>         0.1163
      6 N2          0.8993   -4.8551    1.9572 N.am      1 <0>        -0.6163
      7 C5          1.6393   -3.6468    1.5627 C.3       1 <0>         0.1120
      8 C6          2.6446   -4.0266    0.4703 C.3       1 <0>         0.0398
      9 C7          0.7913   -5.2078    3.2535 C.2       1 <0>         0.5159
     10 O1          0.1770   -6.2073    3.5609 O.2       1 <0>        -0.5377
     11 C8          1.4339   -4.3601    4.3211 C.3       1 <0>        -0.1395
     12 C9          1.0422   -4.8937    5.7005 C.3       1 <0>        -0.0206
     13 C10         1.7637   -4.0904    6.8022 C.3       1 <0>        -0.1091
     14 C11         2.1036   -5.1474    7.8822 C.3       1 <0>        -0.1281
     15 C12         2.4849   -6.3885    7.0376 C.3       1 <0>        -0.1294
     16 C13         1.5007   -6.3549    5.8501 C.3       1 <0>        -0.1011
     17 C14        -0.4732   -4.7981    5.8880 C.3       1 <0>        -0.1390
     18 C15        -0.9031   -3.3579    5.7784 C.2       1 <0>         0.5142
     19 O2         -0.0701   -2.4827    5.6739 O.2       1 <0>        -0.5363
     20 N3         -2.2133   -3.0425    5.7964 N.am      1 <0>        -0.7261
     21 C16        -2.6312   -1.6424    5.6899 C.3       1 <0>         0.1592
     22 C17        -2.6068   -0.9959    7.0764 C.3       1 <0>        -0.0936
     23 C18        -3.5646   -1.7448    8.0052 C.3       1 <0>        -0.1064
     24 C19        -4.9833   -1.6779    7.4363 C.3       1 <0>        -0.0869
     25 C20        -5.4197   -0.2157    7.3250 C.3       1 <0>        -0.1081
     26 C21        -4.4619    0.5332    6.3962 C.3       1 <0>        -0.0883
     27 C22        -3.0432    0.4663    6.9651 C.3       1 <0>        -0.1064
     28 C23        -4.4864   -0.1133    5.0097 C.3       1 <0>        -0.1050
     29 C24        -4.0499   -1.5755    5.1209 C.3       1 <0>        -0.0929
     30 C25        -5.0077   -2.3244    6.0498 C.3       1 <0>        -0.1093
     31 H1          1.2801   -4.6568   -3.2297 H         1 <0>         0.0644
     32 H2          2.6827   -5.5836   -3.8145 H         1 <0>         0.0607
     33 H3          1.5095   -6.3447   -2.7132 H         1 <0>         0.0548
     34 H4          3.5736   -5.6937   -1.5030 H         1 <0>         0.0333
     35 H5          3.3441   -4.0059   -2.0195 H         1 <0>         0.0766
     36 H6          0.8713   -6.4754   -1.0108 H         1 <0>         0.0906
     37 H7          2.1125   -6.6072    0.2588 H         1 <0>         0.0377
     38 H8         -0.5461   -5.1167    0.4503 H         1 <0>         0.0730
     39 H9         -0.0877   -6.6024    1.3239 H         1 <0>         0.0957
     40 H10         0.9440   -2.9011    1.1772 H         1 <0>         0.0777
     41 H11         2.1705   -3.2447    2.4254 H         1 <0>         0.0909
     42 H12         3.4002   -4.6925    0.8870 H         1 <0>         0.0389
     43 H13         3.1243   -3.1254    0.0882 H         1 <0>         0.0890
     44 H14         2.5178   -4.3976    4.2113 H         1 <0>         0.0908
     45 H15         1.0940   -3.3294    4.2202 H         1 <0>         0.1133
     46 H16         2.6751   -3.6388    6.4103 H         1 <0>         0.0655
     47 H17         1.1034   -3.3258    7.2113 H         1 <0>         0.0783
     48 H18         2.9468   -4.8205    8.4908 H         1 <0>         0.0641
     49 H19         1.2341   -5.3564    8.5053 H         1 <0>         0.0633
     50 H20         3.5127   -6.3081    6.6837 H         1 <0>         0.0618
     51 H21         2.3508   -7.3011    7.6185 H         1 <0>         0.0626
     52 H22         0.6437   -6.9958    6.0572 H         1 <0>         0.0684
     53 H23         2.0023   -6.6839    4.9400 H         1 <0>         0.0629
     54 H24        -0.9724   -5.3859    5.1176 H         1 <0>         0.1082
     55 H25        -0.7428   -5.1839    6.8711 H         1 <0>         0.0927
     56 H26        -2.8796   -3.7425    5.8800 H         1 <0>         0.3980
     57 H27        -1.9489   -1.1089    5.0282 H         1 <0>         0.0861
     58 H28        -1.5961   -1.0436    7.4817 H         1 <0>         0.0741
     59 H29        -3.2537   -2.7865    8.0845 H         1 <0>         0.0603
     60 H30        -3.5472   -1.2842    8.9930 H         1 <0>         0.0619
     61 H31        -5.6657   -2.2114    8.0980 H         1 <0>         0.0700
     62 H32        -6.4304   -0.1680    6.9197 H         1 <0>         0.0620
     63 H33        -5.4023    0.2449    8.3128 H         1 <0>         0.0623
     64 H34        -4.7729    1.5749    6.3169 H         1 <0>         0.0718
     65 H35        -3.0258    0.9268    7.9529 H         1 <0>         0.0649
     66 H36        -2.3609    0.9998    6.3034 H         1 <0>         0.0638
     67 H37        -5.4971   -0.0656    4.6043 H         1 <0>         0.0675
     68 H38        -3.8040    0.4202    4.3480 H         1 <0>         0.0647
     69 H39        -4.0674   -2.0361    4.1332 H         1 <0>         0.0745
     70 H40        -4.6968   -3.3661    6.1290 H         1 <0>         0.0590
     71 H41        -6.0185   -2.2767    5.6444 H         1 <0>         0.0670
@<TRIPOS>BOND
     1    1    2 1
     2    1   31 1
     3    1   32 1
     4    1   33 1
     5    2    3 1
     6    2   34 1
     7    2   35 1
     8    3    8 1
     9    3    4 1
    10    4    5 1
    11    4   36 1
    12    4   37 1
    13    5    6 1
    14    5   38 1
    15    5   39 1
    16    6    7 1
    17    6    9 am
    18    7    8 1
    19    7   40 1
    20    7   41 1
    21    8   42 1
    22    8   43 1
    23    9   10 2
    24    9   11 1
    25   11   12 1
    26   11   44 1
    27   11   45 1
    28   12   16 1
    29   12   13 1
    30   12   17 1
    31   13   14 1
    32   13   46 1
    33   13   47 1
    34   14   15 1
    35   14   48 1
    36   14   49 1
    37   15   16 1
    38   15   50 1
    39   15   51 1
    40   16   52 1
    41   16   53 1
    42   17   18 1
    43   17   54 1
    44   17   55 1
    45   18   19 2
    46   18   20 am
    47   20   21 1
    48   20   56 1
    49   21   29 1
    50   21   22 1
    51   21   57 1
    52   22   27 1
    53   22   23 1
    54   22   58 1
    55   23   24 1
    56   23   59 1
    57   23   60 1
    58   24   30 1
    59   24   25 1
    60   24   61 1
    61   25   26 1
    62   25   62 1
    63   25   63 1
    64   26   27 1
    65   26   28 1
    66   26   64 1
    67   27   65 1
    68   27   66 1
    69   28   29 1
    70   28   67 1
    71   28   68 1
    72   29   30 1
    73   29   69 1
    74   30   70 1
    75   30   71 1
@<TRIPOS>MOLECULE
CHEMBL521979
   52    55     0     0     0
SMALL
USER_CHARGES

@<TRIPOS>ATOM
      1 C1          0.1532    1.3294    0.4035 C.3       1 <0>        -0.1606
      2 C2          0.1799   -0.1867    0.6073 C.3       1 <0>         0.1272
      3 H1          0.7025   -0.6586   -0.2247 H         1 <0>         0.1094
      4 C3         -1.2557   -0.7213    0.6830 C.3       1 <0>         0.1381
      5 N1         -1.8569   -0.2750    1.9477 N.pl3     1 <0>        -0.6788
      6 C4         -1.1710   -0.5912    3.2084 C.3       1 <0>         0.1340
      7 C5          0.2646   -0.0567    3.1327 C.3       1 <0>         0.1010
      8 N2          0.8694   -0.5031    1.8660 N.pl3     1 <0>        -0.9878
      9 S1          2.2936   -1.3482    1.8575 S.o2      1 <0>         2.6882
     10 O1          2.4081   -1.9640    3.1330 O.2       1 <0>        -0.9455
     11 O2          2.3169   -2.0925    0.6473 O.2       1 <0>        -0.9470
     12 C6          3.5984   -0.1690    1.7486 C.ar      1 <0>        -0.6534
     13 C7          4.0622    0.2357    0.5102 C.ar      1 <0>        -0.0320
     14 C8          5.0858    1.1607    0.4207 C.ar      1 <0>        -0.1077
     15 C9          5.6481    1.6839    1.5689 C.ar      1 <0>        -0.0887
     16 C10         5.1844    1.2799    2.8134 C.ar      1 <0>         0.1456
     17 C11         4.1529    0.3543    2.9000 C.ar      1 <0>        -0.0214
     18 N3          5.7531    1.8090    3.9804 N.pl3     1 <0>        -0.3289
     19 C12         6.6842    2.7878    4.0390 C.2       1 <0>         0.0502
     20 C13         6.9683    3.0083    5.3435 C.2       1 <0>        -0.2553
     21 C14         6.1858    2.1362    6.1082 C.2       1 <0>         0.0615
     22 N4          5.4530    1.4214    5.2927 N.2       1 <0>        -0.2884
     23 C15        -3.0596    0.4379    1.9513 C.ar      1 <0>         0.2161
     24 C16        -3.0448    1.8268    1.9643 C.ar      1 <0>        -0.0989
     25 C17        -4.2340    2.5290    1.9674 C.ar      1 <0>        -0.1133
     26 C18        -5.4406    1.8494    1.9576 C.ar      1 <0>         0.0972
     27 C19        -5.4577    0.4651    1.9446 C.ar      1 <0>        -0.1021
     28 C20        -4.2706   -0.2413    1.9362 C.ar      1 <0>        -0.1660
     29 C21        -4.2899   -1.7480    1.9157 C.3       1 <0>         0.5173
     30 F1         -5.6096   -2.1991    2.0256 F         1 <0>        -0.1786
     31 F2         -3.7394   -2.2052    0.7136 F         1 <0>        -0.1723
     32 F3         -3.5385   -2.2386    2.9890 F         1 <0>        -0.1692
     33 F4         -6.6028    2.5383    1.9611 F         1 <0>        -0.1297
     34 H2          1.1727    1.6992    0.2939 H         1 <0>         0.0576
     35 H3         -0.4174    1.5652   -0.4948 H         1 <0>         0.0692
     36 H4         -0.3147    1.8038    1.2661 H         1 <0>         0.0652
     37 H5         -1.8352   -0.3331   -0.1546 H         1 <0>         0.0871
     38 H6         -1.2427   -1.8106    0.6484 H         1 <0>         0.0679
     39 H7         -1.6945   -0.1171    4.0386 H         1 <0>         0.0866
     40 H8         -1.1520   -1.6713    3.3536 H         1 <0>         0.0697
     41 H9          0.2516    1.0327    3.1673 H         1 <0>         0.0752
     42 H10         0.8441   -0.4449    3.9703 H         1 <0>         0.1017
     43 H11         3.6241   -0.1719   -0.3889 H         1 <0>         0.1468
     44 H12         5.4464    1.4744   -0.5478 H         1 <0>         0.1458
     45 H13         6.4480    2.4062    1.4984 H         1 <0>         0.1395
     46 H14         3.7873    0.0412    3.8668 H         1 <0>         0.1538
     47 H15         7.1228    3.3011    3.1959 H         1 <0>         0.1789
     48 H16         7.6745    3.7300    5.7267 H         1 <0>         0.1575
     49 H17         6.1833    2.0680    7.1860 H         1 <0>         0.1936
     50 H18        -2.1041    2.3572    1.9723 H         1 <0>         0.1454
     51 H19        -4.2230    3.6088    1.9778 H         1 <0>         0.1466
     52 H20        -6.3999   -0.0628    1.9370 H         1 <0>         0.1518
@<TRIPOS>BOND
     1    1    2 1
     2    1   34 1
     3    1   35 1
     4    1   36 1
     5    2    3 1
     6    2    8 1
     7    2    4 1
     8    4    5 1
     9    4   37 1
    10    4   38 1
    11    5    6 1
    12    5   23 1
    13    6    7 1
    14    6   39 1
    15    6   40 1
    16    7    8 1
    17    7   41 1
    18    7   42 1
    19    8    9 1
    20    9   10 2
    21    9   11 2
    22    9   12 1
    23   12   17 ar
    24   12   13 ar
    25   13   14 ar
    26   13   43 1
    27   14   15 ar
    28   14   44 1
    29   15   16 ar
    30   15   45 1
    31   16   17 ar
    32   16   18 1
    33   17   46 1
    34   18   22 1
    35   18   19 1
    36   19   20 2
    37   19   47 1
    38   20   21 1
    39   20   48 1
    40   21   22 2
    41   21   49 1
    42   23   28 ar
    43   23   24 ar
    44   24   25 ar
    45   24   50 1
    46   25   26 ar
    47   25   51 1
    48   26   27 ar
    49   26   33 1
    50   27   28 ar
    51   27   52 1
    52   28   29 1
    53   29   30 1
    54   29   31 1
    55   29   32 1
@<TRIPOS>MOLECULE
CHEMBL219606
   50    52     0     0     0
SMALL
USER_CHARGES

@<TRIPOS>ATOM
      1 C1          0.4551    1.4716    0.0522 C.3       1 <0>        -0.1383
      2 C2          0.2390   -0.0430    0.0475 C.3       1 <0>         0.0968
      3 C3          1.2603   -0.7068    0.9734 C.3       1 <0>        -0.1961
      4 C4         -1.1540   -0.3531    0.5317 C.2       1 <0>         0.4928
      5 O1         -1.9291   -0.9446   -0.1896 O.2       1 <0>        -0.5040
      6 N1         -1.5386    0.0269    1.7663 N.am      1 <0>        -0.7192
      7 C5         -2.8927   -0.2746    2.2370 C.3       1 <0>         0.1820
      8 C6         -3.9140    0.3892    1.3111 C.3       1 <0>        -0.1283
      9 C7         -5.3283    0.0743    1.8026 C.3       1 <0>        -0.0894
     10 C8         -5.2499   -0.7993    3.0562 C.3       1 <0>        -0.0769
     11 C9         -4.4838   -0.0534    4.1506 C.3       1 <0>        -0.0998
     12 C10        -3.0695    0.2614    3.6590 C.3       1 <0>        -0.1182
     13 C11        -4.5232   -2.1041    2.7239 C.3       1 <0>        -0.1004
     14 C12        -3.1089   -1.7893    2.2323 C.3       1 <0>        -0.1274
     15 C13        -6.6429   -1.1095    3.5404 C.2       1 <0>         0.5270
     16 O2         -7.6038   -0.6745    2.9417 O.2       1 <0>        -0.5370
     17 N2         -6.8208   -1.8701    4.6386 N.am      1 <0>        -0.8548
     18 O3          0.4041   -0.5437   -1.2807 O.3       1 <0>        -0.2822
     19 C14         0.2646   -1.8842   -1.4566 C.ar      1 <0>         0.1449
     20 C15        -0.1502   -2.6837   -0.4015 C.ar      1 <0>        -0.1718
     21 C16        -0.2913   -4.0460   -0.5823 C.ar      1 <0>        -0.0765
     22 C17        -0.0188   -4.6132   -1.8146 C.ar      1 <0>        -0.0698
     23 C18         0.3955   -3.8174   -2.8680 C.ar      1 <0>        -0.0741
     24 C19         0.5314   -2.4539   -2.6930 C.ar      1 <0>        -0.1385
     25 Cl1        -0.1964   -6.3254   -2.0391 Cl        1 <0>        -0.0729
     26 H1          1.4879    1.6921   -0.2176 H         1 <0>         0.0829
     27 H2         -0.2162    1.9367   -0.6698 H         1 <0>         0.0761
     28 H3          0.2476    1.8652    1.0472 H         1 <0>         0.0830
     29 H4          1.0067   -0.4877    2.0106 H         1 <0>         0.0783
     30 H5          1.2464   -1.7853    0.8160 H         1 <0>         0.0850
     31 H6          2.2554   -0.3203    0.7532 H         1 <0>         0.0843
     32 H7         -0.9187    0.4999    2.3432 H         1 <0>         0.4004
     33 H8         -3.7601    1.4682    1.3144 H         1 <0>         0.0650
     34 H9         -3.7881    0.0073    0.2980 H         1 <0>         0.0888
     35 H10        -5.8460    1.0038    2.0394 H         1 <0>         0.0722
     36 H11        -5.8741   -0.4571    1.0230 H         1 <0>         0.0736
     37 H12        -5.0015    0.8761    4.3874 H         1 <0>         0.0748
     38 H13        -4.4279   -0.6758    5.0437 H         1 <0>         0.0723
     39 H14        -2.3419   -0.2114    4.3187 H         1 <0>         0.0746
     40 H15        -2.9155    1.3405    3.6624 H         1 <0>         0.0751
     41 H16        -4.4673   -2.7265    3.6169 H         1 <0>         0.0688
     42 H17        -5.0689   -2.6355    1.9442 H         1 <0>         0.0726
     43 H18        -2.9829   -2.1711    1.2192 H         1 <0>         0.0905
     44 H19        -2.3813   -2.2621    2.8919 H         1 <0>         0.0656
     45 H20        -6.0523   -2.2180    5.1174 H         1 <0>         0.4004
     46 H21        -7.7175   -2.0697    4.9503 H         1 <0>         0.4024
     47 H22        -0.3623   -2.2414    0.5607 H         1 <0>         0.1345
     48 H23        -0.6143   -4.6687    0.2389 H         1 <0>         0.1319
     49 H24         0.6081   -4.2620   -3.8290 H         1 <0>         0.1395
     50 H25         0.8502   -1.8325   -3.5168 H         1 <0>         0.1394
@<TRIPOS>BOND
     1    1    2 1
     2    1   26 1
     3    1   27 1
     4    1   28 1
     5    2    3 1
     6    2    4 1
     7    2   18 1
     8    3   29 1
     9    3   30 1
    10    3   31 1
    11    4    5 2
    12    4    6 am
    13    6    7 1
    14    6   32 1
    15    7   12 1
    16    7   14 1
    17    7    8 1
    18    8    9 1
    19    8   33 1
    20    8   34 1
    21    9   10 1
    22    9   35 1
    23    9   36 1
    24   10   11 1
    25   10   13 1
    26   10   15 1
    27   11   12 1
    28   11   37 1
    29   11   38 1
    30   12   39 1
    31   12   40 1
    32   13   14 1
    33   13   41 1
    34   13   42 1
    35   14   43 1
    36   14   44 1
    37   15   16 2
    38   15   17 am
    39   17   45 1
    40   17   46 1
    41   18   19 1
    42   19   24 ar
    43   19   20 ar
    44   20   21 ar
    45   20   47 1
    46   21   22 ar
    47   21   48 1
    48   22   23 ar
    49   22   25 1
    50   23   24 ar
    51   23   49 1
    52   24   50 1
@<TRIPOS>MOLECULE
CHEMBL1098131
   56    60     0     0     0
SMALL
USER_CHARGES

@<TRIPOS>ATOM
      1 C1         -0.0188    1.5357    0.0105 C.3       1 <0>        -0.1407
      2 C2          1.4678    1.9597   -0.0014 C.3       1 <0>        -0.1357
      3 C3          2.1905    0.7049    0.5496 C.3       1 <0>         0.0024
      4 H1          2.1355    0.6761    1.6379 H         1 <0>         0.1660
      5 N1          1.4211   -0.4185   -0.0440 N.4       1 <0>        -0.3771
      6 C4          0.0021   -0.0041    0.0020 C.3       1 <0>        -0.0098
      7 C5          1.6177   -1.6408    0.7468 C.3       1 <0>         0.0049
      8 C6          0.9215   -2.8139    0.0540 C.3       1 <0>        -0.1446
      9 C7          1.8013   -3.5239   -0.9884 C.3       1 <0>        -0.1436
     10 C8          1.2130   -4.8463   -0.4687 C.3       1 <0>        -0.1421
     11 C9          0.9634   -4.1205    0.8639 C.3       1 <0>        -0.1249
     12 C10         3.6254    0.6728    0.0903 C.2       1 <0>         0.5087
     13 O1          4.0218   -0.2447   -0.5967 O.2       1 <0>        -0.5231
     14 N2          4.4682    1.6637    0.4429 N.am      1 <0>        -0.6942
     15 C11         5.8631    1.6325   -0.0036 C.3       1 <0>         0.1554
     16 C12         6.6896    0.7837    0.9645 C.3       1 <0>        -0.0929
     17 C13         6.6164    1.3921    2.3664 C.3       1 <0>        -0.1075
     18 C14         7.1735    2.8167    2.3339 C.3       1 <0>        -0.0890
     19 C15         8.6303    2.7841    1.8675 C.3       1 <0>        -0.1113
     20 C16         8.7035    2.1757    0.4656 C.3       1 <0>        -0.0906
     21 C17         8.1465    0.7511    0.4981 C.3       1 <0>        -0.1082
     22 C18         7.8770    3.0245   -0.5025 C.3       1 <0>        -0.1073
     23 C19         6.4201    3.0571   -0.0362 C.3       1 <0>        -0.0925
     24 C20         6.3469    3.6655    1.3657 C.3       1 <0>        -0.1105
     25 H2         -0.5096    1.9024    0.9120 H         1 <0>         0.1093
     26 H3         -0.5267    1.9121   -0.8775 H         1 <0>         0.1104
     27 H4          1.7979    2.1803   -1.0166 H         1 <0>         0.1039
     28 H5          1.6298    2.8165    0.6527 H         1 <0>         0.1241
     29 H6         -0.4673   -0.3868    0.9083 H         1 <0>         0.1350
     30 H7         -0.5226   -0.3777   -0.8773 H         1 <0>         0.1356
     31 H8          2.6839   -1.8504    0.8326 H         1 <0>         0.1317
     32 H9          1.1935   -1.5023    1.7412 H         1 <0>         0.1281
     33 H10        -0.0729   -2.5592   -0.3126 H         1 <0>         0.1105
     34 H11         1.5257   -3.2985   -2.0186 H         1 <0>         0.0767
     35 H12         2.8701   -3.4185   -0.8023 H         1 <0>         0.0937
     36 H13         0.2985   -5.1480   -0.9794 H         1 <0>         0.0888
     37 H14         1.9443   -5.6513   -0.3971 H         1 <0>         0.0804
     38 H15         1.8032   -4.1781    1.5564 H         1 <0>         0.0911
     39 H16         0.0115   -4.3766    1.3291 H         1 <0>         0.0821
     40 H17         4.1511    2.3975    0.9924 H         1 <0>         0.4073
     41 H18         5.9153    1.1990   -1.0024 H         1 <0>         0.0961
     42 H19         6.2928   -0.2312    0.9877 H         1 <0>         0.0726
     43 H20         5.5785    1.4153    2.6987 H         1 <0>         0.0551
     44 H21         7.2053    0.7874    3.0561 H         1 <0>         0.0684
     45 H22         7.1213    3.2501    3.3326 H         1 <0>         0.0750
     46 H23         9.0271    3.7991    1.8443 H         1 <0>         0.0670
     47 H24         9.2191    2.1794    2.5572 H         1 <0>         0.0663
     48 H25         9.7414    2.1525    0.1333 H         1 <0>         0.0782
     49 H26         8.7353    0.1464    1.1879 H         1 <0>         0.0710
     50 H27         8.1986    0.3177   -0.5006 H         1 <0>         0.0666
     51 H28         8.2738    4.0394   -0.5257 H         1 <0>         0.0745
     52 H29         7.9291    2.5911   -1.5013 H         1 <0>         0.0678
     53 H30         5.8313    3.6618   -0.7259 H         1 <0>         0.0789
     54 H31         5.3090    3.6887    1.6980 H         1 <0>         0.0553
     55 H32         6.7438    4.6804    1.3425 H         1 <0>         0.0745
     56 H33         1.7084   -0.5705   -0.9992 H         1 <0>         0.4323
@<TRIPOS>BOND
     1    1    6 1
     2    1    2 1
     3    1   25 1
     4    1   26 1
     5    2    3 1
     6    2   27 1
     7    2   28 1
     8    3    4 1
     9    3    5 1
    10    3   12 1
    11    5    6 1
    12    5    7 1
    13    5   56 1
    14    6   29 1
    15    6   30 1
    16    7    8 1
    17    7   31 1
    18    7   32 1
    19    8   11 1
    20    8    9 1
    21    8   33 1
    22    9   10 1
    23    9   34 1
    24    9   35 1
    25   10   11 1
    26   10   36 1
    27   10   37 1
    28   11   38 1
    29   11   39 1
    30   12   13 2
    31   12   14 am
    32   14   15 1
    33   14   40 1
    34   15   23 1
    35   15   16 1
    36   15   41 1
    37   16   21 1
    38   16   17 1
    39   16   42 1
    40   17   18 1
    41   17   43 1
    42   17   44 1
    43   18   24 1
    44   18   19 1
    45   18   45 1
    46   19   20 1
    47   19   46 1
    48   19   47 1
    49   20   21 1
    50   20   22 1
    51   20   48 1
    52   21   49 1
    53   21   50 1
    54   22   23 1
    55   22   51 1
    56   22   52 1
    57   23   24 1
    58   23   53 1
    59   24   54 1
    60   24   55 1
@<TRIPOS>MOLECULE
CHEMBL374728
   63    68     0     0     0
SMALL
USER_CHARGES

@<TRIPOS>ATOM
      1 C1          0.0843    1.2827   -0.8217 C.3       1 <0>        -0.1785
      2 C2          0.0021   -0.0041    0.0020 C.3       1 <0>        -0.0026
      3 C3         -1.4421   -0.3989    0.1741 C.2       1 <0>         0.5028
      4 O1         -1.9673   -1.1419   -0.6279 O.2       1 <0>        -0.5179
      5 N1         -2.1500    0.0736    1.2191 N.am      1 <0>        -0.6952
      6 C4         -3.5539   -0.3103    1.3863 C.3       1 <0>         0.1526
      7 C5         -4.4394    0.6196    0.5545 C.3       1 <0>        -0.0908
      8 C6         -4.2459    2.0629    1.0239 C.3       1 <0>        -0.1101
      9 C7         -4.6331    2.1754    2.4998 C.3       1 <0>        -0.0861
     10 C8         -3.7475    1.2455    3.3317 C.3       1 <0>        -0.1139
     11 C9         -3.9410   -0.1978    2.8623 C.3       1 <0>        -0.0897
     12 C10        -5.4072   -0.5987    3.0369 C.3       1 <0>        -0.0981
     13 C11        -6.2927    0.3312    2.2051 C.3       1 <0>         0.1347
     14 C12        -6.0993    1.7745    2.6745 C.3       1 <0>        -0.1412
     15 C13        -5.9056    0.2187    0.7291 C.3       1 <0>        -0.1382
     16 O2         -7.6621   -0.0432    2.3682 O.3       1 <0>        -0.5572
     17 N2          0.7238   -1.0779   -0.6938 N.4       1 <0>        -0.3609
     18 C14         2.0972   -0.6499   -0.8900 C.3       1 <0>        -0.0184
     19 C15         2.8292   -1.5795   -1.8629 C.3       1 <0>        -0.0889
     20 C16         3.3747   -2.7541   -1.0759 C.ar      1 <0>        -0.1029
     21 C17         4.7395   -2.8871   -0.8978 C.ar      1 <0>        -0.0876
     22 C18         5.2376   -3.9600   -0.1805 C.ar      1 <0>        -0.0922
     23 C19         4.3716   -4.8982    0.3575 C.ar      1 <0>         0.0495
     24 C20         2.9970   -4.7584    0.1757 C.ar      1 <0>         0.0471
     25 C21         2.5104   -3.6800   -0.5445 C.ar      1 <0>        -0.0853
     26 C22         1.0174   -3.5204   -0.7483 C.3       1 <0>        -0.0872
     27 C23         0.5515   -2.3055    0.0618 C.3       1 <0>        -0.0142
     28 O3          2.3668   -5.7981    0.7946 O.3       1 <0>        -0.3046
     29 C24         3.3854   -6.7936    1.0070 C.3       1 <0>         0.2129
     30 O4          4.6011   -6.0265    1.0905 O.3       1 <0>        -0.3011
     31 H1          1.1118    1.6464   -0.8258 H         1 <0>         0.1009
     32 H2         -0.2335    1.0803   -1.8445 H         1 <0>         0.0923
     33 H3         -0.5667    2.0380   -0.3816 H         1 <0>         0.1101
     34 H4          0.4525    0.1616    0.9807 H         1 <0>         0.1564
     35 H5         -1.7299    0.6678    1.8605 H         1 <0>         0.4084
     36 H6         -3.6917   -1.3385    1.0519 H         1 <0>         0.0993
     37 H7         -4.1636    0.5394   -0.4970 H         1 <0>         0.0794
     38 H8         -3.2014    2.3485    0.8994 H         1 <0>         0.0602
     39 H9         -4.8768    2.7254    0.4312 H         1 <0>         0.0707
     40 H10        -4.4952    3.2037    2.8342 H         1 <0>         0.0801
     41 H11        -2.7030    1.5311    3.2072 H         1 <0>         0.0600
     42 H12        -4.0233    1.3257    4.3831 H         1 <0>         0.0777
     43 H13        -3.3101   -0.8602    3.4549 H         1 <0>         0.0867
     44 H14        -5.5450   -1.6269    2.7025 H         1 <0>         0.0756
     45 H15        -5.6830   -0.5185    4.0884 H         1 <0>         0.0822
     46 H16        -6.3751    1.8547    3.7259 H         1 <0>         0.0757
     47 H17        -6.7301    2.4370    2.0818 H         1 <0>         0.0693
     48 H18        -6.5365    0.8812    0.1365 H         1 <0>         0.0741
     49 H19        -6.0434   -0.8095    0.3947 H         1 <0>         0.0755
     50 H20        -8.2821    0.5050    1.8680 H         1 <0>         0.3808
     51 H21         2.1023    0.3636   -1.2912 H         1 <0>         0.1450
     52 H22         2.6147   -0.6568    0.0692 H         1 <0>         0.1333
     53 H23         2.1345   -1.9369   -2.6230 H         1 <0>         0.0993
     54 H24         3.6500   -1.0420   -2.3378 H         1 <0>         0.1258
     55 H25         5.4144   -2.1555   -1.3170 H         1 <0>         0.1480
     56 H26         6.3031   -4.0667   -0.0400 H         1 <0>         0.1456
     57 H27         0.8055   -3.3609   -1.8056 H         1 <0>         0.1016
     58 H28         0.5010   -4.4149   -0.4000 H         1 <0>         0.1205
     59 H29         1.1331   -2.2442    0.9816 H         1 <0>         0.1285
     60 H30        -0.5022   -2.4260    0.3133 H         1 <0>         0.1393
     61 H31         3.2072   -7.3314    1.9381 H         1 <0>         0.1413
     62 H32         3.4262   -7.4855    0.1657 H         1 <0>         0.0941
     63 H33         0.3016   -1.2035   -1.6016 H         1 <0>         0.4253
@<TRIPOS>BOND
     1    1    2 1
     2    1   31 1
     3    1   32 1
     4    1   33 1
     5    2    3 1
     6    2   17 1
     7    2   34 1
     8    3    4 2
     9    3    5 am
    10    5    6 1
    11    5   35 1
    12    6   11 1
    13    6    7 1
    14    6   36 1
    15    7   15 1
    16    7    8 1
    17    7   37 1
    18    8    9 1
    19    8   38 1
    20    8   39 1
    21    9   14 1
    22    9   10 1
    23    9   40 1
    24   10   11 1
    25   10   41 1
    26   10   42 1
    27   11   12 1
    28   11   43 1
    29   12   13 1
    30   12   44 1
    31   12   45 1
    32   13   14 1
    33   13   15 1
    34   13   16 1
    35   14   46 1
    36   14   47 1
    37   15   48 1
    38   15   49 1
    39   16   50 1
    40   17   27 1
    41   17   18 1
    42   17   63 1
    43   18   19 1
    44   18   51 1
    45   18   52 1
    46   19   20 1
    47   19   53 1
    48   19   54 1
    49   20   25 ar
    50   20   21 ar
    51   21   22 ar
    52   21   55 1
    53   22   23 ar
    54   22   56 1
    55   23   30 1
    56   23   24 ar
    57   24   25 ar
    58   24   28 1
    59   25   26 1
    60   26   27 1
    61   26   57 1
    62   26   58 1
    63   27   59 1
    64   27   60 1
    65   28   29 1
    66   29   30 1
    67   29   61 1
    68   29   62 1
@<TRIPOS>MOLECULE
CHEMBL517874
   44    46     0     0     0
SMALL
USER_CHARGES

@<TRIPOS>ATOM
      1 C1         -0.0187    1.5258    0.0104 C.3       1 <0>        -0.1603
      2 C2          0.0021   -0.0041    0.0020 C.3       1 <0>         0.1867
      3 H1         -1.0205   -0.3814    0.0098 H         1 <0>         0.1135
      4 C3          0.7074   -0.4901   -1.2379 C.ar      1 <0>        -0.1118
      5 C4          2.0890   -0.5106   -1.2833 C.ar      1 <0>        -0.0870
      6 C5          2.7369   -0.9565   -2.4196 C.ar      1 <0>        -0.1468
      7 C6          2.0019   -1.3828   -3.5128 C.ar      1 <0>         0.1061
      8 C7          0.6182   -1.3618   -3.4661 C.ar      1 <0>        -0.1467
      9 C8         -0.0275   -0.9204   -2.3268 C.ar      1 <0>        -0.0711
     10 F1          2.6342   -1.8185   -4.6244 F         1 <0>        -0.1353
     11 N1          0.7106   -0.4894    1.1889 N.pl3     1 <0>        -0.6380
     12 C9          0.0433   -0.6352    2.3694 C.2       1 <0>         0.4694
     13 N2         -1.2333   -0.3879    2.5981 N.2       1 <0>        -0.6893
     14 C10        -1.8172   -0.5485    3.7585 C.2       1 <0>         0.5511
     15 O1         -2.9940   -0.3177    3.9572 O.2       1 <0>        -0.4520
     16 C11        -0.8635   -1.0564    4.8340 C.3       1 <0>        -0.0857
     17 S1          0.6760   -1.1744    3.8329 S.3       1 <0>        -0.0689
     18 C12        -1.2908   -2.4291    5.3574 C.3       1 <0>        -0.1191
     19 C13        -0.7188   -0.0473    5.9750 C.3       1 <0>         0.1677
     20 C14        -2.0774    0.1550    6.6770 C.3       1 <0>        -0.1594
     21 C15        -2.1019    1.6630    7.0296 C.3       1 <0>        -0.1231
     22 C16        -1.4256    2.3133    5.7972 C.3       1 <0>        -0.1255
     23 C17        -0.3043    1.3249    5.4156 C.3       1 <0>        -0.1534
     24 O2          0.2549   -0.5074    6.9143 O.3       1 <0>        -0.5499
     25 H2          1.0039    1.9031    0.0027 H         1 <0>         0.0628
     26 H3         -0.5459    1.8868   -0.8726 H         1 <0>         0.0780
     27 H4         -0.5289    1.8773    0.9072 H         1 <0>         0.0717
     28 H5          2.6621   -0.1777   -0.4306 H         1 <0>         0.1305
     29 H6          3.8163   -0.9721   -2.4550 H         1 <0>         0.1405
     30 H7          0.0439   -1.6937   -4.3184 H         1 <0>         0.1415
     31 H8         -1.1068   -0.9081   -2.2885 H         1 <0>         0.1393
     32 H9          1.6544   -0.7070    1.1351 H         1 <0>         0.4236
     33 H10        -1.3098   -3.1424    4.5334 H         1 <0>         0.0680
     34 H11        -0.5820   -2.7664    6.1137 H         1 <0>         0.0857
     35 H12        -2.2851   -2.3566    5.7981 H         1 <0>         0.0859
     36 H13        -2.8964   -0.0921    6.0015 H         1 <0>         0.1029
     37 H14        -2.1328   -0.4494    7.5824 H         1 <0>         0.0812
     38 H15        -3.1268    2.0174    7.1397 H         1 <0>         0.0746
     39 H16        -1.5255    1.8577    7.9341 H         1 <0>         0.0683
     40 H17        -2.1393    2.4147    4.9796 H         1 <0>         0.0699
     41 H18        -1.0053    3.2839    6.0605 H         1 <0>         0.0708
     42 H19         0.6391    1.6403    5.8612 H         1 <0>         0.0839
     43 H20        -0.2063    1.2720    4.3313 H         1 <0>         0.0647
     44 H21         0.3926    0.0897    7.6624 H         1 <0>         0.3850
@<TRIPOS>BOND
     1    1    2 1
     2    1   25 1
     3    1   26 1
     4    1   27 1
     5    2    3 1
     6    2    4 1
     7    2   11 1
     8    4    9 ar
     9    4    5 ar
    10    5    6 ar
    11    5   28 1
    12    6    7 ar
    13    6   29 1
    14    7    8 ar
    15    7   10 1
    16    8    9 ar
    17    8   30 1
    18    9   31 1
    19   11   12 1
    20   11   32 1
    21   12   17 1
    22   12   13 2
    23   13   14 1
    24   14   15 2
    25   14   16 1
    26   16   17 1
    27   16   18 1
    28   16   19 1
    29   18   33 1
    30   18   34 1
    31   18   35 1
    32   19   23 1
    33   19   20 1
    34   19   24 1
    35   20   21 1
    36   20   36 1
    37   20   37 1
    38   21   22 1
    39   21   38 1
    40   21   39 1
    41   22   23 1
    42   22   40 1
    43   22   41 1
    44   23   42 1
    45   23   43 1
    46   24   44 1
@<TRIPOS>MOLECULE
CHEMBL517874__1
   44    46     0     0     0
SMALL
USER_CHARGES

@<TRIPOS>ATOM
      1 C1         -0.0187    1.5258    0.0104 C.3       1 <0>        -0.1606
      2 C2          0.0021   -0.0041    0.0020 C.3       1 <0>         0.1875
      3 H1         -1.0205   -0.3814    0.0098 H         1 <0>         0.1130
      4 C3          0.7074   -0.4901   -1.2379 C.ar      1 <0>        -0.1112
      5 C4          2.0890   -0.5106   -1.2833 C.ar      1 <0>        -0.0870
      6 C5          2.7369   -0.9565   -2.4196 C.ar      1 <0>        -0.1470
      7 C6          2.0019   -1.3828   -3.5128 C.ar      1 <0>         0.1059
      8 C7          0.6182   -1.3618   -3.4661 C.ar      1 <0>        -0.1466
      9 C8         -0.0275   -0.9204   -2.3268 C.ar      1 <0>        -0.0713
     10 F1          2.6342   -1.8185   -4.6244 F         1 <0>        -0.1354
     11 N1          0.7106   -0.4894    1.1889 N.pl3     1 <0>        -0.6397
     12 C9          0.0433   -0.6352    2.3694 C.2       1 <0>         0.4723
     13 N2         -1.2333   -0.3879    2.5981 N.2       1 <0>        -0.6884
     14 C10        -1.8172   -0.5485    3.7585 C.2       1 <0>         0.5461
     15 O1         -2.9940   -0.3177    3.9572 O.2       1 <0>        -0.4370
     16 C11        -0.8635   -1.0564    4.8340 C.3       1 <0>        -0.0871
     17 S1          0.6760   -1.1744    3.8329 S.3       1 <0>        -0.0783
     18 C12        -0.7188   -0.0473    5.9750 C.3       1 <0>        -0.1169
     19 C13        -1.2908   -2.4291    5.3574 C.3       1 <0>         0.1659
     20 C14        -0.2578   -2.9508    6.3775 C.3       1 <0>        -0.1505
     21 C15        -0.1913   -4.4742    6.1056 C.3       1 <0>        -0.1256
     22 C16        -0.3067   -4.5514    4.5629 C.3       1 <0>        -0.1213
     23 C17        -1.3219   -3.4468    4.2037 C.3       1 <0>        -0.1563
     24 O2         -2.5803   -2.3405    5.9669 O.3       1 <0>        -0.5359
     25 H2          1.0039    1.9031    0.0027 H         1 <0>         0.0629
     26 H3         -0.5459    1.8868   -0.8726 H         1 <0>         0.0778
     27 H4         -0.5289    1.8773    0.9072 H         1 <0>         0.0722
     28 H5          2.6621   -0.1777   -0.4306 H         1 <0>         0.1305
     29 H6          3.8163   -0.9721   -2.4550 H         1 <0>         0.1404
     30 H7          0.0439   -1.6937   -4.3184 H         1 <0>         0.1414
     31 H8         -1.1068   -0.9081   -2.2885 H         1 <0>         0.1392
     32 H9          1.6544   -0.7070    1.1351 H         1 <0>         0.4229
     33 H10        -1.6909    0.1177    6.4396 H         1 <0>         0.0935
     34 H11        -0.0223   -0.4363    6.7178 H         1 <0>         0.0765
     35 H12        -0.3400    0.8955    5.5803 H         1 <0>         0.0681
     36 H13         0.7148   -2.4897    6.2052 H         1 <0>         0.0782
     37 H14        -0.5968   -2.7594    7.3956 H         1 <0>         0.0844
     38 H15         0.7600   -4.8856    6.4429 H         1 <0>         0.0750
     39 H16        -1.0263   -4.9883    6.5816 H         1 <0>         0.0708
     40 H17         0.6580   -4.3489    4.0976 H         1 <0>         0.0728
     41 H18        -0.6814   -5.5281    4.2568 H         1 <0>         0.0705
     42 H19        -2.3204   -3.8738    4.1093 H         1 <0>         0.0795
     43 H20        -1.0326   -2.9628    3.2709 H         1 <0>         0.0663
     44 H21        -2.9074   -3.1796    6.3190 H         1 <0>         0.3825
@<TRIPOS>BOND
     1    1    2 1
     2    1   25 1
     3    1   26 1
     4    1   27 1
     5    2    3 1
     6    2    4 1
     7    2   11 1
     8    4    9 ar
     9    4    5 ar
    10    5    6 ar
    11    5   28 1
    12    6    7 ar
    13    6   29 1
    14    7    8 ar
    15    7   10 1
    16    8    9 ar
    17    8   30 1
    18    9   31 1
    19   11   12 1
    20   11   32 1
    21   12   17 1
    22   12   13 2
    23   13   14 1
    24   14   15 2
    25   14   16 1
    26   16   17 1
    27   16   18 1
    28   16   19 1
    29   18   33 1
    30   18   34 1
    31   18   35 1
    32   19   23 1
    33   19   20 1
    34   19   24 1
    35   20   21 1
    36   20   36 1
    37   20   37 1
    38   21   22 1
    39   21   38 1
    40   21   39 1
    41   22   23 1
    42   22   40 1
    43   22   41 1
    44   23   42 1
    45   23   43 1
    46   24   44 1
@<TRIPOS>MOLECULE
CHEMBL1084562
   48    50     0     0     0
SMALL
USER_CHARGES

@<TRIPOS>ATOM
      1 C1         -0.4963    1.4638    0.3417 C.3       1 <0>         0.0217
      2 O1         -0.4022    0.0395    0.2739 O.3       1 <0>        -0.2989
      3 C2          0.2955   -0.5798    1.2600 C.ar      1 <0>         0.1415
      4 C3          0.8731    0.1711    2.2761 C.ar      1 <0>        -0.1883
      5 C4          1.5823   -0.4510    3.2788 C.ar      1 <0>        -0.0618
      6 C5          1.7223   -1.8441    3.2760 C.ar      1 <0>        -0.1688
      7 C6          1.1393   -2.6002    2.2515 C.ar      1 <0>        -0.1106
      8 C7          0.4256   -1.9685    1.2531 C.ar      1 <0>         0.0887
      9 O2         -0.1463   -2.6999    0.2594 O.3       1 <0>        -0.3032
     10 C8          0.0270   -4.1173    0.3150 C.3       1 <0>         0.0227
     11 C9          2.4787   -2.5104    4.3440 C.2       1 <0>         0.4235
     12 O3          2.5988   -3.7174    4.3399 O.2       1 <0>        -0.4325
     13 C10         3.1056   -1.6946    5.4452 C.3       1 <0>        -0.1753
     14 S1          3.9635   -2.7978    6.6017 S.3       1 <0>         0.0223
     15 C11         4.7610   -1.7001    7.7258 C.2       1 <0>         0.0186
     16 C12         4.4999   -0.3764    7.8914 C.2       1 <0>        -0.0777
     17 N1          5.3096    0.1077    8.8328 N.2       1 <0>        -0.2289
     18 N2          6.0735   -0.8269    9.2800 N.2       1 <0>        -0.0591
     19 N3          5.7560   -2.0141    8.6032 N.pl3     1 <0>        -0.3363
     20 C13         6.3732   -3.3284    8.7980 C.3       1 <0>         0.1528
     21 C14         6.0667   -3.8315   10.2100 C.3       1 <0>        -0.1273
     22 C15         6.7112   -5.2041   10.4135 C.3       1 <0>        -0.1161
     23 C16         8.2259   -5.0885   10.2308 C.3       1 <0>        -0.1255
     24 C17         8.5323   -4.5854    8.8187 C.3       1 <0>        -0.1164
     25 C18         7.8878   -3.2128    8.6153 C.3       1 <0>        -0.1252
     26 H1          0.5038    1.8959    0.3086 H         1 <0>         0.0599
     27 H2         -1.0786    1.8301   -0.5038 H         1 <0>         0.1058
     28 H3         -0.9859    1.7516    1.2720 H         1 <0>         0.0600
     29 H4          0.7658    1.2457    2.2793 H         1 <0>         0.1459
     30 H5          2.0308    0.1353    4.0671 H         1 <0>         0.1387
     31 H6          1.2447   -3.6750    2.2447 H         1 <0>         0.1496
     32 H7         -0.4774   -4.5786   -0.5340 H         1 <0>         0.1052
     33 H8          1.0901   -4.3551    0.2790 H         1 <0>         0.0578
     34 H9         -0.3996   -4.4994    1.2424 H         1 <0>         0.0580
     35 H10         3.8198   -0.9923    5.0155 H         1 <0>         0.1311
     36 H11         2.3292   -1.1440    5.9764 H         1 <0>         0.1320
     37 H12         3.7580    0.1904    7.3486 H         1 <0>         0.1827
     38 H13         5.9716   -4.0303    8.0671 H         1 <0>         0.1078
     39 H14         6.4683   -3.1296   10.9409 H         1 <0>         0.0805
     40 H15         4.9877   -3.9139   10.3402 H         1 <0>         0.0706
     41 H16         6.4929   -5.5625   11.4195 H         1 <0>         0.0744
     42 H17         6.3096   -5.9060    9.6826 H         1 <0>         0.0680
     43 H18         8.6275   -4.3866   10.9617 H         1 <0>         0.0672
     44 H19         8.6850   -6.0664   10.3757 H         1 <0>         0.0699
     45 H20         9.6114   -4.5030    8.6886 H         1 <0>         0.0745
     46 H21         8.1307   -5.2873    8.0879 H         1 <0>         0.0679
     47 H22         8.1061   -2.8544    7.6093 H         1 <0>         0.0706
     48 H23         8.2894   -2.5109    9.3462 H         1 <0>         0.0818
@<TRIPOS>BOND
     1    1    2 1
     2    1   26 1
     3    1   27 1
     4    1   28 1
     5    2    3 1
     6    3    8 ar
     7    3    4 ar
     8    4    5 ar
     9    4   29 1
    10    5    6 ar
    11    5   30 1
    12    6    7 ar
    13    6   11 1
    14    7    8 ar
    15    7   31 1
    16    8    9 1
    17    9   10 1
    18   10   32 1
    19   10   33 1
    20   10   34 1
    21   11   12 2
    22   11   13 1
    23   13   14 1
    24   13   35 1
    25   13   36 1
    26   14   15 1
    27   15   19 1
    28   15   16 2
    29   16   17 1
    30   16   37 1
    31   17   18 2
    32   18   19 1
    33   19   20 1
    34   20   25 1
    35   20   21 1
    36   20   38 1
    37   21   22 1
    38   21   39 1
    39   21   40 1
    40   22   23 1
    41   22   41 1
    42   22   42 1
    43   23   24 1
    44   23   43 1
    45   23   44 1
    46   24   25 1
    47   24   45 1
    48   24   46 1
    49   25   47 1
    50   25   48 1
@<TRIPOS>MOLECULE
CHEMBL1096870
   59    63     0     0     0
SMALL
USER_CHARGES

@<TRIPOS>ATOM
      1 C1          0.9192    1.3523    0.2499 C.3       1 <0>        -0.1251
      2 C2          2.4432    1.5548    0.0609 C.3       1 <0>        -0.1272
      3 C3          2.7996    0.4907   -1.0067 C.3       1 <0>        -0.1142
      4 C4          1.9222   -0.7235   -0.6382 C.3       1 <0>        -0.1172
      5 C5          0.7267   -0.1757    0.1607 C.3       1 <0>        -0.1365
      6 C6          1.4291   -1.4186   -1.9089 C.3       1 <0>        -0.0195
      7 N1          0.6962   -2.6390   -1.5464 N.4       1 <0>        -0.3766
      8 C7          1.6317   -3.6290   -0.9714 C.3       1 <0>        -0.0097
      9 C8          1.1151   -5.0001   -1.4743 C.3       1 <0>        -0.1381
     10 C9          0.6424   -4.6495   -2.9097 C.3       1 <0>        -0.1272
     11 C10         0.0772   -3.2223   -2.7508 C.3       1 <0>         0.0014
     12 H1         -1.0051   -3.2636   -2.6285 H         1 <0>         0.1509
     13 C11         0.4284   -2.3942   -3.9599 C.2       1 <0>         0.5022
     14 O1          1.5910   -2.1899   -4.2381 O.2       1 <0>        -0.5083
     15 N2         -0.5496   -1.8806   -4.7321 N.am      1 <0>        -0.6976
     16 C12        -0.2083   -1.0756   -5.9075 C.3       1 <0>         0.1533
     17 C13         0.0177    0.3768   -5.4828 C.3       1 <0>        -0.0917
     18 C14        -1.2589    0.9253   -4.8422 C.3       1 <0>        -0.1066
     19 C15        -2.4049    0.8622   -5.8539 C.3       1 <0>        -0.0885
     20 C16        -2.0484    1.7030   -7.0815 C.3       1 <0>        -0.1113
     21 C17        -0.7718    1.1544   -7.7221 C.3       1 <0>        -0.0905
     22 C18         0.3742    1.2175   -6.7104 C.3       1 <0>        -0.1081
     23 C19        -0.9978   -0.2980   -8.1468 C.3       1 <0>        -0.1077
     24 C20        -1.3543   -1.1387   -6.9192 C.3       1 <0>        -0.0931
     25 C21        -2.6309   -0.5902   -6.2786 C.3       1 <0>        -0.1106
     26 H2          0.6037    1.7203    1.2262 H         1 <0>         0.0759
     27 H3          0.3664    1.8535   -0.5447 H         1 <0>         0.0705
     28 H4          2.6568    2.5582   -0.3075 H         1 <0>         0.0779
     29 H5          2.9768    1.3621    0.9916 H         1 <0>         0.0746
     30 H6          2.5504    0.8528   -2.0042 H         1 <0>         0.0754
     31 H7          3.8562    0.2299   -0.9475 H         1 <0>         0.0801
     32 H8          2.4912   -1.4232   -0.0261 H         1 <0>         0.0957
     33 H9          0.7155   -0.6095    1.1606 H         1 <0>         0.0797
     34 H10        -0.2048   -0.4051   -0.3568 H         1 <0>         0.0590
     35 H11         0.7683   -0.7473   -2.4572 H         1 <0>         0.1216
     36 H12         2.2825   -1.6797   -2.5347 H         1 <0>         0.1598
     37 H13         2.6441   -3.4491   -1.3331 H         1 <0>         0.1367
     38 H14         1.6042   -3.5893    0.1175 H         1 <0>         0.1387
     39 H15         1.9190   -5.7359   -1.4968 H         1 <0>         0.1228
     40 H16         0.2831   -5.3515   -0.8641 H         1 <0>         0.1022
     41 H17         1.4822   -4.6562   -3.6045 H         1 <0>         0.1092
     42 H18        -0.1363   -5.3380   -3.2380 H         1 <0>         0.1198
     43 H19        -1.4795   -2.0441   -4.5096 H         1 <0>         0.4063
     44 H20         0.7012   -1.4664   -6.3639 H         1 <0>         0.0974
     45 H21         0.8342    0.4217   -4.7620 H         1 <0>         0.0707
     46 H22        -1.5128    0.3264   -3.9677 H         1 <0>         0.0522
     47 H23        -1.0979    1.9600   -4.5396 H         1 <0>         0.0684
     48 H24        -3.3143    1.2530   -5.3975 H         1 <0>         0.0746
     49 H25        -2.8648    1.6580   -7.8022 H         1 <0>         0.0674
     50 H26        -1.8874    2.7377   -6.7789 H         1 <0>         0.0662
     51 H27        -0.5178    1.7534   -8.5966 H         1 <0>         0.0787
     52 H28         0.5352    2.2522   -6.4078 H         1 <0>         0.0710
     53 H29         1.2837    0.8267   -7.1667 H         1 <0>         0.0675
     54 H30        -1.8142   -0.3429   -8.8675 H         1 <0>         0.0747
     55 H31        -0.0883   -0.6888   -8.6031 H         1 <0>         0.0685
     56 H32        -1.5153   -2.1734   -7.2218 H         1 <0>         0.0797
     57 H33        -2.8848   -1.1891   -5.4041 H         1 <0>         0.0547
     58 H34        -3.4473   -0.6351   -6.9994 H         1 <0>         0.0749
     59 H35        -0.0192   -2.4181   -0.8700 H         1 <0>         0.4250
@<TRIPOS>BOND
     1    1    5 1
     2    1    2 1
     3    1   26 1
     4    1   27 1
     5    2    3 1
     6    2   28 1
     7    2   29 1
     8    3    4 1
     9    3   30 1
    10    3   31 1
    11    4    5 1
    12    4    6 1
    13    4   32 1
    14    5   33 1
    15    5   34 1
    16    6    7 1
    17    6   35 1
    18    6   36 1
    19    7   11 1
    20    7    8 1
    21    7   59 1
    22    8    9 1
    23    8   37 1
    24    8   38 1
    25    9   10 1
    26    9   39 1
    27    9   40 1
    28   10   11 1
    29   10   41 1
    30   10   42 1
    31   11   12 1
    32   11   13 1
    33   13   14 2
    34   13   15 am
    35   15   16 1
    36   15   43 1
    37   16   24 1
    38   16   17 1
    39   16   44 1
    40   17   22 1
    41   17   18 1
    42   17   45 1
    43   18   19 1
    44   18   46 1
    45   18   47 1
    46   19   25 1
    47   19   20 1
    48   19   48 1
    49   20   21 1
    50   20   49 1
    51   20   50 1
    52   21   22 1
    53   21   23 1
    54   21   51 1
    55   22   52 1
    56   22   53 1
    57   23   24 1
    58   23   54 1
    59   23   55 1
    60   24   25 1
    61   24   56 1
    62   25   57 1
    63   25   58 1
@<TRIPOS>MOLECULE
CHEMBL257773
   47    50     0     0     0
SMALL
USER_CHARGES

@<TRIPOS>ATOM
      1 C1          2.9654   -3.6624    2.8024 C.ar      1 <0>        -0.1197
      2 C2          4.1691   -2.9597    2.8130 C.ar      1 <0>        -0.0834
      3 C3          4.4356   -2.0122    1.8732 C.ar      1 <0>        -0.1390
      4 C4          3.4852   -1.7358    0.8754 C.ar      1 <0>         0.0298
      5 C5          2.2613   -2.4507    0.8644 C.ar      1 <0>        -0.0702
      6 C6          2.0217   -3.4217    1.8519 C.ar      1 <0>        -0.0930
      7 C7          1.3114   -2.1748   -0.1334 C.ar      1 <0>        -0.0430
      8 C8          1.5781   -1.2273   -1.0737 C.ar      1 <0>        -0.1447
      9 C9          2.7814   -0.5249   -1.0632 C.ar      1 <0>        -0.0060
     10 C10         3.7248   -0.7651   -0.1117 C.ar      1 <0>        -0.6645
     11 S1          5.2386    0.1366   -0.1181 S.o2      1 <0>         2.6886
     12 O1          5.1025    1.1655    0.8526 O.2       1 <0>        -0.9483
     13 O2          6.2841   -0.8245   -0.0680 O.2       1 <0>        -0.9476
     14 N1          5.3555    0.8868   -1.5897 N.pl3     1 <0>        -0.9941
     15 C11         5.8657    0.1606   -2.7611 C.3       1 <0>         0.1041
     16 C12         4.8236    0.2464   -3.8831 C.3       1 <0>         0.1291
     17 N2          4.4185    1.6502   -4.0413 N.pl3     1 <0>        -0.6657
     18 C13         3.9083    2.3765   -2.8700 C.3       1 <0>         0.1286
     19 C14         4.9451    2.2890   -1.7492 C.3       1 <0>         0.0983
     20 C15         4.5166    2.2799   -5.2766 C.ar      1 <0>         0.4312
     21 C16         3.4184    2.2971   -6.1309 C.ar      1 <0>        -0.2405
     22 C17         3.5300    2.9271   -7.3570 C.ar      1 <0>        -0.0217
     23 C18         4.7405    3.5214   -7.6892 C.ar      1 <0>        -0.1779
     24 C19         5.7890    3.4664   -6.7933 C.ar      1 <0>         0.1444
     25 N3          5.6524    2.8628   -5.6276 N.ar      1 <0>        -0.4883
     26 C20         2.1253    1.6376   -5.7259 C.3       1 <0>         0.5219
     27 F1          1.1578    1.8645   -6.7106 F         1 <0>        -0.1783
     28 F2          2.3293    0.2612   -5.5809 F         1 <0>        -0.1723
     29 F3          1.6886    2.1749   -4.5103 F         1 <0>        -0.1721
     30 H1          2.7806   -4.4122    3.5574 H         1 <0>         0.1313
     31 H2          4.9011   -3.1702    3.5787 H         1 <0>         0.1333
     32 H3          5.3724   -1.4752    1.8943 H         1 <0>         0.1281
     33 H4          1.0938   -3.9742    1.8561 H         1 <0>         0.1339
     34 H5          0.3746   -2.7119   -0.1544 H         1 <0>         0.1374
     35 H6          0.8462   -1.0172   -1.8396 H         1 <0>         0.1345
     36 H7          2.9682    0.2215   -1.8210 H         1 <0>         0.1359
     37 H8          6.7997    0.6132   -3.0939 H         1 <0>         0.0878
     38 H9          6.0355   -0.8837   -2.4987 H         1 <0>         0.0984
     39 H10         5.2583   -0.1161   -4.8146 H         1 <0>         0.0870
     40 H11         3.9547   -0.3579   -3.6224 H         1 <0>         0.0684
     41 H12         3.7385    3.4207   -3.1324 H         1 <0>         0.0886
     42 H13         2.9742    1.9238   -2.5372 H         1 <0>         0.0685
     43 H14         4.5071    2.6500   -0.8187 H         1 <0>         0.1050
     44 H15         5.8121    2.8967   -2.0083 H         1 <0>         0.0871
     45 H16         2.6946    2.9561   -8.0409 H         1 <0>         0.1512
     46 H17         4.8603    4.0211   -8.6391 H         1 <0>         0.1501
     47 H18         6.7322    3.9269   -7.0477 H         1 <0>         0.1680
@<TRIPOS>BOND
     1    1    6 ar
     2    1    2 ar
     3    1   30 1
     4    2    3 ar
     5    2   31 1
     6    3    4 ar
     7    3   32 1
     8    4   10 ar
     9    4    5 ar
    10    5    6 ar
    11    5    7 ar
    12    6   33 1
    13    7    8 ar
    14    7   34 1
    15    8    9 ar
    16    8   35 1
    17    9   10 ar
    18    9   36 1
    19   10   11 1
    20   11   12 2
    21   11   13 2
    22   11   14 1
    23   14   19 1
    24   14   15 1
    25   15   16 1
    26   15   37 1
    27   15   38 1
    28   16   17 1
    29   16   39 1
    30   16   40 1
    31   17   18 1
    32   17   20 1
    33   18   19 1
    34   18   41 1
    35   18   42 1
    36   19   43 1
    37   19   44 1
    38   20   25 ar
    39   20   21 ar
    40   21   22 ar
    41   21   26 1
    42   22   23 ar
    43   22   45 1
    44   23   24 ar
    45   23   46 1
    46   24   25 ar
    47   24   47 1
    48   26   27 1
    49   26   28 1
    50   26   29 1
@<TRIPOS>MOLECULE
CHEMBL497105
   44    47     0     0     0
SMALL
USER_CHARGES

@<TRIPOS>ATOM
      1 C1         -0.0163    1.3544    0.0095 C.2       1 <0>         0.0257
      2 C2          1.1954    2.0667    0.0017 C.2       1 <0>        -0.2134
      3 C3          2.3740    1.4093   -0.0135 C.2       1 <0>         0.2042
      4 N1          2.4120    0.0471   -0.0216 N.pl3     1 <0>        -0.5612
      5 C4          1.2455   -0.6792   -0.0139 C.2       1 <0>         0.5369
      6 C5          0.0021   -0.0041    0.0020 C.2       1 <0>        -0.2703
      7 N2          1.2846   -1.9955   -0.0223 N.2       1 <0>        -1.0525
      8 S1         -0.1243   -2.8658   -0.0130 S.o2      1 <0>         2.6577
      9 O1         -0.7464   -2.6181    1.2404 O.2       1 <0>        -0.9825
     10 O2         -0.7721   -2.6031   -1.2501 O.2       1 <0>        -0.9824
     11 C6          0.3169   -4.5716   -0.0278 C.ar      1 <0>        -0.6349
     12 C7          0.4827   -5.2299   -1.2331 C.ar      1 <0>        -0.0151
     13 C8          0.8282   -6.5658   -1.2508 C.ar      1 <0>        -0.1284
     14 C9          1.0107   -7.2518   -0.0511 C.ar      1 <0>         0.0006
     15 C10         0.8428   -6.5830    1.1605 C.ar      1 <0>        -0.1284
     16 C11         0.5019   -5.2458    1.1659 C.ar      1 <0>        -0.0153
     17 C12         1.3816   -8.6874   -0.0636 C.ar      1 <0>        -0.0274
     18 C13         1.5540   -9.3521   -1.2779 C.ar      1 <0>        -0.1048
     19 C14         1.8982  -10.6848   -1.2910 C.ar      1 <0>        -0.0670
     20 C15         2.0755  -11.3719   -0.0869 C.ar      1 <0>        -0.0211
     21 C16         1.9029  -10.7047    1.1289 C.ar      1 <0>        -0.0670
     22 C17         1.5634   -9.3707    1.1391 C.ar      1 <0>        -0.1048
     23 C18         2.4332  -12.7585   -0.0990 C.1       1 <0>         0.2487
     24 N3          2.7169  -13.8584   -0.1085 N.1       1 <0>        -0.4080
     25 C19         3.6626    2.1906   -0.0221 C.3       1 <0>        -0.1371
     26 C20         4.9602    1.4105   -0.2426 C.3       1 <0>        -0.1738
     27 C21         4.6301    1.9702    1.1425 C.3       1 <0>        -0.1569
     28 H1         -0.9573    1.8844    0.0258 H         1 <0>         0.1513
     29 H2          1.1833    3.1466    0.0077 H         1 <0>         0.1575
     30 H3         -0.9223   -0.5626    0.0078 H         1 <0>         0.1481
     31 H4          0.3410   -4.6975   -2.1620 H         1 <0>         0.1438
     32 H5          0.9567   -7.0790   -2.1924 H         1 <0>         0.1389
     33 H6          0.9825   -7.1096    2.0930 H         1 <0>         0.1388
     34 H7          0.3755   -4.7256    2.1039 H         1 <0>         0.1437
     35 H8          1.4169   -8.8209   -2.2082 H         1 <0>         0.1399
     36 H9          2.0309  -11.1993   -2.2312 H         1 <0>         0.1385
     37 H10         2.0392  -11.2345    2.0601 H         1 <0>         0.1385
     38 H11         1.4340   -8.8537    2.0784 H         1 <0>         0.1399
     39 H12         3.6010    3.1945   -0.4421 H         1 <0>         0.1449
     40 H13         4.8818    0.3322   -0.3815 H         1 <0>         0.0968
     41 H14         5.7525    1.9011   -0.8080 H         1 <0>         0.1153
     42 H15         5.2053    2.8291    1.4884 H         1 <0>         0.1139
     43 H16         4.3345    1.2602    1.9149 H         1 <0>         0.1020
     44 H17         3.2664   -0.4120   -0.0332 H         1 <0>         0.4266
@<TRIPOS>BOND
     1    1    6 2
     2    1    2 1
     3    1   28 1
     4    2    3 2
     5    2   29 1
     6    3    4 1
     7    3   25 1
     8    4    5 1
     9    4   44 1
    10    5    6 1
    11    5    7 2
    12    6   30 1
    13    7    8 1
    14    8    9 2
    15    8   10 2
    16    8   11 1
    17   11   16 ar
    18   11   12 ar
    19   12   13 ar
    20   12   31 1
    21   13   14 ar
    22   13   32 1
    23   14   15 ar
    24   14   17 1
    25   15   16 ar
    26   15   33 1
    27   16   34 1
    28   17   22 ar
    29   17   18 ar
    30   18   19 ar
    31   18   35 1
    32   19   20 ar
    33   19   36 1
    34   20   21 ar
    35   20   23 1
    36   21   22 ar
    37   21   37 1
    38   22   38 1
    39   23   24 3
    40   25   27 1
    41   25   26 1
    42   25   39 1
    43   26   27 1
    44   26   40 1
    45   26   41 1
    46   27   42 1
    47   27   43 1
@<TRIPOS>MOLECULE
CHEMBL497105__1
   43    46     0     0     0
SMALL
USER_CHARGES

@<TRIPOS>ATOM
      1 C1         -0.0167    1.3788    0.0096 C.ar      1 <0>        -0.0310
      2 C2          1.1946    2.0581    0.0017 C.ar      1 <0>        -0.2791
      3 C3          2.3728    1.3394   -0.0134 C.ar      1 <0>         0.1961
      4 N1          2.3606    0.0197   -0.0204 N.ar      1 <0>        -0.5225
      5 C4          1.2269   -0.6641   -0.0132 C.ar      1 <0>         0.4613
      6 C5          0.0021   -0.0041    0.0020 C.ar      1 <0>        -0.3080
      7 N2          1.2605   -2.0537   -0.0210 N.2       1 <0>        -1.0687
      8 S1         -0.1531   -2.9162   -0.0121 S.o2      1 <0>         2.6122
      9 O1         -0.7748   -2.6642    1.2406 O.2       1 <0>        -1.0262
     10 O2         -0.7986   -2.6508   -1.2500 O.2       1 <0>        -1.0263
     11 C6          0.2787   -4.6244   -0.0254 C.ar      1 <0>        -0.6041
     12 C7          0.4418   -5.2845   -1.2302 C.ar      1 <0>        -0.0214
     13 C8          0.7800   -6.6223   -1.2467 C.ar      1 <0>        -0.1281
     14 C9          0.9578   -7.3084   -0.0463 C.ar      1 <0>        -0.0274
     15 C10         0.7926   -6.6379    1.1646 C.ar      1 <0>        -0.1281
     16 C11         0.4591   -5.2988    1.1688 C.ar      1 <0>        -0.0215
     17 C12         1.3208   -8.7460   -0.0575 C.ar      1 <0>        -0.0072
     18 C13         1.4904   -9.4125   -1.2713 C.ar      1 <0>        -0.1114
     19 C14         1.8274  -10.7471   -1.2832 C.ar      1 <0>        -0.0655
     20 C15         2.0000  -11.4343   -0.0785 C.ar      1 <0>        -0.0368
     21 C16         1.8301  -10.7653    1.1367 C.ar      1 <0>        -0.0655
     22 C17         1.4979   -9.4294    1.1457 C.ar      1 <0>        -0.1114
     23 C18         2.3500  -12.8228   -0.0893 C.1       1 <0>         0.2572
     24 N3          2.6277  -13.9243   -0.0979 N.1       1 <0>        -0.4218
     25 C19         3.6903    2.0710   -0.0226 C.3       1 <0>        -0.0931
     26 C20         3.6721    3.5542   -0.3976 C.3       1 <0>        -0.1780
     27 C21         4.2373    2.5242   -1.3777 C.3       1 <0>        -0.1661
     28 H1         -0.9522    1.9182    0.0259 H         1 <0>         0.1135
     29 H2          1.2145    3.1379    0.0070 H         1 <0>         0.1146
     30 H3         -0.9214   -0.5640    0.0078 H         1 <0>         0.1063
     31 H4          0.3037   -4.7519   -2.1595 H         1 <0>         0.1411
     32 H5          0.9063   -7.1368   -2.1879 H         1 <0>         0.1320
     33 H6          0.9288   -7.1645    2.0976 H         1 <0>         0.1320
     34 H7          0.3349   -4.7772    2.1064 H         1 <0>         0.1412
     35 H8          1.3570   -8.8812   -2.2021 H         1 <0>         0.1397
     36 H9          1.9580  -11.2630   -2.2229 H         1 <0>         0.1351
     37 H10         1.9628  -11.2952    2.0684 H         1 <0>         0.1351
     38 H11         1.3706   -8.9111    2.0846 H         1 <0>         0.1397
     39 H12         4.4112    1.7505    0.7295 H         1 <0>         0.1142
     40 H13         2.7072    4.0008   -0.6377 H         1 <0>         0.0979
     41 H14         4.3811    4.2098    0.1079 H         1 <0>         0.0935
     42 H15         5.3181    2.5022   -1.5170 H         1 <0>         0.0935
     43 H16         3.6442    2.2931   -2.2626 H         1 <0>         0.0930
@<TRIPOS>BOND
     1    1    6 ar
     2    1    2 ar
     3    1   28 1
     4    2    3 ar
     5    2   29 1
     6    3    4 ar
     7    3   25 1
     8    4    5 ar
     9    5    6 ar
    10    5    7 1
    11    6   30 1
    12    7    8 1
    13    8    9 2
    14    8   10 2
    15    8   11 1
    16   11   16 ar
    17   11   12 ar
    18   12   13 ar
    19   12   31 1
    20   13   14 ar
    21   13   32 1
    22   14   15 ar
    23   14   17 1
    24   15   16 ar
    25   15   33 1
    26   16   34 1
    27   17   22 ar
    28   17   18 ar
    29   18   19 ar
    30   18   35 1
    31   19   20 ar
    32   19   36 1
    33   20   21 ar
    34   20   23 1
    35   21   22 ar
    36   21   37 1
    37   22   38 1
    38   23   24 3
    39   25   27 1
    40   25   26 1
    41   25   39 1
    42   26   27 1
    43   26   40 1
    44   26   41 1
    45   27   42 1
    46   27   43 1
@<TRIPOS>MOLECULE
CHEMBL497105__2
   44    47     0     0     0
SMALL
USER_CHARGES

@<TRIPOS>ATOM
      1 C1          3.1849   -3.7203   -2.5889 C.ar      1 <0>        -0.0278
      2 C2          4.3022   -2.8954   -2.5954 C.ar      1 <0>        -0.1990
      3 C3          4.3494   -1.8143   -1.7387 C.ar      1 <0>         0.1999
      4 N1          3.3488   -1.5574   -0.9174 N.ar      1 <0>        -0.5051
      5 C4          2.2670   -2.3198   -0.8813 C.ar      1 <0>         0.3866
      6 C5          2.1522   -3.4260   -1.7174 C.ar      1 <0>        -0.2443
      7 N2          1.2366   -2.0123   -0.0004 N.pl3     1 <0>        -1.0350
      8 S1         -0.2006   -2.8300   -0.0895 S.o2      1 <0>         2.6935
      9 O1          0.1200   -4.2143   -0.1049 O.2       1 <0>        -0.9381
     10 O2         -1.0554   -2.2569    0.8904 O.2       1 <0>        -0.9354
     11 C6         -0.9138   -2.4608   -1.6578 C.ar      1 <0>        -0.6779
     12 C7         -1.6372   -1.2941   -1.8283 C.ar      1 <0>        -0.0098
     13 C8         -2.1980   -0.9997   -3.0544 C.ar      1 <0>        -0.1275
     14 C9         -2.0339   -1.8805   -4.1224 C.ar      1 <0>         0.0122
     15 C10        -1.3035   -3.0545   -3.9448 C.ar      1 <0>        -0.1264
     16 C11        -0.7432   -3.3360   -2.7155 C.ar      1 <0>        -0.0158
     17 C12        -2.6345   -1.5700   -5.4420 C.ar      1 <0>        -0.0340
     18 C13        -3.3603   -0.3917   -5.6175 C.ar      1 <0>        -0.1022
     19 C14        -3.9184   -0.1022   -6.8421 C.ar      1 <0>        -0.0676
     20 C15        -3.7571   -0.9892   -7.9101 C.ar      1 <0>        -0.0163
     21 C16        -3.0293   -2.1691   -7.7330 C.ar      1 <0>        -0.0677
     22 C17        -2.4682   -2.4537   -6.5086 C.ar      1 <0>        -0.1021
     23 C18        -4.3375   -0.6896   -9.1844 C.1       1 <0>         0.2466
     24 N3         -4.7979   -0.4519  -10.1954 N.1       1 <0>        -0.4045
     25 C19         5.5593   -0.9159   -1.7408 C.3       1 <0>        -0.1144
     26 C20         6.8318   -1.4462   -2.4043 C.3       1 <0>        -0.1699
     27 C21         6.7526   -1.3360   -0.8804 C.3       1 <0>        -0.1594
     28 H1          3.1220   -4.5699   -3.2527 H         1 <0>         0.1457
     29 H2          5.1260   -3.0980   -3.2638 H         1 <0>         0.1421
     30 H3          1.2688   -4.0464   -1.6861 H         1 <0>         0.1558
     31 H4          1.3595   -1.3187    0.6665 H         1 <0>         0.4348
     32 H5         -1.7636   -0.6125   -1.0002 H         1 <0>         0.1445
     33 H6         -2.7632   -0.0889   -3.1861 H         1 <0>         0.1411
     34 H7         -1.1735   -3.7406   -4.7686 H         1 <0>         0.1415
     35 H8         -0.1737   -4.2433   -2.5778 H         1 <0>         0.1480
     36 H9         -3.4848    0.2936   -4.7921 H         1 <0>         0.1401
     37 H10        -4.4808    0.8098   -6.9775 H         1 <0>         0.1394
     38 H11        -2.9042   -2.8556   -8.5573 H         1 <0>         0.1395
     39 H12        -1.9023   -3.3635   -6.3726 H         1 <0>         0.1403
     40 H13         5.3526    0.1508   -1.8283 H         1 <0>         0.1242
     41 H14         6.7939   -2.4449   -2.8393 H         1 <0>         0.1010
     42 H15         7.4626   -0.7285   -2.9288 H         1 <0>         0.1043
     43 H16         7.3313   -0.5457   -0.4022 H         1 <0>         0.1029
     44 H17         6.6626   -2.2622   -0.3128 H         1 <0>         0.0963
@<TRIPOS>BOND
     1    1    6 ar
     2    1    2 ar
     3    1   28 1
     4    2    3 ar
     5    2   29 1
     6    3    4 ar
     7    3   25 1
     8    4    5 ar
     9    5    6 ar
    10    5    7 1
    11    6   30 1
    12    7    8 1
    13    7   31 1
    14    8    9 2
    15    8   10 2
    16    8   11 1
    17   11   16 ar
    18   11   12 ar
    19   12   13 ar
    20   12   32 1
    21   13   14 ar
    22   13   33 1
    23   14   15 ar
    24   14   17 1
    25   15   16 ar
    26   15   34 1
    27   16   35 1
    28   17   22 ar
    29   17   18 ar
    30   18   19 ar
    31   18   36 1
    32   19   20 ar
    33   19   37 1
    34   20   21 ar
    35   20   23 1
    36   21   22 ar
    37   21   38 1
    38   22   39 1
    39   23   24 3
    40   25   27 1
    41   25   26 1
    42   25   40 1
    43   26   27 1
    44   26   41 1
    45   26   42 1
    46   27   43 1
    47   27   44 1
@<TRIPOS>MOLECULE
CHEMBL393079
   34    35     0     0     0
SMALL
USER_CHARGES

@<TRIPOS>ATOM
      1 C1         -0.0173    1.4248    0.0099 C.3       1 <0>         0.0248
      2 O1          0.0021   -0.0041    0.0020 O.3       1 <0>        -0.3129
      3 C2          0.6259   -0.6184    1.0416 C.ar      1 <0>         0.1190
      4 C3          1.2024    0.1410    2.0516 C.ar      1 <0>        -0.1724
      5 C4          1.8384   -0.4771    3.1126 C.ar      1 <0>        -0.0906
      6 C5          1.9055   -1.8534    3.1759 C.ar      1 <0>        -0.1089
      7 C6          1.3284   -2.6275    2.1644 C.ar      1 <0>        -0.1283
      8 C7          0.6811   -2.0001    1.0957 C.ar      1 <0>        -0.0887
      9 C8          1.3978   -4.0963    2.2270 C.2       1 <0>         0.4286
     10 O2          0.8964   -4.7649    1.3485 O.2       1 <0>        -0.4343
     11 C9          2.0919   -4.7692    3.3830 C.3       1 <0>        -0.6792
     12 S1          2.0087   -6.5692    3.1735 S.o2      1 <0>         2.5196
     13 O3          0.6668   -7.0164    3.3104 O.2       1 <0>        -0.9182
     14 O4          2.7955   -6.9691    2.0598 O.2       1 <0>        -0.9181
     15 C10         2.8474   -7.2276    4.5762 C.ar      1 <0>        -0.6652
     16 C11         4.2094   -7.4577    4.5220 C.ar      1 <0>        -0.0244
     17 C12         4.8674   -7.9743    5.6225 C.ar      1 <0>        -0.1387
     18 C13         4.1635   -8.2603    6.7773 C.ar      1 <0>        -0.0622
     19 C14         2.8017   -8.0294    6.8318 C.ar      1 <0>        -0.1387
     20 C15         2.1444   -7.5088    5.7328 C.ar      1 <0>        -0.0244
     21 H1          1.0053    1.8021    0.0021 H         1 <0>         0.0580
     22 H2         -0.5445    1.7859   -0.8732 H         1 <0>         0.1049
     23 H3         -0.5275    1.7763    0.9067 H         1 <0>         0.0580
     24 H4          1.1541    1.2190    2.0079 H         1 <0>         0.1364
     25 H5          2.2844    0.1198    3.8943 H         1 <0>         0.1362
     26 H6          2.4036   -2.3327    4.0057 H         1 <0>         0.1367
     27 H7          0.2292   -2.5916    0.3132 H         1 <0>         0.1474
     28 H8          3.1351   -4.4548    3.4133 H         1 <0>         0.1719
     29 H9          1.6007   -4.4889    4.3148 H         1 <0>         0.1719
     30 H10         4.7593   -7.2342    3.6198 H         1 <0>         0.1436
     31 H11         5.9314   -8.1547    5.5799 H         1 <0>         0.1356
     32 H12         4.6775   -8.6646    7.6369 H         1 <0>         0.1333
     33 H13         2.2517   -8.2532    7.7339 H         1 <0>         0.1356
     34 H14         1.0811   -7.3249    5.7766 H         1 <0>         0.1437
@<TRIPOS>BOND
     1    1    2 1
     2    1   21 1
     3    1   22 1
     4    1   23 1
     5    2    3 1
     6    3    8 ar
     7    3    4 ar
     8    4    5 ar
     9    4   24 1
    10    5    6 ar
    11    5   25 1
    12    6    7 ar
    13    6   26 1
    14    7    8 ar
    15    7    9 1
    16    8   27 1
    17    9   10 2
    18    9   11 1
    19   11   12 1
    20   11   28 1
    21   11   29 1
    22   12   13 2
    23   12   14 2
    24   12   15 1
    25   15   20 ar
    26   15   16 ar
    27   16   17 ar
    28   16   30 1
    29   17   18 ar
    30   17   31 1
    31   18   19 ar
    32   18   32 1
    33   19   20 ar
    34   19   33 1
    35   20   34 1
@<TRIPOS>MOLECULE
CHEMBL464387
   55    58     0     0     0
SMALL
USER_CHARGES

@<TRIPOS>ATOM
      1 C1         -0.7961    1.1619    1.0001 C.3       1 <0>        -0.1606
      2 C2         -0.6591   -0.3438    0.7658 C.3       1 <0>         0.1866
      3 H1          0.0100   -0.5211   -0.0762 H         1 <0>         0.1141
      4 C3         -0.0945   -0.9952    2.0019 C.ar      1 <0>        -0.1127
      5 C4         -0.9217   -1.2773    3.0731 C.ar      1 <0>        -0.0870
      6 C5         -0.4051   -1.8751    4.2070 C.ar      1 <0>        -0.1468
      7 C6          0.9413   -2.1915    4.2699 C.ar      1 <0>         0.1068
      8 C7          1.7688   -1.9085    3.1965 C.ar      1 <0>        -0.1466
      9 C8          1.2490   -1.3155    2.0615 C.ar      1 <0>        -0.0708
     10 F1          1.4475   -2.7755    5.3781 F         1 <0>        -0.1350
     11 N1         -1.9761   -0.9140    0.4715 N.pl3     1 <0>        -0.6364
     12 C9         -2.4593   -0.8918   -0.8037 C.2       1 <0>         0.4766
     13 N2         -1.8610   -0.4008   -1.8733 N.2       1 <0>        -0.6867
     14 C10        -2.3794   -0.4096   -3.0752 C.2       1 <0>         0.5507
     15 O1         -1.8187    0.0453   -4.0531 O.2       1 <0>        -0.4483
     16 C11        -3.7614   -1.0519   -3.1174 C.3       1 <0>        -0.0636
     17 S1         -3.9381   -1.4914   -1.3393 S.3       1 <0>        -0.0804
     18 C12        -3.7708   -2.3012   -4.0006 C.3       1 <0>        -0.1249
     19 C13        -4.8142   -0.0657   -3.5535 C.ar      1 <0>        -0.0383
     20 C14        -5.5725   -0.3218   -4.6820 C.ar      1 <0>        -0.0990
     21 C15        -6.5378    0.5769   -5.0866 C.ar      1 <0>        -0.0585
     22 C16        -6.7486    1.7466   -4.3548 C.ar      1 <0>        -0.1216
     23 C17        -5.9801    1.9988   -3.2172 C.ar      1 <0>        -0.0857
     24 C18        -5.0219    1.0891   -2.8203 C.ar      1 <0>        -0.1037
     25 C19        -7.7811    2.7144   -4.7829 C.2       1 <0>         0.5642
     26 O2         -8.8361    2.3165   -5.2368 O.2       1 <0>        -0.5272
     27 N3         -7.5524    4.0378   -4.6698 N.am      1 <0>        -0.6117
     28 C20        -6.2369    4.5460   -4.2497 C.3       1 <0>         0.0617
     29 C21        -5.7885    5.6146   -5.2531 C.3       1 <0>         0.0458
     30 O3         -6.8267    6.5862   -5.4015 O.3       1 <0>        -0.3774
     31 C22        -8.0467    6.0628   -5.9320 C.3       1 <0>         0.0470
     32 C23        -8.6091    5.0173   -4.9688 C.3       1 <0>         0.0762
     33 H2          0.1838    1.5862    1.2191 H         1 <0>         0.0787
     34 H3         -1.2044    1.6331    0.1061 H         1 <0>         0.0720
     35 H4         -1.4652    1.3393    1.8421 H         1 <0>         0.0633
     36 H5         -1.9718   -1.0301    3.0239 H         1 <0>         0.1304
     37 H6         -1.0514   -2.0950    5.0438 H         1 <0>         0.1406
     38 H7          2.8193   -2.1546    3.2446 H         1 <0>         0.1417
     39 H8          1.8933   -1.0987    1.2224 H         1 <0>         0.1395
     40 H9         -2.5045   -1.3072    1.1836 H         1 <0>         0.4242
     41 H10        -3.0539   -3.0253   -3.6135 H         1 <0>         0.0762
     42 H11        -4.7683   -2.7406   -3.9980 H         1 <0>         0.0832
     43 H12        -3.4968   -2.0278   -5.0196 H         1 <0>         0.0919
     44 H13        -5.4082   -1.2270   -5.2476 H         1 <0>         0.1415
     45 H14        -7.1289    0.3761   -5.9680 H         1 <0>         0.1397
     46 H15        -6.1383    2.9020   -2.6466 H         1 <0>         0.1365
     47 H16        -4.4296    1.2810   -1.9378 H         1 <0>         0.1257
     48 H17        -6.3137    4.9855   -3.2552 H         1 <0>         0.0824
     49 H18        -5.5151    3.7294   -4.2360 H         1 <0>         0.1045
     50 H19        -4.8843    6.1010   -4.8873 H         1 <0>         0.1102
     51 H20        -5.5869    5.1472   -6.2170 H         1 <0>         0.0586
     52 H21        -8.7670    6.8716   -6.0545 H         1 <0>         0.1103
     53 H22        -7.8533    5.5970   -6.8983 H         1 <0>         0.0576
     54 H23        -9.4574    4.5126   -5.4310 H         1 <0>         0.1048
     55 H24        -8.9287    5.5050   -4.0479 H         1 <0>         0.0797
@<TRIPOS>BOND
     1    1    2 1
     2    1   33 1
     3    1   34 1
     4    1   35 1
     5    2    3 1
     6    2    4 1
     7    2   11 1
     8    4    9 ar
     9    4    5 ar
    10    5    6 ar
    11    5   36 1
    12    6    7 ar
    13    6   37 1
    14    7    8 ar
    15    7   10 1
    16    8    9 ar
    17    8   38 1
    18    9   39 1
    19   11   12 1
    20   11   40 1
    21   12   17 1
    22   12   13 2
    23   13   14 1
    24   14   15 2
    25   14   16 1
    26   16   17 1
    27   16   18 1
    28   16   19 1
    29   18   41 1
    30   18   42 1
    31   18   43 1
    32   19   24 ar
    33   19   20 ar
    34   20   21 ar
    35   20   44 1
    36   21   22 ar
    37   21   45 1
    38   22   23 ar
    39   22   25 1
    40   23   24 ar
    41   23   46 1
    42   24   47 1
    43   25   26 2
    44   25   27 am
    45   27   32 1
    46   27   28 1
    47   28   29 1
    48   28   48 1
    49   28   49 1
    50   29   30 1
    51   29   50 1
    52   29   51 1
    53   30   31 1
    54   31   32 1
    55   31   52 1
    56   31   53 1
    57   32   54 1
    58   32   55 1
@<TRIPOS>MOLECULE
CHEMBL464387__1
   54    57     0     0     0
SMALL
USER_CHARGES

@<TRIPOS>ATOM
      1 C1         -0.5484    0.8727    0.9059 C.3       1 <0>        -0.1528
      2 C2         -0.5518   -0.6369    0.6568 C.3       1 <0>         0.1424
      3 H1          0.0983   -0.8673   -0.1873 H         1 <0>         0.0525
      4 C3         -0.0506   -1.3500    1.8862 C.ar      1 <0>        -0.0511
      5 C4         -0.9008   -1.5645    2.9550 C.ar      1 <0>        -0.0599
      6 C5         -0.4425   -2.2187    4.0827 C.ar      1 <0>        -0.1592
      7 C6          0.8688   -2.6594    4.1418 C.ar      1 <0>         0.0771
      8 C7          1.7194   -2.4440    3.0708 C.ar      1 <0>        -0.1574
      9 C8          1.2573   -1.7942    1.9420 C.ar      1 <0>        -0.0951
     10 F1          1.3180   -3.2987    5.2440 F         1 <0>        -0.1495
     11 N1         -1.9159   -1.0794    0.3576 N.2       1 <0>        -0.5982
     12 C9         -2.5787   -0.5665   -0.7184 C.2       1 <0>         0.3980
     13 N2         -2.1265    0.3248   -1.5811 N.2       1 <0>        -0.7429
     14 C10        -2.8144    0.7793   -2.5977 C.2       1 <0>         0.5335
     15 O1         -2.3872    1.6000   -3.3862 O.2       1 <0>        -0.5529
     16 C11        -4.2085    0.1688   -2.6875 C.3       1 <0>        -0.0807
     17 S1         -4.1389   -0.9447   -1.2242 S.3       1 <0>        -0.1600
     18 C12        -4.3882   -0.6273   -3.9816 C.3       1 <0>        -0.1111
     19 C13        -5.2800    1.2178   -2.5372 C.ar      1 <0>        -0.0010
     20 C14        -6.2028    1.4098   -3.5501 C.ar      1 <0>        -0.1162
     21 C15        -7.1862    2.3684   -3.4189 C.ar      1 <0>        -0.0621
     22 C16        -7.2489    3.1455   -2.2612 C.ar      1 <0>        -0.1460
     23 C17        -6.3149    2.9467   -1.2432 C.ar      1 <0>        -0.0881
     24 C18        -5.3400    1.9809   -1.3846 C.ar      1 <0>        -0.1018
     25 C19        -8.2998    4.1750   -2.1140 C.2       1 <0>         0.5710
     26 O2         -9.4224    3.9610   -2.5281 O.2       1 <0>        -0.5373
     27 N3         -8.0130    5.3506   -1.5207 N.am      1 <0>        -0.6139
     28 C20        -6.6341    5.6864   -1.1318 C.3       1 <0>         0.0616
     29 C21        -6.3011    7.0773   -1.6837 C.3       1 <0>         0.0465
     30 O3         -7.3168    7.9991   -1.2806 O.3       1 <0>        -0.3802
     31 C22        -8.6178    7.6959   -1.7896 C.3       1 <0>         0.0481
     32 C23        -9.0686    6.3390   -1.2483 C.3       1 <0>         0.0770
     33 H2          0.4665    1.2019    1.1285 H         1 <0>         0.0389
     34 H3         -0.9109    1.3884    0.0167 H         1 <0>         0.0834
     35 H4         -1.1985    1.1031    1.7499 H         1 <0>         0.0428
     36 H5         -1.9235   -1.2204    2.9087 H         1 <0>         0.1362
     37 H6         -1.1068   -2.3859    4.9177 H         1 <0>         0.1284
     38 H7          2.7424   -2.7870    3.1159 H         1 <0>         0.1282
     39 H8          1.9193   -1.6300    1.1046 H         1 <0>         0.1272
     40 H9         -3.6472   -1.4256   -4.0230 H         1 <0>         0.0660
     41 H10        -5.3889   -1.0588   -4.0068 H         1 <0>         0.0642
     42 H11        -4.2566    0.0353   -4.8371 H         1 <0>         0.0723
     43 H12        -6.1529    0.8081   -4.4456 H         1 <0>         0.1345
     44 H13        -7.9057    2.5175   -4.2104 H         1 <0>         0.1300
     45 H14        -6.3580    3.5447   -0.3449 H         1 <0>         0.1289
     46 H15        -4.6194    1.8230   -0.5958 H         1 <0>         0.1295
     47 H16        -6.5504    5.6930   -0.0451 H         1 <0>         0.0808
     48 H17        -5.9457    4.9515   -1.5491 H         1 <0>         0.1100
     49 H18        -5.3375    7.4032   -1.2922 H         1 <0>         0.1099
     50 H19        -6.2578    7.0363   -2.7721 H         1 <0>         0.0581
     51 H20        -9.3209    8.4668   -1.4744 H         1 <0>         0.1064
     52 H21        -8.5829    7.6571   -2.8784 H         1 <0>         0.0558
     53 H22        -9.9916    6.0361   -1.7426 H         1 <0>         0.1022
     54 H23        -9.2342    6.4124   -0.1735 H         1 <0>         0.0763
@<TRIPOS>BOND
     1    1    2 1
     2    1   33 1
     3    1   34 1
     4    1   35 1
     5    2    3 1
     6    2    4 1
     7    2   11 1
     8    4    9 ar
     9    4    5 ar
    10    5    6 ar
    11    5   36 1
    12    6    7 ar
    13    6   37 1
    14    7    8 ar
    15    7   10 1
    16    8    9 ar
    17    8   38 1
    18    9   39 1
    19   11   12 1
    20   12   17 1
    21   12   13 2
    22   13   14 1
    23   14   15 2
    24   14   16 1
    25   16   17 1
    26   16   18 1
    27   16   19 1
    28   18   40 1
    29   18   41 1
    30   18   42 1
    31   19   24 ar
    32   19   20 ar
    33   20   21 ar
    34   20   43 1
    35   21   22 ar
    36   21   44 1
    37   22   23 ar
    38   22   25 1
    39   23   24 ar
    40   23   45 1
    41   24   46 1
    42   25   26 2
    43   25   27 am
    44   27   32 1
    45   27   28 1
    46   28   29 1
    47   28   47 1
    48   28   48 1
    49   29   30 1
    50   29   49 1
    51   29   50 1
    52   30   31 1
    53   31   32 1
    54   31   51 1
    55   31   52 1
    56   32   53 1
    57   32   54 1
@<TRIPOS>MOLECULE
CHEMBL464387__2
   55    58     0     0     0
SMALL
USER_CHARGES

@<TRIPOS>ATOM
      1 C1          0.4061    1.8007   -0.7804 C.3       1 <0>        -0.1609
      2 C2          0.5567    0.2798   -0.8524 C.3       1 <0>         0.1867
      3 H1          0.8918   -0.0053   -1.8496 H         1 <0>         0.1139
      4 C3          1.5700   -0.1734    0.1668 C.ar      1 <0>        -0.1124
      5 C4          1.2021   -0.3124    1.4922 C.ar      1 <0>        -0.0870
      6 C5          2.1303   -0.7284    2.4276 C.ar      1 <0>        -0.1468
      7 C6          3.4293   -1.0061    2.0370 C.ar      1 <0>         0.1067
      8 C7          3.7967   -0.8666    0.7094 C.ar      1 <0>        -0.1465
      9 C8          2.8654   -0.4555   -0.2252 C.ar      1 <0>        -0.0709
     10 F1          4.3378   -1.4125    2.9507 F         1 <0>        -0.1350
     11 N1         -0.7347   -0.3525   -0.5717 N.pl3     1 <0>        -0.6366
     12 C9         -1.6416   -0.5258   -1.5756 C.2       1 <0>         0.4766
     13 N2         -1.5010   -0.1845   -2.8432 N.2       1 <0>        -0.6861
     14 C10        -2.4123   -0.3783   -3.7625 C.2       1 <0>         0.5495
     15 O1         -2.2714   -0.0600   -4.9272 O.2       1 <0>        -0.4463
     16 C11        -3.6691   -1.0466   -3.2164 C.3       1 <0>        -0.0629
     17 S1         -3.1676   -1.2256   -1.4550 S.3       1 <0>        -0.0819
     18 C12        -4.8935   -0.1414   -3.3654 C.3       1 <0>        -0.1243
     19 C13        -3.9011   -2.3907   -3.8572 C.ar      1 <0>        -0.0390
     20 C14        -5.0710   -2.6273   -4.5569 C.ar      1 <0>        -0.0988
     21 C15        -5.2896   -3.8555   -5.1459 C.ar      1 <0>        -0.0588
     22 C16        -4.3275   -4.8605   -5.0347 C.ar      1 <0>        -0.1212
     23 C17        -3.1495   -4.6152   -4.3273 C.ar      1 <0>        -0.0858
     24 C18        -2.9408   -3.3808   -3.7479 C.ar      1 <0>        -0.1034
     25 C19        -4.5553   -6.1793   -5.6629 C.2       1 <0>         0.5639
     26 O2         -5.1019   -6.2501   -6.7463 O.2       1 <0>        -0.5260
     27 N3         -4.1571   -7.3031   -5.0343 N.am      1 <0>        -0.6121
     28 C20        -3.6155   -7.2547   -3.6670 C.3       1 <0>         0.0616
     29 C21        -4.3585   -8.2907   -2.8157 C.3       1 <0>         0.0463
     30 O3         -4.3125   -9.5598   -3.4724 O.3       1 <0>        -0.3775
     31 C22        -4.9635   -9.5843   -4.7449 C.3       1 <0>         0.0475
     32 C23        -4.2567   -8.6152   -5.6928 C.3       1 <0>         0.0759
     33 H2          1.3669    2.2712   -0.9891 H         1 <0>         0.0786
     34 H3         -0.3268    2.1286   -1.5175 H         1 <0>         0.0723
     35 H4          0.0710    2.0859    0.2169 H         1 <0>         0.0633
     36 H5          0.1888   -0.0953    1.7967 H         1 <0>         0.1305
     37 H6          1.8427   -0.8365    3.4630 H         1 <0>         0.1406
     38 H7          4.8098   -1.0827    0.4036 H         1 <0>         0.1417
     39 H8          3.1505   -0.3509   -1.2616 H         1 <0>         0.1394
     40 H9         -0.9447   -0.6480    0.3280 H         1 <0>         0.4241
     41 H10        -5.0600    0.0739   -4.4208 H         1 <0>         0.0920
     42 H11        -5.7691   -0.6441   -2.9546 H         1 <0>         0.0830
     43 H12        -4.7239    0.7909   -2.8267 H         1 <0>         0.0760
     44 H13        -5.8148   -1.8489   -4.6420 H         1 <0>         0.1415
     45 H14        -6.2034   -4.0391   -5.6916 H         1 <0>         0.1398
     46 H15        -2.4011   -5.3887   -4.2375 H         1 <0>         0.1365
     47 H16        -2.0278   -3.1882   -3.2040 H         1 <0>         0.1259
     48 H17        -2.5513   -7.4897   -3.6851 H         1 <0>         0.0822
     49 H18        -3.7651   -6.2598   -3.2478 H         1 <0>         0.1047
     50 H19        -3.8816   -8.3688   -1.8387 H         1 <0>         0.1096
     51 H20        -5.3967   -7.9826   -2.6913 H         1 <0>         0.0579
     52 H21        -4.9219  -10.5930   -5.1558 H         1 <0>         0.1104
     53 H22        -6.0039   -9.2809   -4.6275 H         1 <0>         0.0575
     54 H23        -4.8308   -8.5208   -6.6145 H         1 <0>         0.1049
     55 H24        -3.2582   -8.9895   -5.9184 H         1 <0>         0.0797
@<TRIPOS>BOND
     1    1    2 1
     2    1   33 1
     3    1   34 1
     4    1   35 1
     5    2    3 1
     6    2    4 1
     7    2   11 1
     8    4    9 ar
     9    4    5 ar
    10    5    6 ar
    11    5   36 1
    12    6    7 ar
    13    6   37 1
    14    7    8 ar
    15    7   10 1
    16    8    9 ar
    17    8   38 1
    18    9   39 1
    19   11   12 1
    20   11   40 1
    21   12   17 1
    22   12   13 2
    23   13   14 1
    24   14   15 2
    25   14   16 1
    26   16   17 1
    27   16   18 1
    28   16   19 1
    29   18   41 1
    30   18   42 1
    31   18   43 1
    32   19   24 ar
    33   19   20 ar
    34   20   21 ar
    35   20   44 1
    36   21   22 ar
    37   21   45 1
    38   22   23 ar
    39   22   25 1
    40   23   24 ar
    41   23   46 1
    42   24   47 1
    43   25   26 2
    44   25   27 am
    45   27   32 1
    46   27   28 1
    47   28   29 1
    48   28   48 1
    49   28   49 1
    50   29   30 1
    51   29   50 1
    52   29   51 1
    53   30   31 1
    54   31   32 1
    55   31   52 1
    56   31   53 1
    57   32   54 1
    58   32   55 1
@<TRIPOS>MOLECULE
CHEMBL464387__3
   54    57     0     0     0
SMALL
USER_CHARGES

@<TRIPOS>ATOM
      1 C1          0.1764    2.1147   -0.6348 C.3       1 <0>        -0.1533
      2 C2          0.4355    0.6106   -0.7413 C.3       1 <0>         0.1426
      3 H1          0.8403    0.3805   -1.7268 H         1 <0>         0.0523
      4 C3          1.4242    0.1950    0.3174 C.ar      1 <0>        -0.0508
      5 C4          0.9992   -0.0105    1.6168 C.ar      1 <0>        -0.0599
      6 C5          1.9048   -0.3921    2.5884 C.ar      1 <0>        -0.1592
      7 C6          3.2383   -0.5686    2.2600 C.ar      1 <0>         0.0770
      8 C7          3.6628   -0.3626    0.9583 C.ar      1 <0>        -0.1573
      9 C8          2.7544    0.0138   -0.0127 C.ar      1 <0>        -0.0952
     10 F1          4.1246   -0.9413    3.2092 F         1 <0>        -0.1495
     11 N1         -0.8216   -0.1164   -0.5478 N.2       1 <0>        -0.5988
     12 C9         -1.8703    0.0980   -1.3931 C.2       1 <0>         0.3983
     13 N2         -1.9045    0.9179   -2.4273 N.2       1 <0>        -0.7430
     14 C10        -2.9460    1.0798   -3.2035 C.2       1 <0>         0.5327
     15 O1         -2.9657    1.8378   -4.1536 O.2       1 <0>        -0.5511
     16 C11        -4.1315    0.2155   -2.7886 C.3       1 <0>        -0.0803
     17 S1         -3.3851   -0.6337   -1.3368 S.3       1 <0>        -0.1608
     18 C12        -5.3336    1.0716   -2.3851 C.3       1 <0>        -0.1106
     19 C13        -4.4992   -0.7699   -3.8679 C.ar      1 <0>        -0.0016
     20 C14        -5.7658   -0.7415   -4.4240 C.ar      1 <0>        -0.1160
     21 C15        -6.1088   -1.6408   -5.4124 C.ar      1 <0>        -0.0624
     22 C16        -5.1748   -2.5807   -5.8511 C.ar      1 <0>        -0.1458
     23 C17        -3.8988   -2.6039   -5.2859 C.ar      1 <0>        -0.0883
     24 C18        -3.5668   -1.6954   -4.3023 C.ar      1 <0>        -0.1015
     25 C19        -5.5357   -3.5477   -6.9096 C.2       1 <0>         0.5707
     26 O2         -6.2363   -3.1978   -7.8393 O.2       1 <0>        -0.5364
     27 N3         -5.0879   -4.8172   -6.8437 N.am      1 <0>        -0.6144
     28 C20        -4.3516   -5.3005   -5.6649 C.3       1 <0>         0.0616
     29 C21        -4.9970   -6.6091   -5.1948 C.3       1 <0>         0.0469
     30 O3         -5.0895   -7.5117   -6.2995 O.3       1 <0>        -0.3803
     31 C22        -5.9194   -7.0473   -7.3669 C.3       1 <0>         0.0485
     32 C23        -5.3262   -5.7627   -7.9458 C.3       1 <0>         0.0767
     33 H2          1.1117    2.6556   -0.7787 H         1 <0>         0.0388
     34 H3         -0.5387    2.4153   -1.4005 H         1 <0>         0.0835
     35 H4         -0.2284    2.3448    0.3508 H         1 <0>         0.0429
     36 H5         -0.0409    0.1277    1.8727 H         1 <0>         0.1363
     37 H6          1.5727   -0.5521    3.6035 H         1 <0>         0.1284
     38 H7          4.7027   -0.4998    0.7011 H         1 <0>         0.1281
     39 H8          3.0844    0.1703   -1.0291 H         1 <0>         0.1271
     40 H9         -5.6447    1.6833   -3.2319 H         1 <0>         0.0726
     41 H10        -6.1564    0.4234   -2.0834 H         1 <0>         0.0640
     42 H11        -5.0563    1.7179   -1.5524 H         1 <0>         0.0659
     43 H12        -6.4876   -0.0140   -4.0834 H         1 <0>         0.1345
     44 H13        -7.0979   -1.6178   -5.8454 H         1 <0>         0.1300
     45 H14        -3.1716   -3.3287   -5.6210 H         1 <0>         0.1289
     46 H15        -2.5785   -1.7094   -3.8672 H         1 <0>         0.1297
     47 H16        -3.3099   -5.4797   -5.9308 H         1 <0>         0.0806
     48 H17        -4.4053   -4.5580   -4.8687 H         1 <0>         0.1103
     49 H18        -4.3857   -7.0552   -4.4103 H         1 <0>         0.1097
     50 H19        -5.9950   -6.4043   -4.8074 H         1 <0>         0.0575
     51 H20        -5.9718   -7.8086   -8.1451 H         1 <0>         0.1064
     52 H21        -6.9208   -6.8440   -6.9874 H         1 <0>         0.0557
     53 H22        -6.0250   -5.3261   -8.6594 H         1 <0>         0.1022
     54 H23        -4.3843   -5.9892   -8.4453 H         1 <0>         0.0762
@<TRIPOS>BOND
     1    1    2 1
     2    1   33 1
     3    1   34 1
     4    1   35 1
     5    2    3 1
     6    2    4 1
     7    2   11 1
     8    4    9 ar
     9    4    5 ar
    10    5    6 ar
    11    5   36 1
    12    6    7 ar
    13    6   37 1
    14    7    8 ar
    15    7   10 1
    16    8    9 ar
    17    8   38 1
    18    9   39 1
    19   11   12 1
    20   12   17 1
    21   12   13 2
    22   13   14 1
    23   14   15 2
    24   14   16 1
    25   16   17 1
    26   16   18 1
    27   16   19 1
    28   18   40 1
    29   18   41 1
    30   18   42 1
    31   19   24 ar
    32   19   20 ar
    33   20   21 ar
    34   20   43 1
    35   21   22 ar
    36   21   44 1
    37   22   23 ar
    38   22   25 1
    39   23   24 ar
    40   23   45 1
    41   24   46 1
    42   25   26 2
    43   25   27 am
    44   27   32 1
    45   27   28 1
    46   28   29 1
    47   28   47 1
    48   28   48 1
    49   29   30 1
    50   29   49 1
    51   29   50 1
    52   30   31 1
    53   31   32 1
    54   31   51 1
    55   31   52 1
    56   32   53 1
    57   32   54 1
@<TRIPOS>MOLECULE
CHEMBL255002
   41    43     0     0     0
SMALL
USER_CHARGES

@<TRIPOS>ATOM
      1 C1          0.2663    0.7190   -0.5990 C.ar      1 <0>        -0.1197
      2 C2          1.4662    1.4035   -0.6500 C.ar      1 <0>        -0.1208
      3 C3          2.6590    0.7188   -0.5116 C.ar      1 <0>        -0.1157
      4 C4          2.6520   -0.6505   -0.3218 C.ar      1 <0>        -0.0786
      5 C5          1.4521   -1.3349   -0.2699 C.ar      1 <0>        -0.0975
      6 C6          0.2593   -0.6503   -0.4097 C.ar      1 <0>        -0.1204
      7 C7          3.9524   -1.3971   -0.1719 C.3       1 <0>         0.0943
      8 N1          4.3262   -1.4494    1.2478 N.3       1 <0>        -0.5286
      9 C8          4.6245   -0.1066    1.7634 C.3       1 <0>         0.0371
     10 C9          4.8315   -0.1797    3.2800 C.3       1 <0>         0.1549
     11 N2          5.8559   -1.1964    3.5632 N.pl3     1 <0>        -0.6717
     12 C10         5.6958   -2.5308    2.9658 C.3       1 <0>         0.1542
     13 C11         5.4548   -2.3651    1.4616 C.3       1 <0>         0.0409
     14 C12         6.9463   -0.9039    4.3742 C.ar      1 <0>         0.4342
     15 C13         6.8624   -1.1190    5.7463 C.ar      1 <0>        -0.2409
     16 C14         7.9547   -0.8236    6.5413 C.ar      1 <0>        -0.0225
     17 C15         9.0990   -0.3211    5.9355 C.ar      1 <0>        -0.1803
     18 C16         9.1128   -0.1324    4.5683 C.ar      1 <0>         0.1422
     19 N3          8.0573   -0.4282    3.8335 N.ar      1 <0>        -0.4927
     20 C17         5.5982   -1.6659    6.3577 C.3       1 <0>         0.5227
     21 F1          5.7650   -1.7895    7.7412 F         1 <0>        -0.1797
     22 F2          4.5367   -0.7942    6.0921 F         1 <0>        -0.1709
     23 F3          5.3194   -2.9215    5.8075 F         1 <0>        -0.1710
     24 H1         -0.6658    1.2546   -0.7027 H         1 <0>         0.1207
     25 H2          1.4717    2.4733   -0.7984 H         1 <0>         0.1209
     26 H3          3.5965    1.2535   -0.5522 H         1 <0>         0.1173
     27 H4          1.4466   -2.4047   -0.1219 H         1 <0>         0.1222
     28 H5         -0.6782   -1.1851   -0.3695 H         1 <0>         0.1218
     29 H6          3.8354   -2.4111   -0.5544 H         1 <0>         0.0843
     30 H7          4.7327   -0.8844   -0.7345 H         1 <0>         0.0427
     31 H8          5.5307    0.2717    1.2904 H         1 <0>         0.0387
     32 H9          3.7921    0.5613    1.5417 H         1 <0>         0.0875
     33 H10         5.1649    0.7894    3.6512 H         1 <0>         0.0706
     34 H11         3.8955   -0.4582    3.7643 H         1 <0>         0.0702
     35 H12         6.6007   -3.1161    3.1293 H         1 <0>         0.0718
     36 H13         4.8430   -3.0353    3.4199 H         1 <0>         0.0708
     37 H14         5.2246   -3.3352    1.0211 H         1 <0>         0.0836
     38 H15         6.3495   -1.9554    0.9928 H         1 <0>         0.0403
     39 H16         7.9187   -0.9799    7.6094 H         1 <0>         0.1510
     40 H17         9.9690   -0.0800    6.5283 H         1 <0>         0.1495
     41 H18        10.0004    0.2585    4.0932 H         1 <0>         0.1665
@<TRIPOS>BOND
     1    1    6 ar
     2    1    2 ar
     3    1   24 1
     4    2    3 ar
     5    2   25 1
     6    3    4 ar
     7    3   26 1
     8    4    5 ar
     9    4    7 1
    10    5    6 ar
    11    5   27 1
    12    6   28 1
    13    7    8 1
    14    7   29 1
    15    7   30 1
    16    8   13 1
    17    8    9 1
    18    9   10 1
    19    9   31 1
    20    9   32 1
    21   10   11 1
    22   10   33 1
    23   10   34 1
    24   11   12 1
    25   11   14 1
    26   12   13 1
    27   12   35 1
    28   12   36 1
    29   13   37 1
    30   13   38 1
    31   14   19 ar
    32   14   15 ar
    33   15   16 ar
    34   15   20 1
    35   16   17 ar
    36   16   39 1
    37   17   18 ar
    38   17   40 1
    39   18   19 ar
    40   18   41 1
    41   20   21 1
    42   20   22 1
    43   20   23 1
@<TRIPOS>MOLECULE
CHEMBL255002__1
   42    44     0     0     0
SMALL
USER_CHARGES

@<TRIPOS>ATOM
      1 C1          0.2985    0.7200   -0.6323 C.ar      1 <0>        -0.0838
      2 C2          1.4955    1.4102   -0.6713 C.ar      1 <0>        -0.1133
      3 C3          2.6903    0.7306   -0.5247 C.ar      1 <0>        -0.0979
      4 C4          2.6880   -0.6392   -0.3385 C.ar      1 <0>        -0.1619
      5 C5          1.4908   -1.3292   -0.2985 C.ar      1 <0>        -0.0930
      6 C6          0.2961   -0.6498   -0.4466 C.ar      1 <0>        -0.1126
      7 C7          3.9905   -1.3802   -0.1796 C.3       1 <0>         0.0454
      8 N1          4.3526   -1.4346    1.2430 N.4       1 <0>        -0.3796
      9 C8          4.6055   -0.0741    1.7342 C.3       1 <0>        -0.0267
     10 C9          4.8708   -0.1178    3.2427 C.3       1 <0>         0.1240
     11 N2          5.9647   -1.0682    3.4964 N.pl3     1 <0>        -0.6711
     12 C10         5.8694   -2.4100    2.9010 C.3       1 <0>         0.1219
     13 C11         5.5570   -2.2581    1.4086 C.3       1 <0>        -0.0215
     14 C12         7.0572   -0.7086    4.2770 C.ar      1 <0>         0.4096
     15 C13         7.0253   -0.9282    5.6506 C.ar      1 <0>        -0.2318
     16 C14         8.1191   -0.5656    6.4153 C.ar      1 <0>        -0.0183
     17 C15         9.2126    0.0066    5.7784 C.ar      1 <0>        -0.1616
     18 C16         9.1765    0.1955    4.4116 C.ar      1 <0>         0.1461
     19 N3          8.1210   -0.1652    3.7062 N.ar      1 <0>        -0.4891
     20 C17         5.8150   -1.5522    6.2964 C.3       1 <0>         0.5215
     21 F1          6.0278   -1.6650    7.6745 F         1 <0>        -0.1706
     22 F2          4.6946   -0.7479    6.0619 F         1 <0>        -0.1746
     23 F3          5.5991   -2.8228    5.7523 F         1 <0>        -0.1747
     24 H1         -0.6352    1.2516   -0.7423 H         1 <0>         0.1359
     25 H2          1.4974    2.4804   -0.8168 H         1 <0>         0.1361
     26 H3          3.6256    1.2697   -0.5559 H         1 <0>         0.1307
     27 H4          1.4890   -2.3994   -0.1534 H         1 <0>         0.1313
     28 H5         -0.6391   -1.1889   -0.4157 H         1 <0>         0.1362
     29 H6          3.8814   -2.3937   -0.5657 H         1 <0>         0.1374
     30 H7          4.7731   -0.8625   -0.7342 H         1 <0>         0.1350
     31 H8          5.4750    0.3406    1.2241 H         1 <0>         0.1341
     32 H9          3.7352    0.5515    1.5362 H         1 <0>         0.1391
     33 H10         5.1583    0.8735    3.5929 H         1 <0>         0.1159
     34 H11         3.9716   -0.4470    3.7633 H         1 <0>         0.0888
     35 H12         6.8170   -2.9340    3.0253 H         1 <0>         0.1171
     36 H13         5.0710   -2.9706    3.3871 H         1 <0>         0.0895
     37 H14         5.3877   -3.2418    0.9708 H         1 <0>         0.1399
     38 H15         6.3976   -1.7772    0.9084 H         1 <0>         0.1350
     39 H16         8.1227   -0.7236    7.4836 H         1 <0>         0.1579
     40 H17        10.0823    0.3012    6.3469 H         1 <0>         0.1577
     41 H18        10.0245    0.6405    3.9125 H         1 <0>         0.1745
     42 H19         3.5929   -1.8428    1.7668 H         1 <0>         0.4215
@<TRIPOS>BOND
     1    1    6 ar
     2    1    2 ar
     3    1   24 1
     4    2    3 ar
     5    2   25 1
     6    3    4 ar
     7    3   26 1
     8    4    5 ar
     9    4    7 1
    10    5    6 ar
    11    5   27 1
    12    6   28 1
    13    7    8 1
    14    7   29 1
    15    7   30 1
    16    8   13 1
    17    8    9 1
    18    8   42 1
    19    9   10 1
    20    9   31 1
    21    9   32 1
    22   10   11 1
    23   10   33 1
    24   10   34 1
    25   11   12 1
    26   11   14 1
    27   12   13 1
    28   12   35 1
    29   12   36 1
    30   13   37 1
    31   13   38 1
    32   14   19 ar
    33   14   15 ar
    34   15   16 ar
    35   15   20 1
    36   16   17 ar
    37   16   39 1
    38   17   18 ar
    39   17   40 1
    40   18   19 ar
    41   18   41 1
    42   20   21 1
    43   20   22 1
    44   20   23 1
@<TRIPOS>MOLECULE
CHEMBL255005
   44    46     0     0     0
SMALL
USER_CHARGES

@<TRIPOS>ATOM
      1 C1          0.3697    2.0220   -0.0762 C.ar      1 <0>        -0.1092
      2 C2          1.5936    2.6427   -0.2426 C.ar      1 <0>        -0.1170
      3 C3          2.7544    1.8920   -0.2475 C.ar      1 <0>        -0.1049
      4 C4          2.6913    0.5206   -0.0855 C.ar      1 <0>        -0.0961
      5 C5          1.4675   -0.1000    0.0818 C.ar      1 <0>        -0.1049
      6 C6          0.3066    0.6505    0.0853 C.ar      1 <0>        -0.1170
      7 C7          3.9566   -0.2979   -0.0918 C.3       1 <0>        -0.5839
      8 S1          4.5982   -0.4323    1.5997 S.o2      1 <0>         2.6036
      9 O1          5.0480    0.8365    2.0548 O.2       1 <0>        -0.9454
     10 O2          3.7209   -1.2179    2.3949 O.2       1 <0>        -0.9454
     11 N1          5.9738   -1.3438    1.4618 N.pl3     1 <0>        -0.9954
     12 C8          5.9144   -2.8085    1.5677 C.3       1 <0>         0.1034
     13 C9          6.5437   -3.4168    0.3083 C.3       1 <0>         0.1315
     14 N2          7.8458   -2.7757    0.0774 N.pl3     1 <0>        -0.6661
     15 C10         7.9053   -1.3111   -0.0285 C.3       1 <0>         0.1314
     16 C11         7.2751   -0.7031    1.2253 C.3       1 <0>         0.1033
     17 C12         9.0005   -3.5408   -0.0384 C.ar      1 <0>         0.4308
     18 C13         9.4014   -3.9992   -1.2894 C.ar      1 <0>        -0.2404
     19 C14        10.5522   -4.7595   -1.3900 C.ar      1 <0>        -0.0220
     20 C15        11.2666   -5.0371   -0.2318 C.ar      1 <0>        -0.1780
     21 C16        10.8110   -4.5501    0.9766 C.ar      1 <0>         0.1440
     22 N3          9.7120   -3.8224    1.0421 N.ar      1 <0>        -0.4890
     23 C17         8.5922   -3.6721   -2.5180 C.3       1 <0>         0.5225
     24 F1          9.1987   -4.2437   -3.6416 F         1 <0>        -0.1785
     25 F2          7.2986   -4.1851   -2.3746 F         1 <0>        -0.1723
     26 F3          8.5283   -2.2838   -2.6782 F         1 <0>        -0.1723
     27 H1         -0.5368    2.6090   -0.0679 H         1 <0>         0.1283
     28 H2          1.6429    3.7141   -0.3692 H         1 <0>         0.1300
     29 H3          3.7105    2.3769   -0.3782 H         1 <0>         0.1300
     30 H4          1.4181   -1.1715    0.2081 H         1 <0>         0.1300
     31 H5         -0.6496    0.1656    0.2156 H         1 <0>         0.1300
     32 H6          3.7431   -1.2939   -0.4796 H         1 <0>         0.1401
     33 H7          4.6998    0.1870   -0.7248 H         1 <0>         0.1401
     34 H8          6.4688   -3.1344    2.4477 H         1 <0>         0.0829
     35 H9          4.8752   -3.1275    1.6481 H         1 <0>         0.0994
     36 H10         6.6836   -4.4884    0.4504 H         1 <0>         0.0843
     37 H11         5.8923   -3.2408   -0.5477 H         1 <0>         0.0681
     38 H12         8.9444   -0.9920   -0.1089 H         1 <0>         0.0846
     39 H13         7.3508   -0.9851   -0.9085 H         1 <0>         0.0677
     40 H14         7.1344    0.3679    1.0796 H         1 <0>         0.0995
     41 H15         7.9287   -0.8757    2.0804 H         1 <0>         0.0826
     42 H16        10.8877   -5.1293   -2.3477 H         1 <0>         0.1513
     43 H17        12.1693   -5.6284   -0.2762 H         1 <0>         0.1502
     44 H18        11.3633   -4.7640    1.8798 H         1 <0>         0.1679
@<TRIPOS>BOND
     1    1    6 ar
     2    1    2 ar
     3    1   27 1
     4    2    3 ar
     5    2   28 1
     6    3    4 ar
     7    3   29 1
     8    4    5 ar
     9    4    7 1
    10    5    6 ar
    11    5   30 1
    12    6   31 1
    13    7    8 1
    14    7   32 1
    15    7   33 1
    16    8    9 2
    17    8   10 2
    18    8   11 1
    19   11   16 1
    20   11   12 1
    21   12   13 1
    22   12   34 1
    23   12   35 1
    24   13   14 1
    25   13   36 1
    26   13   37 1
    27   14   15 1
    28   14   17 1
    29   15   16 1
    30   15   38 1
    31   15   39 1
    32   16   40 1
    33   16   41 1
    34   17   22 ar
    35   17   18 ar
    36   18   19 ar
    37   18   23 1
    38   19   20 ar
    39   19   42 1
    40   20   21 ar
    41   20   43 1
    42   21   22 ar
    43   21   44 1
    44   23   24 1
    45   23   25 1
    46   23   26 1
@<TRIPOS>MOLECULE
CHEMBL1080886
   53    55     0     0     0
SMALL
USER_CHARGES

@<TRIPOS>ATOM
      1 C1         -0.0187    1.5258    0.0104 C.3       1 <0>        -0.1530
      2 C2          0.0021   -0.0041    0.0020 C.3       1 <0>         0.0570
      3 O1          0.6709   -0.4649   -1.1737 O.3       1 <0>        -0.3822
      4 C3          0.7457   -1.8880   -1.2798 C.3       1 <0>         0.0909
      5 C4          2.0271   -2.3828   -0.6025 C.3       1 <0>        -0.1532
      6 C5          2.1720   -3.8921   -0.8546 C.3       1 <0>         0.1561
      7 H1          2.9946   -4.3257   -0.2860 H         1 <0>         0.1036
      8 C6          0.8173   -4.5595   -0.5232 C.3       1 <0>        -0.1325
      9 C7          0.0190   -4.5045   -1.8426 C.3       1 <0>        -0.1322
     10 C8          0.9664   -3.8091   -2.8472 C.3       1 <0>         0.1588
     11 H2          0.8372   -4.1844   -3.8624 H         1 <0>         0.1067
     12 C9          0.7554   -2.2890   -2.7578 C.3       1 <0>        -0.1267
     13 N1          2.3400   -4.0804   -2.3159 N.pl3     1 <0>        -1.0133
     14 S1          3.7118   -4.4991   -3.1437 S.o2      1 <0>         2.7081
     15 O2          3.5459   -4.0226   -4.4721 O.2       1 <0>        -0.9506
     16 O3          4.8109   -4.1159   -2.3286 O.2       1 <0>        -0.9511
     17 C10         3.7455   -6.2581   -3.2401 C.ar      1 <0>        -0.6829
     18 C11         4.3619   -6.9932   -2.2448 C.ar      1 <0>        -0.0171
     19 C12         4.3884   -8.3733   -2.3205 C.ar      1 <0>        -0.1367
     20 C13         3.7981   -9.0182   -3.3913 C.ar      1 <0>        -0.0121
     21 C14         3.1810   -8.2832   -4.3861 C.ar      1 <0>        -0.1423
     22 C15         3.1508   -6.9033   -4.3083 C.ar      1 <0>        -0.0165
     23 C16         3.8279  -10.5226   -3.4743 C.3       1 <0>        -0.0387
     24 C17         3.1234  -11.1149   -2.2520 C.3       1 <0>        -0.1396
     25 C18         3.1103  -10.9775   -4.7467 C.3       1 <0>        -0.1477
     26 C19         5.2801  -11.0029   -3.5084 C.3       1 <0>        -0.1412
     27 H3          1.0039    1.9031    0.0027 H         1 <0>         0.0631
     28 H4         -0.5459    1.8868   -0.8726 H         1 <0>         0.0629
     29 H5         -0.5289    1.8773    0.9072 H         1 <0>         0.0705
     30 H6          0.5293   -0.3651    0.8851 H         1 <0>         0.0475
     31 H7         -1.0205   -0.3814    0.0098 H         1 <0>         0.0474
     32 H8         -0.1189   -2.3343   -0.7885 H         1 <0>         0.0687
     33 H9          2.8867   -1.8588   -1.0204 H         1 <0>         0.0801
     34 H10         1.9690   -2.1957    0.4697 H         1 <0>         0.0768
     35 H11         0.9692   -5.5938   -0.2142 H         1 <0>         0.0746
     36 H12         0.2999   -4.0014    0.2572 H         1 <0>         0.0807
     37 H13        -0.2220   -5.5116   -2.1828 H         1 <0>         0.0758
     38 H14        -0.8911   -3.9192   -1.7115 H         1 <0>         0.0826
     39 H15        -0.2029   -2.0355   -3.2111 H         1 <0>         0.0823
     40 H16         1.5568   -1.7607   -3.2742 H         1 <0>         0.0827
     41 H17         4.8230   -6.4893   -1.4083 H         1 <0>         0.1378
     42 H18         4.8705   -8.9475   -1.5433 H         1 <0>         0.1316
     43 H19         2.7201   -8.7870   -5.2229 H         1 <0>         0.1373
     44 H20         2.6654   -6.3292   -5.0836 H         1 <0>         0.1383
     45 H21         2.0888  -10.7727   -2.2278 H         1 <0>         0.0578
     46 H22         3.1449  -12.2030   -2.3121 H         1 <0>         0.0637
     47 H23         3.6346  -10.7908   -1.3455 H         1 <0>         0.0590
     48 H24         3.6122  -10.5556   -5.6174 H         1 <0>         0.0611
     49 H25         3.1318  -12.0656   -4.8067 H         1 <0>         0.0631
     50 H26         2.0757  -10.6353   -4.7224 H         1 <0>         0.0606
     51 H27         5.7914  -10.6789   -2.6019 H         1 <0>         0.0594
     52 H28         5.3016  -12.0910   -3.5684 H         1 <0>         0.0640
     53 H29         5.7820  -10.5810   -4.3791 H         1 <0>         0.0586
@<TRIPOS>BOND
     1    1    2 1
     2    1   27 1
     3    1   28 1
     4    1   29 1
     5    2    3 1
     6    2   30 1
     7    2   31 1
     8    3    4 1
     9    4   12 1
    10    4    5 1
    11    4   32 1
    12    5    6 1
    13    5   33 1
    14    5   34 1
    15    6    7 1
    16    6   13 1
    17    6    8 1
    18    8    9 1
    19    8   35 1
    20    8   36 1
    21    9   10 1
    22    9   37 1
    23    9   38 1
    24   10   11 1
    25   10   12 1
    26   10   13 1
    27   12   39 1
    28   12   40 1
    29   13   14 1
    30   14   15 2
    31   14   16 2
    32   14   17 1
    33   17   22 ar
    34   17   18 ar
    35   18   19 ar
    36   18   41 1
    37   19   20 ar
    38   19   42 1
    39   20   21 ar
    40   20   23 1
    41   21   22 ar
    42   21   43 1
    43   22   44 1
    44   23   24 1
    45   23   25 1
    46   23   26 1
    47   24   45 1
    48   24   46 1
    49   24   47 1
    50   25   48 1
    51   25   49 1
    52   25   50 1
    53   26   51 1
    54   26   52 1
    55   26   53 1
@<TRIPOS>MOLECULE
CHEMBL257779
   41    44     0     0     0
SMALL
USER_CHARGES

@<TRIPOS>ATOM
      1 C1          2.4111    1.0615   -0.0628 C.3       1 <0>         0.0776
      2 N1          2.0425   -0.3555   -0.0132 N.pl3     1 <0>        -0.4878
      3 C2          2.5435   -1.3270   -0.8349 C.2       1 <0>         0.0572
      4 C3          1.9971   -2.5151   -0.5238 C.2       1 <0>        -0.1912
      5 C4          1.0735   -2.2836    0.5850 C.ar      1 <0>        -0.0689
      6 C5          1.1440   -0.9093    0.8719 C.ar      1 <0>         0.0967
      7 C6          0.3687   -0.3832    1.9002 C.ar      1 <0>        -0.1070
      8 C7         -0.4606   -1.2049    2.6353 C.ar      1 <0>        -0.1010
      9 C8         -0.5372   -2.5602    2.3661 C.ar      1 <0>        -0.1203
     10 C9          0.2199   -3.1137    1.3374 C.ar      1 <0>         0.0196
     11 C10         0.1421   -4.5587    1.0495 C.2       1 <0>         0.2380
     12 N2         -0.0060   -5.1130   -0.1359 N.2       1 <0>        -0.2595
     13 N3         -0.0343   -6.3928   -0.0212 N.2       1 <0>        -0.2547
     14 C11         0.0940   -6.7341    1.2429 C.2       1 <0>         0.1911
     15 N4          0.2165   -5.5759    1.9648 N.pl3     1 <0>        -0.4640
     16 C12         0.3884   -5.4508    3.4143 C.3       1 <0>         0.0575
     17 C13         0.1091   -8.1101    1.7829 C.ar      1 <0>         0.0381
     18 C14         0.0920   -8.3220    3.1626 C.ar      1 <0>        -0.1270
     19 C15         0.1062   -9.6085    3.6600 C.ar      1 <0>        -0.0827
     20 C16         0.1379  -10.6878    2.7945 C.ar      1 <0>        -0.1089
     21 C17         0.1551  -10.4848    1.4262 C.ar      1 <0>        -0.0679
     22 C18         0.1348   -9.2032    0.9155 C.ar      1 <0>        -0.1486
     23 C19         0.1471   -8.9840   -0.5754 C.3       1 <0>         0.5144
     24 F1          0.1727  -10.2210   -1.2284 F         1 <0>        -0.1838
     25 F2         -1.0020   -8.2810   -0.9529 F         1 <0>        -0.1567
     26 F3          1.2822   -8.2465   -0.9289 F         1 <0>        -0.1663
     27 H1          3.2659    1.2376    0.5902 H         1 <0>         0.0707
     28 H2          2.6730    1.3332   -1.0854 H         1 <0>         0.0855
     29 H3          1.5687    1.6679    0.2699 H         1 <0>         0.0815
     30 H4          3.2696   -1.1639   -1.6176 H         1 <0>         0.1727
     31 H5          2.2015   -3.4613   -1.0027 H         1 <0>         0.1497
     32 H6          0.4164    0.6723    2.1240 H         1 <0>         0.1243
     33 H7         -1.0576   -0.7850    3.4315 H         1 <0>         0.1337
     34 H8         -1.1916   -3.1892    2.9513 H         1 <0>         0.1239
     35 H9         -0.5833   -5.5227    3.9029 H         1 <0>         0.0903
     36 H10         1.0359   -6.2506    3.7737 H         1 <0>         0.0997
     37 H11         0.8405   -4.4861    3.6447 H         1 <0>         0.1013
     38 H12         0.0680   -7.4805    3.8392 H         1 <0>         0.1434
     39 H13         0.0930   -9.7738    4.7272 H         1 <0>         0.1405
     40 H14         0.1497  -11.6931    3.1890 H         1 <0>         0.1414
     41 H15         0.1798  -11.3315    0.7562 H         1 <0>         0.1475
@<TRIPOS>BOND
     1    1    2 1
     2    1   27 1
     3    1   28 1
     4    1   29 1
     5    2    6 1
     6    2    3 1
     7    3    4 2
     8    3   30 1
     9    4    5 1
    10    4   31 1
    11    5   10 ar
    12    5    6 ar
    13    6    7 ar
    14    7    8 ar
    15    7   32 1
    16    8    9 ar
    17    8   33 1
    18    9   10 ar
    19    9   34 1
    20   10   11 1
    21   11   15 1
    22   11   12 2
    23   12   13 1
    24   13   14 2
    25   14   15 1
    26   14   17 1
    27   15   16 1
    28   16   35 1
    29   16   36 1
    30   16   37 1
    31   17   22 ar
    32   17   18 ar
    33   18   19 ar
    34   18   38 1
    35   19   20 ar
    36   19   39 1
    37   20   21 ar
    38   20   40 1
    39   21   22 ar
    40   21   41 1
    41   22   23 1
    42   23   24 1
    43   23   25 1
    44   23   26 1
@<TRIPOS>MOLECULE
CHEMBL403687
   38    41     0     0     0
SMALL
USER_CHARGES

@<TRIPOS>ATOM
      1 C1          0.1317   -0.4083   -1.7700 C.3       1 <0>         0.0750
      2 N1         -0.3348   -0.4356   -0.3815 N.pl3     1 <0>        -0.4860
      3 C2         -1.0554    0.5572    0.2247 C.2       1 <0>         0.0537
      4 C3         -1.3215    0.2193    1.4960 C.2       1 <0>        -0.2003
      5 C4         -0.7219   -1.0985    1.7227 C.ar      1 <0>        -0.1100
      6 C5         -0.1183   -1.4663    0.5048 C.ar      1 <0>         0.1100
      7 C6          0.5380   -2.6901    0.4033 C.ar      1 <0>        -0.1228
      8 C7          0.5932   -3.5312    1.4762 C.ar      1 <0>        -0.0551
      9 C8         -0.0068   -3.1790    2.6920 C.ar      1 <0>        -0.0466
     10 C9         -0.6590   -1.9571    2.8187 C.ar      1 <0>        -0.0585
     11 C10         0.0621   -4.1023    3.8443 C.2       1 <0>         0.2341
     12 N2          0.3010   -5.3954    3.7959 N.2       1 <0>        -0.2781
     13 N3          0.2895   -5.8886    4.9827 N.2       1 <0>        -0.2724
     14 C11         0.0428   -4.9408    5.8606 C.2       1 <0>         0.2168
     15 N4         -0.1049   -3.7710    5.1625 N.pl3     1 <0>        -0.4717
     16 C12        -0.3854   -2.4423    5.7120 C.3       1 <0>         0.0549
     17 C13        -0.0524   -5.1057    7.3268 C.ar      1 <0>        -0.0173
     18 C14        -0.6829   -4.1316    8.1023 C.ar      1 <0>        -0.1161
     19 C15        -0.7683   -4.2916    9.4699 C.ar      1 <0>        -0.1165
     20 C16        -0.2301   -5.4145   10.0730 C.ar      1 <0>        -0.1054
     21 C17         0.3967   -6.3837    9.3101 C.ar      1 <0>        -0.1157
     22 C18         0.4829   -6.2391    7.9408 C.ar      1 <0>        -0.0746
     23 H1         -0.6283   -0.8460   -2.4173 H         1 <0>         0.0722
     24 H2          0.3155    0.6230   -2.0714 H         1 <0>         0.0854
     25 H3          1.0549   -0.9816   -1.8544 H         1 <0>         0.0829
     26 H4         -1.3643    1.4769   -0.2498 H         1 <0>         0.1714
     27 H5         -1.8725    0.8070    2.2154 H         1 <0>         0.1499
     28 H6          1.0047   -2.9748   -0.5281 H         1 <0>         0.1275
     29 H7          1.1044   -4.4784    1.3871 H         1 <0>         0.1399
     30 H8         -1.1241   -1.6821    3.7538 H         1 <0>         0.1288
     31 H9         -1.4624   -2.3139    5.8204 H         1 <0>         0.0887
     32 H10         0.0921   -2.3440    6.6869 H         1 <0>         0.0990
     33 H11         0.0052   -1.6803    5.0376 H         1 <0>         0.1027
     34 H12        -1.1028   -3.2542    7.6328 H         1 <0>         0.1272
     35 H13        -1.2560   -3.5385   10.0711 H         1 <0>         0.1296
     36 H14        -0.2993   -5.5348   11.1440 H         1 <0>         0.1281
     37 H15         0.8154   -7.2575    9.7871 H         1 <0>         0.1320
     38 H16         0.9679   -6.9988    7.3458 H         1 <0>         0.1373
@<TRIPOS>BOND
     1    1    2 1
     2    1   23 1
     3    1   24 1
     4    1   25 1
     5    2    6 1
     6    2    3 1
     7    3    4 2
     8    3   26 1
     9    4    5 1
    10    4   27 1
    11    5   10 ar
    12    5    6 ar
    13    6    7 ar
    14    7    8 ar
    15    7   28 1
    16    8    9 ar
    17    8   29 1
    18    9   10 ar
    19    9   11 1
    20   10   30 1
    21   11   15 1
    22   11   12 2
    23   12   13 1
    24   13   14 2
    25   14   15 1
    26   14   17 1
    27   15   16 1
    28   16   31 1
    29   16   32 1
    30   16   33 1
    31   17   22 ar
    32   17   18 ar
    33   18   19 ar
    34   18   34 1
    35   19   20 ar
    36   19   35 1
    37   20   21 ar
    38   20   36 1
    39   21   22 ar
    40   21   37 1
    41   22   38 1
@<TRIPOS>MOLECULE
CHEMBL1098130
   55    58     0     0     0
SMALL
USER_CHARGES

@<TRIPOS>ATOM
      1 C1          0.4159   -2.3064   -2.4735 C.3       1 <0>        -0.1799
      2 C2         -0.7597   -3.2215   -2.1252 C.3       1 <0>        -0.1138
      3 C3         -0.2333   -4.5044   -1.4786 C.3       1 <0>        -0.1492
      4 C4         -1.6928   -2.5036   -1.1480 C.3       1 <0>        -0.0213
      5 N1         -2.3358   -1.3710   -1.8274 N.4       1 <0>        -0.3739
      6 C5         -1.3329   -0.3191   -2.0987 C.3       1 <0>        -0.0164
      7 C6         -2.0962    1.0148   -1.9043 C.3       1 <0>        -0.1409
      8 C7         -3.0247    0.6732   -0.7093 C.3       1 <0>        -0.1275
      9 C8         -3.3872   -0.8053   -0.9621 C.3       1 <0>         0.0018
     10 H1         -4.3535   -0.8699   -1.4623 H         1 <0>         0.1516
     11 C9         -3.4322   -1.5530    0.3455 C.2       1 <0>         0.5021
     12 O1         -2.4288   -1.6590    1.0183 O.2       1 <0>        -0.5093
     13 N2         -4.5877   -2.1038    0.7673 N.am      1 <0>        -0.6975
     14 C10        -4.6316   -2.8307    2.0385 C.3       1 <0>         0.1533
     15 C11        -4.1937   -4.2793    1.8131 C.3       1 <0>        -0.0920
     16 C12        -5.1373   -4.9472    0.8109 C.3       1 <0>        -0.1070
     17 C13        -6.5645   -4.9257    1.3618 C.3       1 <0>        -0.0887
     18 C14        -6.6103   -5.6847    2.6894 C.3       1 <0>        -0.1114
     19 C15        -5.6667   -5.0168    3.6916 C.3       1 <0>        -0.0906
     20 C16        -4.2395   -5.0384    3.1407 C.3       1 <0>        -0.1082
     21 C17        -6.1046   -3.5682    3.9170 C.3       1 <0>        -0.1077
     22 C18        -6.0588   -2.8091    2.5894 C.3       1 <0>        -0.0931
     23 C19        -7.0024   -3.4771    1.5872 C.3       1 <0>        -0.1107
     24 H2          1.2151   -2.8964   -2.9222 H         1 <0>         0.0806
     25 H3          0.0864   -1.5444   -3.1798 H         1 <0>         0.0650
     26 H4          0.7838   -1.8265   -1.5666 H         1 <0>         0.0700
     27 H5         -1.3076   -3.4710   -3.0339 H         1 <0>         0.0885
     28 H6          0.3145   -4.2549   -0.5699 H         1 <0>         0.0686
     29 H7         -1.0709   -5.1563   -1.2305 H         1 <0>         0.0645
     30 H8          0.4314   -5.0159   -2.1748 H         1 <0>         0.0774
     31 H9         -2.4563   -3.1983   -0.7978 H         1 <0>         0.1208
     32 H10        -1.1168   -2.1380   -0.2979 H         1 <0>         0.1588
     33 H11        -0.5072   -0.3904   -1.3908 H         1 <0>         0.1394
     34 H12        -0.9651   -0.4002   -3.1215 H         1 <0>         0.1446
     35 H13        -1.4111    1.8229   -1.6479 H         1 <0>         0.1221
     36 H14        -2.6778    1.2647   -2.7916 H         1 <0>         0.1020
     37 H15        -2.4929    0.7835    0.2358 H         1 <0>         0.1083
     38 H16        -3.9183    1.2972   -0.7249 H         1 <0>         0.1195
     39 H17        -5.3903   -2.0190    0.2292 H         1 <0>         0.4065
     40 H18        -3.9593   -2.3548    2.7525 H         1 <0>         0.0973
     41 H19        -3.1769   -4.2946    1.4207 H         1 <0>         0.0709
     42 H20        -5.1047   -4.4064   -0.1349 H         1 <0>         0.0526
     43 H21        -4.8254   -5.9792    0.6503 H         1 <0>         0.0685
     44 H22        -7.2368   -5.4015    0.6478 H         1 <0>         0.0748
     45 H23        -7.6271   -5.6694    3.0818 H         1 <0>         0.0674
     46 H24        -6.2984   -6.7167    2.5288 H         1 <0>         0.0662
     47 H25        -5.6993   -5.5576    4.6374 H         1 <0>         0.0787
     48 H26        -3.9276   -6.0704    2.9802 H         1 <0>         0.0711
     49 H27        -3.5672   -4.5625    3.8547 H         1 <0>         0.0674
     50 H28        -7.1214   -3.5529    4.3094 H         1 <0>         0.0747
     51 H29        -5.4323   -3.0924    4.6310 H         1 <0>         0.0684
     52 H30        -6.3707   -1.7772    2.7500 H         1 <0>         0.0797
     53 H31        -6.9698   -2.9363    0.6414 H         1 <0>         0.0548
     54 H32        -8.0192   -3.4617    1.9796 H         1 <0>         0.0749
     55 H33        -2.7425   -1.6820   -2.6968 H         1 <0>         0.4262
@<TRIPOS>BOND
     1    1    2 1
     2    1   24 1
     3    1   25 1
     4    1   26 1
     5    2    3 1
     6    2    4 1
     7    2   27 1
     8    3   28 1
     9    3   29 1
    10    3   30 1
    11    4    5 1
    12    4   31 1
    13    4   32 1
    14    5    9 1
    15    5    6 1
    16    5   55 1
    17    6    7 1
    18    6   33 1
    19    6   34 1
    20    7    8 1
    21    7   35 1
    22    7   36 1
    23    8    9 1
    24    8   37 1
    25    8   38 1
    26    9   10 1
    27    9   11 1
    28   11   12 2
    29   11   13 am
    30   13   14 1
    31   13   39 1
    32   14   22 1
    33   14   15 1
    34   14   40 1
    35   15   20 1
    36   15   16 1
    37   15   41 1
    38   16   17 1
    39   16   42 1
    40   16   43 1
    41   17   23 1
    42   17   18 1
    43   17   44 1
    44   18   19 1
    45   18   45 1
    46   18   46 1
    47   19   20 1
    48   19   21 1
    49   19   47 1
    50   20   48 1
    51   20   49 1
    52   21   22 1
    53   21   50 1
    54   21   51 1
    55   22   23 1
    56   22   52 1
    57   23   53 1
    58   23   54 1
@<TRIPOS>MOLECULE
CHEMBL468806
   42    43     0     0     0
SMALL
USER_CHARGES

@<TRIPOS>ATOM
      1 C1         -0.0187    1.5258    0.0104 C.3       1 <0>        -0.1477
      2 C2          0.0021   -0.0041    0.0020 C.3       1 <0>        -0.1363
      3 C3          0.7182   -0.4975   -1.2568 C.3       1 <0>        -0.0853
      4 C4          0.7390   -2.0273   -1.2652 C.3       1 <0>        -0.0986
      5 C5         -0.6243   -2.6052   -0.9017 C.2       1 <0>         0.5485
      6 O1         -1.6288   -2.4261   -1.5624 O.2       1 <0>        -0.4610
      7 N1         -0.5971   -3.3151    0.1977 N.2       1 <0>        -0.6917
      8 C6          0.4870   -3.5172    0.9236 C.2       1 <0>         0.4769
      9 S1          1.7266   -2.6943    0.1368 S.3       1 <0>        -0.1029
     10 N2          0.5826   -4.2431    2.0744 N.pl3     1 <0>        -0.6406
     11 C7         -0.6046   -4.9001    2.6267 C.3       1 <0>         0.1210
     12 C8         -0.2263   -5.6417    3.9104 C.3       1 <0>        -0.1009
     13 C9          0.7454   -6.7755    3.5768 C.3       1 <0>        -0.1180
     14 C10         1.1238   -7.5171    4.8605 C.3       1 <0>        -0.1200
     15 C11        -0.1367   -8.0985    5.5040 C.3       1 <0>        -0.1226
     16 C12        -1.1084   -6.9648    5.8375 C.3       1 <0>        -0.1192
     17 C13        -1.4868   -6.2231    4.5539 C.3       1 <0>        -0.1112
     18 C14         1.2370   -2.5677   -2.6072 C.3       1 <0>        -0.1196
     19 H1          1.0039    1.9031    0.0027 H         1 <0>         0.0569
     20 H2         -0.5459    1.8868   -0.8726 H         1 <0>         0.0571
     21 H3         -0.5289    1.8773    0.9072 H         1 <0>         0.0569
     22 H4          0.5293   -0.3651    0.8851 H         1 <0>         0.0663
     23 H5         -1.0205   -0.3814    0.0098 H         1 <0>         0.0642
     24 H6          0.1910   -0.1364   -2.1398 H         1 <0>         0.0934
     25 H7          1.7408   -0.1202   -1.2645 H         1 <0>         0.0836
     26 H8          1.4366   -4.3242    2.5270 H         1 <0>         0.4247
     27 H9         -1.3637   -4.1505    2.8505 H         1 <0>         0.0833
     28 H10        -0.9984   -5.6102    1.8995 H         1 <0>         0.0833
     29 H11         0.2490   -4.9481    4.6041 H         1 <0>         0.0810
     30 H12         0.2702   -7.4690    2.8831 H         1 <0>         0.0683
     31 H13         1.6434   -6.3612    3.1184 H         1 <0>         0.0595
     32 H14         1.8161   -8.3248    4.6229 H         1 <0>         0.0642
     33 H15         1.5990   -6.8235    5.5542 H         1 <0>         0.0627
     34 H16        -0.6119   -8.7921    4.8103 H         1 <0>         0.0629
     35 H17         0.1329   -8.6268    6.4185 H         1 <0>         0.0629
     36 H18        -2.0064   -7.3790    6.2959 H         1 <0>         0.0658
     37 H19        -0.6332   -6.2712    6.5312 H         1 <0>         0.0629
     38 H20        -2.1790   -5.4154    4.7915 H         1 <0>         0.0681
     39 H21        -1.9620   -6.9167    3.8602 H         1 <0>         0.0685
     40 H22         2.2484   -2.2057   -2.7918 H         1 <0>         0.0775
     41 H23         1.2401   -3.6574   -2.5814 H         1 <0>         0.0681
     42 H24         0.5772   -2.2250   -3.4043 H         1 <0>         0.0872
@<TRIPOS>BOND
     1    1    2 1
     2    1   19 1
     3    1   20 1
     4    1   21 1
     5    2    3 1
     6    2   22 1
     7    2   23 1
     8    3    4 1
     9    3   24 1
    10    3   25 1
    11    4    9 1
    12    4    5 1
    13    4   18 1
    14    5    6 2
    15    5    7 1
    16    7    8 2
    17    8    9 1
    18    8   10 1
    19   10   11 1
    20   10   26 1
    21   11   12 1
    22   11   27 1
    23   11   28 1
    24   12   17 1
    25   12   13 1
    26   12   29 1
    27   13   14 1
    28   13   30 1
    29   13   31 1
    30   14   15 1
    31   14   32 1
    32   14   33 1
    33   15   16 1
    34   15   34 1
    35   15   35 1
    36   16   17 1
    37   16   36 1
    38   16   37 1
    39   17   38 1
    40   17   39 1
    41   18   40 1
    42   18   41 1
    43   18   42 1
@<TRIPOS>MOLECULE
CHEMBL468806__1
   42    43     0     0     0
SMALL
USER_CHARGES

@<TRIPOS>ATOM
      1 C1         -0.0187    1.5258    0.0104 C.3       1 <0>        -0.1477
      2 C2          0.0021   -0.0041    0.0020 C.3       1 <0>        -0.1362
      3 C3          0.7182   -0.4975   -1.2568 C.3       1 <0>        -0.0853
      4 C4          0.7390   -2.0273   -1.2652 C.3       1 <0>        -0.0985
      5 C5          1.1405   -2.5867    0.0950 C.2       1 <0>         0.5485
      6 O1          2.2217   -2.3852    0.6129 O.2       1 <0>        -0.4611
      7 N1          0.1963   -3.3068    0.6458 N.2       1 <0>        -0.6917
      8 C6         -0.9817   -3.5326    0.0941 C.2       1 <0>         0.4769
      9 S1         -0.9609   -2.7224   -1.3811 S.3       1 <0>        -0.1031
     10 N2         -2.0047   -4.2708    0.6125 N.pl3     1 <0>        -0.6406
     11 C7         -1.8545   -4.9137    1.9203 C.3       1 <0>         0.1210
     12 C8         -3.1370   -5.6735    2.2653 C.3       1 <0>        -0.1010
     13 C9         -4.2888   -4.6805    2.4324 C.3       1 <0>        -0.1179
     14 C10        -5.5713   -5.4403    2.7774 C.3       1 <0>        -0.1200
     15 C11        -5.3708   -6.2130    4.0826 C.3       1 <0>        -0.1226
     16 C12        -4.2189   -7.2061    3.9155 C.3       1 <0>        -0.1192
     17 C13        -2.9365   -6.4463    3.5705 C.3       1 <0>        -0.1112
     18 C14         1.6397   -2.5635   -2.3797 C.3       1 <0>        -0.1196
     19 H1          1.0039    1.9031    0.0027 H         1 <0>         0.0571
     20 H2         -0.5459    1.8868   -0.8726 H         1 <0>         0.0569
     21 H3         -0.5289    1.8773    0.9072 H         1 <0>         0.0568
     22 H4          0.5293   -0.3651    0.8851 H         1 <0>         0.0642
     23 H5         -1.0205   -0.3814    0.0098 H         1 <0>         0.0663
     24 H6          0.1910   -0.1364   -2.1398 H         1 <0>         0.0836
     25 H7          1.7408   -0.1202   -1.2645 H         1 <0>         0.0934
     26 H8         -2.8317   -4.3700    0.1154 H         1 <0>         0.4247
     27 H9         -1.0168   -5.6104    1.8887 H         1 <0>         0.0833
     28 H10        -1.6669   -4.1541    2.6792 H         1 <0>         0.0833
     29 H11        -3.3728   -6.3718    1.4622 H         1 <0>         0.0810
     30 H12        -4.0530   -3.9822    3.2355 H         1 <0>         0.0682
     31 H13        -4.4317   -4.1299    1.5025 H         1 <0>         0.0595
     32 H14        -6.3919   -4.7328    2.8964 H         1 <0>         0.0642
     33 H15        -5.8071   -6.1385    1.9743 H         1 <0>         0.0627
     34 H16        -5.1349   -5.5148    4.8857 H         1 <0>         0.0629
     35 H17        -6.2844   -6.7543    4.3284 H         1 <0>         0.0629
     36 H18        -4.0760   -7.7566    4.8454 H         1 <0>         0.0658
     37 H19        -4.4547   -7.9043    3.1124 H         1 <0>         0.0629
     38 H20        -2.1158   -7.1537    3.4515 H         1 <0>         0.0681
     39 H21        -2.7006   -5.7480    4.3736 H         1 <0>         0.0685
     40 H22         2.6574   -2.2033   -2.2294 H         1 <0>         0.0872
     41 H23         1.6333   -3.6533   -2.3594 H         1 <0>         0.0682
     42 H24         1.2700   -2.2159   -3.3444 H         1 <0>         0.0775
@<TRIPOS>BOND
     1    1    2 1
     2    1   19 1
     3    1   20 1
     4    1   21 1
     5    2    3 1
     6    2   22 1
     7    2   23 1
     8    3    4 1
     9    3   24 1
    10    3   25 1
    11    4    9 1
    12    4    5 1
    13    4   18 1
    14    5    6 2
    15    5    7 1
    16    7    8 2
    17    8    9 1
    18    8   10 1
    19   10   11 1
    20   10   26 1
    21   11   12 1
    22   11   27 1
    23   11   28 1
    24   12   17 1
    25   12   13 1
    26   12   29 1
    27   13   14 1
    28   13   30 1
    29   13   31 1
    30   14   15 1
    31   14   32 1
    32   14   33 1
    33   15   16 1
    34   15   34 1
    35   15   35 1
    36   16   17 1
    37   16   36 1
    38   16   37 1
    39   17   38 1
    40   17   39 1
    41   18   40 1
    42   18   41 1
    43   18   42 1
@<TRIPOS>MOLECULE
CHEMBL564652
   47    51     0     0     0
SMALL
USER_CHARGES

@<TRIPOS>ATOM
      1 C1          0.7713    0.7791    3.5205 C.ar      1 <0>        -0.1139
      2 C2          1.8589    1.5516    3.1572 C.ar      1 <0>        -0.1198
      3 C3          2.9715    0.9557    2.5980 C.ar      1 <0>        -0.1002
      4 C4          3.0064   -0.4147    2.3979 C.ar      1 <0>        -0.0847
      5 C5          1.9166   -1.1883    2.7650 C.ar      1 <0>        -0.0899
      6 C6          0.8019   -0.5873    3.3238 C.ar      1 <0>        -0.1084
      7 C7          2.1948   -2.6455    2.4579 C.3       1 <0>        -0.0833
      8 C8          3.3912   -2.6332    1.4781 C.3       1 <0>        -0.1055
      9 C9          4.0674   -1.3032    1.8168 C.3       1 <0>        -0.0289
     10 C10         5.2437   -1.5014    2.7880 C.3       1 <0>        -0.1153
     11 C11         6.4196   -1.8277    1.8394 C.3       1 <0>         0.1012
     12 N1          6.0606   -1.3201    0.5060 N.am      1 <0>        -0.6108
     13 C12         4.7337   -0.6763    0.5837 C.3       1 <0>         0.1197
     14 C13         6.8184   -1.4245   -0.6037 C.2       1 <0>         0.5727
     15 O1          6.3840   -1.0496   -1.6722 O.2       1 <0>        -0.5283
     16 C14         8.2055   -2.0071   -0.5168 C.3       1 <0>        -0.1200
     17 C15         9.3336   -1.2544   -1.2251 C.3       1 <0>        -0.1315
     18 C16         9.2445   -1.2386    0.3022 C.3       1 <0>        -0.1572
     19 C17         8.2782   -3.5122   -0.4965 C.ar      1 <0>        -0.0417
     20 C18         8.7350   -4.1668    0.6322 C.ar      1 <0>        -0.0977
     21 C19         8.8019   -5.5472    0.6514 C.ar      1 <0>        -0.1086
     22 C20         8.4116   -6.2739   -0.4593 C.ar      1 <0>        -0.0321
     23 C21         7.9546   -5.6183   -1.5887 C.ar      1 <0>        -0.1066
     24 C22         7.8828   -4.2381   -1.6046 C.ar      1 <0>        -0.0896
     25 Cl1         8.4959   -8.0077   -0.4362 Cl        1 <0>        -0.0666
     26 H1         -0.0987    1.2430    3.9613 H         1 <0>         0.1250
     27 H2          1.8379    2.6204    3.3106 H         1 <0>         0.1251
     28 H3          3.8195    1.5615    2.3145 H         1 <0>         0.1188
     29 H4         -0.0481   -1.1902    3.6074 H         1 <0>         0.1206
     30 H5          2.4590   -3.1803    3.3702 H         1 <0>         0.0821
     31 H6          1.3257   -3.1053    1.9875 H         1 <0>         0.0778
     32 H7          4.0613   -3.4709    1.6716 H         1 <0>         0.0801
     33 H8          3.0472   -2.6426    0.4438 H         1 <0>         0.0770
     34 H9          5.4411   -0.5868    3.3472 H         1 <0>         0.0819
     35 H10         5.0502   -2.3343    3.4639 H         1 <0>         0.0883
     36 H11         7.3267   -1.3363    2.1911 H         1 <0>         0.0735
     37 H12         6.5728   -2.9060    1.7965 H         1 <0>         0.0725
     38 H13         4.1533   -0.8932   -0.3130 H         1 <0>         0.0831
     39 H14         4.8412    0.4003    0.7163 H         1 <0>         0.0718
     40 H15        10.1285   -1.8478   -1.6768 H         1 <0>         0.1082
     41 H16         9.0724   -0.3378   -1.7540 H         1 <0>         0.1067
     42 H17         8.9248   -0.3116    0.7782 H         1 <0>         0.1031
     43 H18         9.9809   -1.8216    0.8554 H         1 <0>         0.1089
     44 H19         9.0400   -3.5994    1.4991 H         1 <0>         0.1343
     45 H20         9.1591   -6.0584    1.5331 H         1 <0>         0.1365
     46 H21         7.6500   -6.1850   -2.4561 H         1 <0>         0.1363
     47 H22         7.5215   -3.7263   -2.4844 H         1 <0>         0.1351
@<TRIPOS>BOND
     1    1    6 ar
     2    1    2 ar
     3    1   26 1
     4    2    3 ar
     5    2   27 1
     6    3    4 ar
     7    3   28 1
     8    4    9 1
     9    4    5 ar
    10    5    6 ar
    11    5    7 1
    12    6   29 1
    13    7    8 1
    14    7   30 1
    15    7   31 1
    16    8    9 1
    17    8   32 1
    18    8   33 1
    19    9   13 1
    20    9   10 1
    21   10   11 1
    22   10   34 1
    23   10   35 1
    24   11   12 1
    25   11   36 1
    26   11   37 1
    27   12   13 1
    28   12   14 am
    29   13   38 1
    30   13   39 1
    31   14   15 2
    32   14   16 1
    33   16   18 1
    34   16   17 1
    35   16   19 1
    36   17   18 1
    37   17   40 1
    38   17   41 1
    39   18   42 1
    40   18   43 1
    41   19   24 ar
    42   19   20 ar
    43   20   21 ar
    44   20   44 1
    45   21   22 ar
    46   21   45 1
    47   22   23 ar
    48   22   25 1
    49   23   24 ar
    50   23   46 1
    51   24   47 1
@<TRIPOS>MOLECULE
CHEMBL564652__1
   47    51     0     0     0
SMALL
USER_CHARGES

@<TRIPOS>ATOM
      1 C1         -0.0210    1.3275   -0.0505 C.ar      1 <0>        -0.1134
      2 C2          1.1671    2.0340   -0.0711 C.ar      1 <0>        -0.1204
      3 C3          2.3709    1.3583   -0.0746 C.ar      1 <0>        -0.0983
      4 C4          2.3966   -0.0267   -0.0565 C.ar      1 <0>        -0.0862
      5 C5          1.2054   -0.7337   -0.0315 C.ar      1 <0>        -0.0901
      6 C6          0.0000   -0.0531   -0.0309 C.ar      1 <0>        -0.1087
      7 C7          1.4922   -2.2209   -0.0027 C.3       1 <0>        -0.0850
      8 C8          2.9676   -2.3588   -0.4436 C.3       1 <0>        -0.1079
      9 C9          3.5466   -0.9936   -0.0602 C.3       1 <0>        -0.0284
     10 C10         4.6441   -0.5603   -1.0497 C.3       1 <0>        -0.1213
     11 C11         5.8955   -1.2464   -0.4417 C.3       1 <0>         0.0990
     12 N1          5.6996   -1.1708    1.0185 N.am      1 <0>        -0.6107
     13 C12         4.2581   -1.0440    1.2949 C.3       1 <0>         0.1261
     14 C13         6.6770   -1.2110    1.9457 C.2       1 <0>         0.5701
     15 O1          6.4078   -1.0542    3.1178 O.2       1 <0>        -0.5279
     16 C14         8.1043   -1.4508    1.5259 C.3       1 <0>        -0.1192
     17 C15         9.1820   -0.5575    2.1437 C.3       1 <0>        -0.1302
     18 C16         8.7822   -0.3723    0.6785 C.3       1 <0>        -0.1606
     19 C17         8.4668   -2.8864    1.2451 C.ar      1 <0>        -0.0342
     20 C18         9.4550   -3.1822    0.3247 C.ar      1 <0>        -0.1037
     21 C19         9.7878   -4.4986    0.0667 C.ar      1 <0>        -0.1042
     22 C20         9.1318   -5.5204    0.7298 C.ar      1 <0>        -0.0352
     23 C21         8.1428   -5.2238    1.6507 C.ar      1 <0>        -0.1029
     24 C22         7.8148   -3.9068    1.9120 C.ar      1 <0>        -0.0964
     25 Cl1         9.5489   -7.1741    0.4058 Cl        1 <0>        -0.0666
     26 H1         -0.9638    1.8543   -0.0451 H         1 <0>         0.1251
     27 H2          1.1535    3.1139   -0.0841 H         1 <0>         0.1249
     28 H3          3.2978    1.9124   -0.0911 H         1 <0>         0.1182
     29 H4         -0.9285   -0.6046   -0.0148 H         1 <0>         0.1208
     30 H5          1.3612   -2.6116    1.0064 H         1 <0>         0.0820
     31 H6          0.8388   -2.7454   -0.6998 H         1 <0>         0.0788
     32 H7          3.4638   -3.1591    0.1054 H         1 <0>         0.0805
     33 H8          3.0379   -2.5223   -1.5189 H         1 <0>         0.0808
     34 H9          4.4389   -0.9380   -2.0514 H         1 <0>         0.0907
     35 H10         4.7576    0.5237   -1.0578 H         1 <0>         0.0805
     36 H11         5.9512   -2.2864   -0.7632 H         1 <0>         0.0729
     37 H12         6.7995   -0.7105   -0.7310 H         1 <0>         0.0825
     38 H13         4.0651   -0.1266    1.8510 H         1 <0>         0.0732
     39 H14         3.9114   -1.9055    1.8656 H         1 <0>         0.0735
     40 H15         8.8585    0.2036    2.8537 H         1 <0>         0.1080
     41 H16        10.1534   -1.0082    2.3472 H         1 <0>         0.1093
     42 H17         9.4906   -0.7011   -0.0819 H         1 <0>         0.1113
     43 H18         8.1958    0.5107    0.4246 H         1 <0>         0.1048
     44 H19         9.9668   -2.3844   -0.1930 H         1 <0>         0.1360
     45 H20        10.5596   -4.7295   -0.6525 H         1 <0>         0.1369
     46 H21         7.6301   -6.0210    2.1684 H         1 <0>         0.1358
     47 H22         7.0462   -3.6749    2.6344 H         1 <0>         0.1299
@<TRIPOS>BOND
     1    1    6 ar
     2    1    2 ar
     3    1   26 1
     4    2    3 ar
     5    2   27 1
     6    3    4 ar
     7    3   28 1
     8    4    9 1
     9    4    5 ar
    10    5    6 ar
    11    5    7 1
    12    6   29 1
    13    7    8 1
    14    7   30 1
    15    7   31 1
    16    8    9 1
    17    8   32 1
    18    8   33 1
    19    9   13 1
    20    9   10 1
    21   10   11 1
    22   10   34 1
    23   10   35 1
    24   11   12 1
    25   11   36 1
    26   11   37 1
    27   12   13 1
    28   12   14 am
    29   13   38 1
    30   13   39 1
    31   14   15 2
    32   14   16 1
    33   16   18 1
    34   16   17 1
    35   16   19 1
    36   17   18 1
    37   17   40 1
    38   17   41 1
    39   18   42 1
    40   18   43 1
    41   19   24 ar
    42   19   20 ar
    43   20   21 ar
    44   20   44 1
    45   21   22 ar
    46   21   45 1
    47   22   23 ar
    48   22   25 1
    49   23   24 ar
    50   23   46 1
    51   24   47 1
@<TRIPOS>MOLECULE
CHEMBL428429
   45    49     0     0     0
SMALL
USER_CHARGES

@<TRIPOS>ATOM
      1 C1          0.1551    1.4561    0.0760 C.3       1 <0>         0.0547
      2 N1          0.0780   -0.0061    0.0309 N.pl3     1 <0>        -0.4702
      3 C2         -0.0974   -0.7899   -1.0773 C.2       1 <0>         0.2127
      4 N2         -0.1069   -2.0386   -0.6668 N.2       1 <0>        -0.2763
      5 N3          0.0494   -2.0771    0.6085 N.2       1 <0>        -0.2845
      6 C3          0.1719   -0.8658    1.0816 C.2       1 <0>         0.1957
      7 C4          0.3767   -0.4893    2.5263 C.3       1 <0>         0.0360
      8 C5          1.6473    0.3527    2.6588 C.3       1 <0>        -0.1080
      9 C6          1.8551    0.7350    4.1256 C.3       1 <0>        -0.0831
     10 C7          1.9941   -0.5341    4.9687 C.3       1 <0>        -0.1109
     11 C8          0.7235   -1.3761    4.8362 C.3       1 <0>        -0.0867
     12 C9          0.5157   -1.7584    3.3694 C.3       1 <0>        -0.0897
     13 C10        -0.4782   -0.5666    5.3275 C.3       1 <0>        -0.1108
     14 C11        -0.6172    0.7026    4.4844 C.3       1 <0>        -0.0833
     15 C12         0.6534    1.5445    4.6169 C.3       1 <0>        -0.1106
     16 C13        -0.8251    0.3203    3.0176 C.3       1 <0>        -0.1056
     17 C14        -0.2477   -0.3208   -2.4723 C.ar      1 <0>        -0.0160
     18 C15        -0.5282    1.0207   -2.7338 C.ar      1 <0>        -0.1224
     19 C16        -0.6673    1.4519   -4.0370 C.ar      1 <0>        -0.1163
     20 C17        -0.5292    0.5573   -5.0833 C.ar      1 <0>        -0.1063
     21 C18        -0.2510   -0.7741   -4.8305 C.ar      1 <0>        -0.1155
     22 C19        -0.1039   -1.2168   -3.5320 C.ar      1 <0>        -0.0759
     23 H1          1.0947    1.7843   -0.3686 H         1 <0>         0.0884
     24 H2         -0.6790    1.8813   -0.4823 H         1 <0>         0.0955
     25 H3          0.1069    1.7908    1.1122 H         1 <0>         0.1028
     26 H4          2.5034   -0.2240    2.3088 H         1 <0>         0.0692
     27 H5          1.5482    1.2569    2.0582 H         1 <0>         0.0633
     28 H6          2.7603    1.3349    4.2200 H         1 <0>         0.0756
     29 H7          2.8503   -1.1108    4.6187 H         1 <0>         0.0644
     30 H8          2.1422   -0.2618    6.0137 H         1 <0>         0.0661
     31 H9          0.8226   -2.2803    5.4368 H         1 <0>         0.0775
     32 H10        -0.3895   -2.3583    3.2750 H         1 <0>         0.0742
     33 H11         1.3719   -2.3351    3.0194 H         1 <0>         0.0721
     34 H12        -1.3834   -1.1665    5.2331 H         1 <0>         0.0649
     35 H13        -0.3301   -0.2942    6.3725 H         1 <0>         0.0661
     36 H14        -1.4734    1.2793    4.8344 H         1 <0>         0.0757
     37 H15         0.8014    1.8169    5.6619 H         1 <0>         0.0679
     38 H16         0.5543    2.4487    4.0163 H         1 <0>         0.0614
     39 H17        -0.9241    1.2244    2.4170 H         1 <0>         0.0618
     40 H18        -1.7303   -0.2796    2.9233 H         1 <0>         0.0702
     41 H19        -0.6367    1.7199   -1.9179 H         1 <0>         0.1303
     42 H20        -0.8848    2.4900   -4.2408 H         1 <0>         0.1291
     43 H21        -0.6393    0.8997   -6.1016 H         1 <0>         0.1280
     44 H22        -0.1443   -1.4676   -5.6516 H         1 <0>         0.1318
     45 H23         0.1177   -2.2555   -3.3361 H         1 <0>         0.1368
@<TRIPOS>BOND
     1    1    2 1
     2    1   23 1
     3    1   24 1
     4    1   25 1
     5    2    6 1
     6    2    3 1
     7    3    4 2
     8    3   17 1
     9    4    5 1
    10    5    6 2
    11    6    7 1
    12    7   12 1
    13    7   16 1
    14    7    8 1
    15    8    9 1
    16    8   26 1
    17    8   27 1
    18    9   15 1
    19    9   10 1
    20    9   28 1
    21   10   11 1
    22   10   29 1
    23   10   30 1
    24   11   12 1
    25   11   13 1
    26   11   31 1
    27   12   32 1
    28   12   33 1
    29   13   14 1
    30   13   34 1
    31   13   35 1
    32   14   15 1
    33   14   16 1
    34   14   36 1
    35   15   37 1
    36   15   38 1
    37   16   39 1
    38   16   40 1
    39   17   22 ar
    40   17   18 ar
    41   18   19 ar
    42   18   41 1
    43   19   20 ar
    44   19   42 1
    45   20   21 ar
    46   20   43 1
    47   21   22 ar
    48   21   44 1
    49   22   45 1
@<TRIPOS>MOLECULE
CHEMBL391374
   62    66     0     0     0
SMALL
USER_CHARGES

@<TRIPOS>ATOM
      1 C1         -0.3229    1.5316   -0.3072 C.3       1 <0>        -0.1159
      2 C2         -0.3430    0.0248   -0.2940 C.ar      1 <0>        -0.0906
      3 C3         -0.4782   -0.6750   -1.4784 C.ar      1 <0>        -0.1200
      4 C4         -0.4967   -2.0572   -1.4663 C.ar      1 <0>        -0.1107
      5 C5         -0.3794   -2.7395   -0.2698 C.ar      1 <0>        -0.0750
      6 C6         -0.2433   -2.0397    0.9145 C.ar      1 <0>        -0.1151
      7 C7         -0.2205   -0.6576    0.9019 C.ar      1 <0>        -0.1185
      8 C8         -0.4005   -4.2463   -0.2565 C.3       1 <0>        -0.0107
      9 C9          0.7580   -4.7801   -1.1014 C.3       1 <0>        -0.0997
     10 C10         0.7366   -6.3099   -1.0879 C.3       1 <0>        -0.0833
     11 C11        -0.5891   -6.8065   -1.6682 C.3       1 <0>        -0.1108
     12 C12        -1.7476   -6.2728   -0.8233 C.3       1 <0>        -0.0834
     13 C13        -1.7262   -4.7430   -0.8368 C.3       1 <0>        -0.0996
     14 C14        -1.6018   -6.7721    0.6156 C.3       1 <0>        -0.1138
     15 C15        -0.2761   -6.2755    1.1959 C.3       1 <0>        -0.0675
     16 C16         0.8824   -6.8093    0.3510 C.3       1 <0>        -0.1175
     17 C17        -0.2547   -4.7457    1.1824 C.3       1 <0>        -0.0801
     18 C18        -0.1325   -6.7674    2.6131 C.2       1 <0>         0.5263
     19 O1         -0.0008   -5.9732    3.5203 O.2       1 <0>        -0.5368
     20 N1         -0.1504   -8.0898    2.8725 N.am      1 <0>        -0.6111
     21 C19        -0.1879   -9.0731    1.7794 C.3       1 <0>         0.0883
     22 C20        -1.3323  -10.0561    2.0480 C.3       1 <0>         0.0361
     23 N2         -1.1773  -10.6276    3.3924 N.3       1 <0>        -0.5270
     24 C21        -1.2795   -9.5901    4.4274 C.3       1 <0>         0.0432
     25 C22        -0.1267   -8.5881    4.2562 C.3       1 <0>         0.1165
     26 C23        -2.1537  -11.7004    3.6242 C.3       1 <0>         0.0529
     27 C24        -1.7120  -12.9617    2.8792 C.3       1 <0>         0.0827
     28 O2         -0.4788  -13.4314    3.4274 O.3       1 <0>        -0.5593
     29 H1          0.7033    1.8803   -0.4234 H         1 <0>         0.0696
     30 H2         -0.9266    1.8958   -1.1385 H         1 <0>         0.0653
     31 H3         -0.7308    1.9087    0.6306 H         1 <0>         0.0655
     32 H4         -0.5698   -0.1420   -2.4132 H         1 <0>         0.1197
     33 H5         -0.6030   -2.6040   -2.3915 H         1 <0>         0.1196
     34 H6         -0.1520   -2.5728    1.8493 H         1 <0>         0.1273
     35 H7         -0.1104   -0.1108    1.8268 H         1 <0>         0.1201
     36 H8          0.6541   -4.4243   -2.1265 H         1 <0>         0.0673
     37 H9          1.7024   -4.4263   -0.6880 H         1 <0>         0.0654
     38 H10         1.5619   -6.6901   -1.6898 H         1 <0>         0.0781
     39 H11        -0.6930   -6.4508   -2.6933 H         1 <0>         0.0676
     40 H12        -0.6044   -7.8964   -1.6586 H         1 <0>         0.0640
     41 H13        -2.6920   -6.6266   -1.2367 H         1 <0>         0.0769
     42 H14        -2.5515   -4.3627   -0.2348 H         1 <0>         0.0646
     43 H15        -1.8301   -4.3872   -1.8619 H         1 <0>         0.0674
     44 H16        -2.4271   -6.3919    1.2176 H         1 <0>         0.0674
     45 H17        -1.6170   -7.8620    0.6252 H         1 <0>         0.0782
     46 H18         0.8671   -7.8991    0.3606 H         1 <0>         0.0805
     47 H19         1.8268   -6.4554    0.7644 H         1 <0>         0.0699
     48 H20         0.6898   -4.3919    1.5958 H         1 <0>         0.0734
     49 H21        -1.0800   -4.3654    1.7844 H         1 <0>         0.0719
     50 H22        -0.3595   -8.5614    0.8324 H         1 <0>         0.1160
     51 H23         0.7577   -9.6138    1.7406 H         1 <0>         0.0783
     52 H24        -2.2854   -9.5312    1.9836 H         1 <0>         0.0394
     53 H25        -1.3063  -10.8557    1.3077 H         1 <0>         0.0868
     54 H26        -2.2333   -9.0717    4.3298 H         1 <0>         0.0377
     55 H27        -1.2151  -10.0517    5.4127 H         1 <0>         0.0888
     56 H28         0.8247   -9.0830    4.4509 H         1 <0>         0.0765
     57 H29        -0.2578   -7.7556    4.9474 H         1 <0>         0.0952
     58 H30        -2.2148  -11.9116    4.6918 H         1 <0>         0.0832
     59 H31        -3.1317  -11.3866    3.2593 H         1 <0>         0.0512
     60 H32        -2.4747  -13.7330    2.9868 H         1 <0>         0.0482
     61 H33        -1.5755  -12.7306    1.8228 H         1 <0>         0.0440
     62 H34        -0.1384  -14.2304    3.0023 H         1 <0>         0.3756
@<TRIPOS>BOND
     1    1    2 1
     2    1   29 1
     3    1   30 1
     4    1   31 1
     5    2    7 ar
     6    2    3 ar
     7    3    4 ar
     8    3   32 1
     9    4    5 ar
    10    4   33 1
    11    5    6 ar
    12    5    8 1
    13    6    7 ar
    14    6   34 1
    15    7   35 1
    16    8   13 1
    17    8   17 1
    18    8    9 1
    19    9   10 1
    20    9   36 1
    21    9   37 1
    22   10   16 1
    23   10   11 1
    24   10   38 1
    25   11   12 1
    26   11   39 1
    27   11   40 1
    28   12   13 1
    29   12   14 1
    30   12   41 1
    31   13   42 1
    32   13   43 1
    33   14   15 1
    34   14   44 1
    35   14   45 1
    36   15   16 1
    37   15   17 1
    38   15   18 1
    39   16   46 1
    40   16   47 1
    41   17   48 1
    42   17   49 1
    43   18   19 2
    44   18   20 am
    45   20   25 1
    46   20   21 1
    47   21   22 1
    48   21   50 1
    49   21   51 1
    50   22   23 1
    51   22   52 1
    52   22   53 1
    53   23   24 1
    54   23   26 1
    55   24   25 1
    56   24   54 1
    57   24   55 1
    58   25   56 1
    59   25   57 1
    60   26   27 1
    61   26   58 1
    62   26   59 1
    63   27   28 1
    64   27   60 1
    65   27   61 1
    66   28   62 1
@<TRIPOS>MOLECULE
CHEMBL522572
   58    63     0     0     0
SMALL
USER_CHARGES

@<TRIPOS>ATOM
      1 C1          1.7462    0.6151    1.2981 C.3       1 <0>        -0.0698
      2 C2          1.0657   -0.1394    0.1851 C.2       1 <0>         0.0129
      3 C3          1.3099   -1.4156   -0.1681 C.2       1 <0>        -0.0520
      4 N1          0.4775   -1.7030   -1.2190 N.pl3     1 <0>        -0.4169
      5 C4         -0.2491   -0.5827   -1.4695 C.2       1 <0>         0.2558
      6 N2          0.1080    0.3424   -0.6209 N.2       1 <0>        -0.4744
      7 C5         -1.2954   -0.4346   -2.5439 C.3       1 <0>        -0.0959
      8 C6         -1.8571    0.9663   -2.7947 C.3       1 <0>        -0.1455
      9 C7         -2.7189   -0.0905   -2.1010 C.3       1 <0>        -0.1589
     10 C8          0.3925   -2.9215   -1.9051 C.ar      1 <0>         0.1521
     11 C9         -0.8474   -3.5131   -2.1164 C.ar      1 <0>        -0.1065
     12 C10        -0.9354   -4.7116   -2.7908 C.ar      1 <0>        -0.0722
     13 C11         0.2226   -5.3320   -3.2628 C.ar      1 <0>        -0.0018
     14 C12         1.4672   -4.7350   -3.0495 C.ar      1 <0>         0.0148
     15 C13         1.5470   -3.5325   -2.3776 C.ar      1 <0>        -0.1062
     16 Cl1         2.9108   -5.5016   -3.6342 Cl        1 <0>        -0.0243
     17 C14         0.1319   -6.6182   -3.9864 C.2       1 <0>         0.2011
     18 N3          0.8444   -7.6985   -3.7540 N.2       1 <0>        -0.2501
     19 N4          0.5014   -8.6288   -4.5721 N.2       1 <0>        -0.2795
     20 C15        -0.4416   -8.2009   -5.3676 C.2       1 <0>         0.2093
     21 N5         -0.7140   -6.9125   -5.0217 N.pl3     1 <0>        -0.4625
     22 C16        -1.7051   -6.0237   -5.6331 C.3       1 <0>         0.0639
     23 C17        -1.1097   -8.9901   -6.4639 C.3       1 <0>         0.0360
     24 C18        -0.2160  -10.0876   -7.0653 C.3       1 <0>        -0.1060
     25 C19        -0.7907   -9.6944   -8.4364 C.3       1 <0>        -0.1380
     26 C20        -1.0559   -8.3027   -7.8384 C.3       1 <0>        -0.1329
     27 C21        -2.4861   -9.4713   -6.0830 C.ar      1 <0>        -0.0607
     28 C22        -2.6371  -10.4063   -5.0760 C.ar      1 <0>        -0.0872
     29 C23        -3.8992  -10.8480   -4.7263 C.ar      1 <0>        -0.1055
     30 C24        -5.0116  -10.3542   -5.3842 C.ar      1 <0>        -0.0311
     31 C25        -4.8599   -9.4184   -6.3919 C.ar      1 <0>        -0.1076
     32 C26        -3.5977   -8.9733   -6.7369 C.ar      1 <0>        -0.1055
     33 Cl2        -6.5971  -10.9089   -4.9459 Cl        1 <0>        -0.0648
     34 H1          1.1918    0.4727    2.2256 H         1 <0>         0.0706
     35 H2          2.7628    0.2418    1.4215 H         1 <0>         0.0711
     36 H3          1.7763    1.6766    1.0521 H         1 <0>         0.0726
     37 H4          2.0246   -2.0843    0.2885 H         1 <0>         0.1794
     38 H5         -1.1816   -1.0931   -3.4049 H         1 <0>         0.1198
     39 H6         -1.4698    1.7808   -2.1826 H         1 <0>         0.1108
     40 H7         -2.1127    1.2297   -3.8210 H         1 <0>         0.1028
     41 H8         -3.5416   -0.5224   -2.6709 H         1 <0>         0.1034
     42 H9         -2.8986    0.0287   -1.0325 H         1 <0>         0.1007
     43 H10        -1.7431   -3.0330   -1.7511 H         1 <0>         0.1468
     44 H11        -1.8993   -5.1706   -2.9536 H         1 <0>         0.1445
     45 H12         2.5084   -3.0679   -2.2153 H         1 <0>         0.1500
     46 H13        -1.2683   -5.5380   -6.5057 H         1 <0>         0.0875
     47 H14        -2.5751   -6.6051   -5.9384 H         1 <0>         0.0946
     48 H15        -2.0094   -5.2668   -4.9103 H         1 <0>         0.0931
     49 H16         0.8505   -9.8860   -6.9648 H         1 <0>         0.0969
     50 H17        -0.4890  -11.0946   -6.7499 H         1 <0>         0.0812
     51 H18        -0.0499   -9.6922   -9.2360 H         1 <0>         0.0786
     52 H19        -1.6988  -10.2363   -8.7009 H         1 <0>         0.0877
     53 H20        -2.0070   -7.8688   -8.1471 H         1 <0>         0.0815
     54 H21        -0.2191   -7.6131   -7.9493 H         1 <0>         0.0891
     55 H22        -1.7687  -10.7920   -4.5627 H         1 <0>         0.1362
     56 H23        -4.0170  -11.5787   -3.9398 H         1 <0>         0.1369
     57 H24        -5.7278   -9.0328   -6.9061 H         1 <0>         0.1369
     58 H25        -3.4794   -8.2393   -7.5203 H         1 <0>         0.1372
@<TRIPOS>BOND
     1    1    2 1
     2    1   34 1
     3    1   35 1
     4    1   36 1
     5    2    6 1
     6    2    3 2
     7    3    4 1
     8    3   37 1
     9    4    5 1
    10    4   10 1
    11    5    6 2
    12    5    7 1
    13    7    9 1
    14    7    8 1
    15    7   38 1
    16    8    9 1
    17    8   39 1
    18    8   40 1
    19    9   41 1
    20    9   42 1
    21   10   15 ar
    22   10   11 ar
    23   11   12 ar
    24   11   43 1
    25   12   13 ar
    26   12   44 1
    27   13   14 ar
    28   13   17 1
    29   14   15 ar
    30   14   16 1
    31   15   45 1
    32   17   21 1
    33   17   18 2
    34   18   19 1
    35   19   20 2
    36   20   21 1
    37   20   23 1
    38   21   22 1
    39   22   46 1
    40   22   47 1
    41   22   48 1
    42   23   26 1
    43   23   24 1
    44   23   27 1
    45   24   25 1
    46   24   49 1
    47   24   50 1
    48   25   26 1
    49   25   51 1
    50   25   52 1
    51   26   53 1
    52   26   54 1
    53   27   32 ar
    54   27   28 ar
    55   28   29 ar
    56   28   55 1
    57   29   30 ar
    58   29   56 1
    59   30   31 ar
    60   30   33 1
    61   31   32 ar
    62   31   57 1
    63   32   58 1
@<TRIPOS>MOLECULE
CHEMBL522572__1
   59    64     0     0     0
SMALL
USER_CHARGES

@<TRIPOS>ATOM
      1 C1          1.7457    0.6151    1.2988 C.3       1 <0>        -0.1015
      2 C2          1.0656   -0.1394    0.1856 C.2       1 <0>         0.0439
      3 C3          1.3100   -1.4156   -0.1675 C.2       1 <0>         0.0258
      4 N1          0.4780   -1.7030   -1.2188 N.pl3     1 <0>        -0.3532
      5 C4         -0.2484   -0.5827   -1.4696 C.cat     1 <0>         0.3569
      6 N2          0.1082    0.3425   -0.6209 N.pl3     1 <0>        -0.4759
      7 C5         -1.2943   -0.4346   -2.5444 C.3       1 <0>        -0.1454
      8 C6         -1.4374    0.9372   -3.2067 C.3       1 <0>        -0.1426
      9 C7         -2.5085    0.4426   -2.2326 C.3       1 <0>        -0.1429
     10 C8          0.3933   -2.9215   -1.9050 C.ar      1 <0>         0.0937
     11 C9         -0.8465   -3.5131   -2.1168 C.ar      1 <0>        -0.0919
     12 C10        -0.9342   -4.7116   -2.7912 C.ar      1 <0>        -0.0725
     13 C11         0.2240   -5.3320   -3.2628 C.ar      1 <0>         0.0414
     14 C12         1.4685   -4.7349   -3.0489 C.ar      1 <0>         0.0084
     15 C13         1.5480   -3.5325   -2.3770 C.ar      1 <0>        -0.0809
     16 Cl1         2.9124   -5.5016   -3.6330 Cl        1 <0>         0.0010
     17 C14         0.1336   -6.6182   -3.9864 C.2       1 <0>         0.1734
     18 N3          0.8460   -7.6985   -3.7537 N.2       1 <0>        -0.2379
     19 N4          0.5034   -8.6287   -4.5720 N.2       1 <0>        -0.2744
     20 C15        -0.4393   -8.2009   -5.3679 C.2       1 <0>         0.2259
     21 N5         -0.7118   -6.9124   -5.0220 N.pl3     1 <0>        -0.4609
     22 C16        -1.7027   -6.0237   -5.6339 C.3       1 <0>         0.0623
     23 C17        -1.1070   -8.9901   -6.4644 C.3       1 <0>         0.0329
     24 C18        -0.2130  -10.0875   -7.0655 C.3       1 <0>        -0.1069
     25 C19        -0.7871   -9.6944   -8.4368 C.3       1 <0>        -0.1379
     26 C20        -1.0526   -8.3027   -7.8389 C.3       1 <0>        -0.1327
     27 C21        -2.4836   -9.4713   -6.0841 C.ar      1 <0>        -0.0648
     28 C22        -2.6350  -10.4063   -5.0772 C.ar      1 <0>        -0.0876
     29 C23        -3.8972  -10.8480   -4.7280 C.ar      1 <0>        -0.1048
     30 C24        -5.0093  -10.3541   -5.3864 C.ar      1 <0>        -0.0299
     31 C25        -4.8572   -9.4184   -6.3941 C.ar      1 <0>        -0.1072
     32 C26        -3.5948   -8.9733   -6.7385 C.ar      1 <0>        -0.1056
     33 Cl2        -6.5950  -10.9088   -4.9488 Cl        1 <0>        -0.0604
     34 H1          1.1910    0.4723    2.2263 H         1 <0>         0.1034
     35 H2          2.7624    0.2421    1.4224 H         1 <0>         0.1099
     36 H3          1.7754    1.6766    1.0530 H         1 <0>         0.0926
     37 H4          2.0245   -2.0843    0.2893 H         1 <0>         0.2273
     38 H5         -1.4556   -1.3141   -3.1678 H         1 <0>         0.1576
     39 H6         -0.7750    1.7326   -2.8650 H         1 <0>         0.1083
     40 H7         -1.6927    0.9604   -4.2661 H         1 <0>         0.1317
     41 H8         -3.4685    0.1404   -2.6511 H         1 <0>         0.1321
     42 H9         -2.5508    0.9126   -1.2500 H         1 <0>         0.1088
     43 H10        -1.7424   -3.0330   -1.7518 H         1 <0>         0.1530
     44 H11        -1.8981   -5.1706   -2.9545 H         1 <0>         0.1567
     45 H12         2.5093   -3.0679   -2.2143 H         1 <0>         0.1589
     46 H13        -1.2655   -5.5379   -6.5063 H         1 <0>         0.0902
     47 H14        -2.5726   -6.6051   -5.9396 H         1 <0>         0.0995
     48 H15        -2.0073   -5.2668   -4.9112 H         1 <0>         0.0898
     49 H16         0.8534   -9.8859   -6.9645 H         1 <0>         0.0973
     50 H17        -0.4861  -11.0946   -6.7502 H         1 <0>         0.0835
     51 H18        -0.0460   -9.6921   -9.2361 H         1 <0>         0.0807
     52 H19        -1.6951  -10.2362   -8.7017 H         1 <0>         0.0897
     53 H20        -2.0035   -7.8688   -8.1481 H         1 <0>         0.0827
     54 H21        -0.2157   -7.6131   -7.9494 H         1 <0>         0.0885
     55 H22        -1.7667  -10.7920   -4.5636 H         1 <0>         0.1361
     56 H23        -4.0154  -11.5787   -3.9416 H         1 <0>         0.1381
     57 H24        -5.7249   -9.0328   -6.9086 H         1 <0>         0.1380
     58 H25        -3.4762   -8.2393   -7.5219 H         1 <0>         0.1371
     59 H26        -0.2597    1.2391   -0.5811 H         1 <0>         0.4605
@<TRIPOS>BOND
     1    1    2 1
     2    1   34 1
     3    1   35 1
     4    1   36 1
     5    2    6 1
     6    2    3 2
     7    3    4 1
     8    3   37 1
     9    4    5 1
    10    4   10 1
    11    5    6 2
    12    5    7 1
    13    6   59 1
    14    7    9 1
    15    7    8 1
    16    7   38 1
    17    8    9 1
    18    8   39 1
    19    8   40 1
    20    9   41 1
    21    9   42 1
    22   10   15 ar
    23   10   11 ar
    24   11   12 ar
    25   11   43 1
    26   12   13 ar
    27   12   44 1
    28   13   14 ar
    29   13   17 1
    30   14   15 ar
    31   14   16 1
    32   15   45 1
    33   17   21 1
    34   17   18 2
    35   18   19 1
    36   19   20 2
    37   20   21 1
    38   20   23 1
    39   21   22 1
    40   22   46 1
    41   22   47 1
    42   22   48 1
    43   23   26 1
    44   23   24 1
    45   23   27 1
    46   24   25 1
    47   24   49 1
    48   24   50 1
    49   25   26 1
    50   25   51 1
    51   25   52 1
    52   26   53 1
    53   26   54 1
    54   27   32 ar
    55   27   28 ar
    56   28   29 ar
    57   28   55 1
    58   29   30 ar
    59   29   56 1
    60   30   31 ar
    61   30   33 1
    62   31   32 ar
    63   31   57 1
    64   32   58 1
@<TRIPOS>MOLECULE
CHEMBL240269
   33    35     0     0     0
SMALL
USER_CHARGES

@<TRIPOS>ATOM
      1 C1          0.1918    1.3296    0.8768 C.ar      1 <0>        -0.1163
      2 C2          1.2056    2.0750    0.3034 C.ar      1 <0>        -0.1455
      3 C3          2.2304    1.4453   -0.3785 C.ar      1 <0>        -0.1456
      4 C4          2.2445    0.0667   -0.4885 C.ar      1 <0>         0.0681
      5 C5          1.2262   -0.6848    0.0878 C.ar      1 <0>         0.1330
      6 C6          0.1993   -0.0478    0.7710 C.ar      1 <0>        -0.1326
      7 N1          1.2362   -2.0804   -0.0214 N.2       1 <0>        -0.5716
      8 C7          0.0704   -2.7822    0.0894 C.2       1 <0>         0.4741
      9 N2         -1.1698   -2.3121    0.1154 N.2       1 <0>        -0.7267
     10 C8         -2.2384   -3.0531    0.2245 C.2       1 <0>         0.5235
     11 O1         -3.3582   -2.5804    0.2439 O.2       1 <0>        -0.5467
     12 C9         -1.9846   -4.5524    0.3252 C.3       1 <0>        -0.1100
     13 S1         -0.1449   -4.5517    0.2259 S.3       1 <0>        -0.2408
     14 C10        -2.6023   -5.3043   -0.8555 C.3       1 <0>        -0.0586
     15 C11        -1.8256   -4.9972   -2.1599 C.3       1 <0>        -0.1345
     16 C12        -2.1488   -6.2249   -3.0473 C.3       1 <0>        -0.1198
     17 C13        -2.1534   -7.4126   -2.0628 C.3       1 <0>        -0.1191
     18 C14        -2.4417   -6.8273   -0.6692 C.3       1 <0>        -0.1179
     19 F1          3.2456   -0.5487   -1.1550 F         1 <0>        -0.1431
     20 H1         -0.6049    1.8247    1.4121 H         1 <0>         0.1145
     21 H2          1.1966    3.1516    0.3881 H         1 <0>         0.1170
     22 H3          3.0204    2.0304   -0.8258 H         1 <0>         0.1229
     23 H4         -0.5930   -0.6286    1.2197 H         1 <0>         0.1455
     24 H5         -2.3357   -4.9527    1.2763 H         1 <0>         0.1195
     25 H6         -3.6546   -5.0422   -0.9650 H         1 <0>         0.0871
     26 H7         -2.1922   -4.0801   -2.6210 H         1 <0>         0.0600
     27 H8         -0.7550   -4.9321   -1.9658 H         1 <0>         0.0953
     28 H9         -3.1277   -6.1118   -3.5131 H         1 <0>         0.0593
     29 H10        -1.3778   -6.3610   -3.8057 H         1 <0>         0.0623
     30 H11        -2.9331   -8.1228   -2.3381 H         1 <0>         0.0576
     31 H12        -1.1810   -7.9049   -2.0671 H         1 <0>         0.0623
     32 H13        -1.6092   -7.0355    0.0028 H         1 <0>         0.0662
     33 H14        -3.3614   -7.2534   -0.2682 H         1 <0>         0.0606
@<TRIPOS>BOND
     1    1    6 ar
     2    1    2 ar
     3    1   20 1
     4    2    3 ar
     5    2   21 1
     6    3    4 ar
     7    3   22 1
     8    4    5 ar
     9    4   19 1
    10    5    6 ar
    11    5    7 1
    12    6   23 1
    13    7    8 1
    14    8   13 1
    15    8    9 2
    16    9   10 1
    17   10   11 2
    18   10   12 1
    19   12   13 1
    20   12   14 1
    21   12   24 1
    22   14   18 1
    23   14   15 1
    24   14   25 1
    25   15   16 1
    26   15   26 1
    27   15   27 1
    28   16   17 1
    29   16   28 1
    30   16   29 1
    31   17   18 1
    32   17   30 1
    33   17   31 1
    34   18   32 1
    35   18   33 1
@<TRIPOS>MOLECULE
CHEMBL240269__1
   33    35     0     0     0
SMALL
USER_CHARGES

@<TRIPOS>ATOM
      1 C1          0.1918    1.3296    0.8768 C.ar      1 <0>        -0.1163
      2 C2          1.2055    2.0750    0.3034 C.ar      1 <0>        -0.1456
      3 C3          2.2304    1.4453   -0.3785 C.ar      1 <0>        -0.1457
      4 C4          2.2445    0.0667   -0.4885 C.ar      1 <0>         0.0678
      5 C5          1.2262   -0.6848    0.0878 C.ar      1 <0>         0.1330
      6 C6          0.1993   -0.0478    0.7710 C.ar      1 <0>        -0.1323
      7 N1          1.2362   -2.0804   -0.0214 N.2       1 <0>        -0.5718
      8 C7          0.0704   -2.7822    0.0894 C.2       1 <0>         0.4729
      9 N2         -1.1698   -2.3121    0.1154 N.2       1 <0>        -0.7271
     10 C8         -2.2384   -3.0531    0.2245 C.2       1 <0>         0.5236
     11 O1         -3.3582   -2.5804    0.2439 O.2       1 <0>        -0.5467
     12 C9         -1.9846   -4.5524    0.3252 C.3       1 <0>        -0.1111
     13 S1         -0.1449   -4.5517    0.2259 S.3       1 <0>        -0.2391
     14 C10        -2.4775   -5.1142    1.6602 C.3       1 <0>        -0.0565
     15 C11        -1.6942   -4.4735    2.8246 C.3       1 <0>        -0.1307
     16 C12        -1.5170   -5.6268    3.8432 C.3       1 <0>        -0.1181
     17 C13        -1.2671   -6.8532    2.9309 C.3       1 <0>        -0.1197
     18 C14        -2.2059   -6.6273    1.7278 C.3       1 <0>        -0.1172
     19 F1          3.2456   -0.5487   -1.1550 F         1 <0>        -0.1432
     20 H1         -0.6049    1.8248    1.4121 H         1 <0>         0.1144
     21 H2          1.1966    3.1516    0.3880 H         1 <0>         0.1169
     22 H3          3.0204    2.0304   -0.8258 H         1 <0>         0.1228
     23 H4         -0.5930   -0.6285    1.2197 H         1 <0>         0.1458
     24 H5         -2.4247   -5.0881   -0.5160 H         1 <0>         0.1171
     25 H6         -3.5439   -4.9208    1.7755 H         1 <0>         0.0854
     26 H7         -0.7238   -4.1159    2.4805 H         1 <0>         0.0862
     27 H8         -2.2672   -3.6585    3.2669 H         1 <0>         0.0592
     28 H9         -0.6576   -5.4437    4.4883 H         1 <0>         0.0631
     29 H10        -2.4228   -5.7630    4.4340 H         1 <0>         0.0603
     30 H11        -0.2276   -6.8800    2.6039 H         1 <0>         0.0692
     31 H12        -1.5283   -7.7750    3.4508 H         1 <0>         0.0582
     32 H13        -3.1405   -7.1681    1.8767 H         1 <0>         0.0609
     33 H14        -1.7230   -6.9614    0.8095 H         1 <0>         0.0644
@<TRIPOS>BOND
     1    1    6 ar
     2    1    2 ar
     3    1   20 1
     4    2    3 ar
     5    2   21 1
     6    3    4 ar
     7    3   22 1
     8    4    5 ar
     9    4   19 1
    10    5    6 ar
    11    5    7 1
    12    6   23 1
    13    7    8 1
    14    8   13 1
    15    8    9 2
    16    9   10 1
    17   10   11 2
    18   10   12 1
    19   12   13 1
    20   12   14 1
    21   12   24 1
    22   14   18 1
    23   14   15 1
    24   14   25 1
    25   15   16 1
    26   15   26 1
    27   15   27 1
    28   16   17 1
    29   16   28 1
    30   16   29 1
    31   17   18 1
    32   17   30 1
    33   17   31 1
    34   18   32 1
    35   18   33 1
@<TRIPOS>MOLECULE
CHEMBL552159
   59    62     0     0     0
SMALL
USER_CHARGES

@<TRIPOS>ATOM
      1 C1         -0.0187    1.5258    0.0104 C.3       1 <0>        -0.1467
      2 C2          0.0021   -0.0041    0.0020 C.3       1 <0>        -0.0119
      3 C3          0.7421   -0.5109    1.2415 C.3       1 <0>        -0.1472
      4 C4         -1.4117   -0.5257    0.0127 C.2       1 <0>         0.2573
      5 N1         -1.9605   -1.3047   -0.9262 N.2       1 <0>        -0.5396
      6 C5         -3.1975   -1.5768   -0.6154 C.2       1 <0>         0.3024
      7 O1         -3.4806   -0.9728    0.5456 O.3       1 <0>        -0.1059
      8 N2         -2.2964   -0.2961    0.9401 N.2       1 <0>        -0.3386
      9 C6         -4.1451   -2.4251   -1.4237 C.3       1 <0>        -0.0349
     10 C7         -4.0278   -3.8847   -0.9804 C.3       1 <0>        -0.0387
     11 C8         -2.5939   -4.3709   -1.2004 C.3       1 <0>        -0.1544
     12 C9         -4.3823   -3.9970    0.5038 C.3       1 <0>        -0.1595
     13 C10        -4.9899   -4.7459   -1.8011 C.3       1 <0>        -0.1326
     14 C11        -4.8743   -6.1836   -1.3644 C.2       1 <0>         0.5162
     15 O2         -4.0988   -6.4893   -0.4834 O.2       1 <0>        -0.5262
     16 N3         -5.6328   -7.1297   -1.9527 N.am      1 <0>        -0.7251
     17 C12        -5.5205   -8.5273   -1.5282 C.3       1 <0>         0.1584
     18 C13        -4.3655   -9.1962   -2.2762 C.3       1 <0>        -0.0943
     19 C14        -4.6325   -9.1404   -3.7816 C.3       1 <0>        -0.1061
     20 C15        -5.9372   -9.8753   -4.0958 C.3       1 <0>        -0.0873
     21 C16        -5.8199  -11.3349   -3.6524 C.3       1 <0>        -0.1085
     22 C17        -5.5528  -11.3908   -2.1469 C.3       1 <0>        -0.0885
     23 C18        -4.2482  -10.6559   -1.8328 C.3       1 <0>        -0.1072
     24 C19        -6.7078  -10.7218   -1.3990 C.3       1 <0>        -0.1057
     25 C20        -6.8251   -9.2622   -1.8423 C.3       1 <0>        -0.0930
     26 C21        -7.0922   -9.2063   -3.3478 C.3       1 <0>        -0.1089
     27 H1          1.0039    1.9031    0.0027 H         1 <0>         0.0753
     28 H2         -0.5459    1.8868   -0.8726 H         1 <0>         0.0598
     29 H3         -0.5289    1.8773    0.9072 H         1 <0>         0.0641
     30 H4          0.5123   -0.3556   -0.8948 H         1 <0>         0.1065
     31 H5          0.2319   -0.1594    2.1383 H         1 <0>         0.0641
     32 H6          0.7568   -1.6008    1.2356 H         1 <0>         0.0603
     33 H7          1.7647   -0.1336    1.2338 H         1 <0>         0.0753
     34 H8         -5.1667   -2.0787   -1.2670 H         1 <0>         0.1051
     35 H9         -3.8926   -2.3451   -2.4811 H         1 <0>         0.1148
     36 H10        -1.9084   -3.7573   -0.6157 H         1 <0>         0.0527
     37 H11        -2.5103   -5.4107   -0.8845 H         1 <0>         0.0878
     38 H12        -2.3413   -4.2909   -2.2577 H         1 <0>         0.0538
     39 H13        -5.4038   -3.6506    0.6605 H         1 <0>         0.0537
     40 H14        -4.2987   -5.0368    0.8196 H         1 <0>         0.0917
     41 H15        -3.6968   -3.3834    1.0885 H         1 <0>         0.0492
     42 H16        -6.0114   -4.3996   -1.6443 H         1 <0>         0.0985
     43 H17        -4.7374   -4.6659   -2.8584 H         1 <0>         0.0991
     44 H18        -6.2531   -6.8851   -2.6573 H         1 <0>         0.3985
     45 H19        -5.3302   -8.5671   -0.4557 H         1 <0>         0.0877
     46 H20        -3.4360   -8.6727   -2.0524 H         1 <0>         0.0745
     47 H21        -4.7161   -8.1005   -4.0975 H         1 <0>         0.0605
     48 H22        -3.8097   -9.6170   -4.3145 H         1 <0>         0.0622
     49 H23        -6.1274   -9.8355   -5.1683 H         1 <0>         0.0703
     50 H24        -6.7493  -11.8585   -3.8762 H         1 <0>         0.0622
     51 H25        -4.9970  -11.8115   -4.1853 H         1 <0>         0.0625
     52 H26        -5.4692  -12.4306   -1.8311 H         1 <0>         0.0720
     53 H27        -3.4253  -11.1324   -2.3657 H         1 <0>         0.0653
     54 H28        -4.0579  -10.6956   -0.7603 H         1 <0>         0.0641
     55 H29        -7.6373  -11.2453   -1.6228 H         1 <0>         0.0680
     56 H30        -6.5176  -10.7616   -0.3264 H         1 <0>         0.0652
     57 H31        -7.6480   -8.7856   -1.3095 H         1 <0>         0.0756
     58 H32        -7.1757   -8.1665   -3.6637 H         1 <0>         0.0591
     59 H33        -8.0216   -9.7299   -3.5716 H         1 <0>         0.0673
@<TRIPOS>BOND
     1    1    2 1
     2    1   27 1
     3    1   28 1
     4    1   29 1
     5    2    3 1
     6    2    4 1
     7    2   30 1
     8    3   31 1
     9    3   32 1
    10    3   33 1
    11    4    8 2
    12    4    5 1
    13    5    6 2
    14    6    7 1
    15    6    9 1
    16    7    8 1
    17    9   10 1
    18    9   34 1
    19    9   35 1
    20   10   11 1
    21   10   12 1
    22   10   13 1
    23   11   36 1
    24   11   37 1
    25   11   38 1
    26   12   39 1
    27   12   40 1
    28   12   41 1
    29   13   14 1
    30   13   42 1
    31   13   43 1
    32   14   15 2
    33   14   16 am
    34   16   17 1
    35   16   44 1
    36   17   25 1
    37   17   18 1
    38   17   45 1
    39   18   23 1
    40   18   19 1
    41   18   46 1
    42   19   20 1
    43   19   47 1
    44   19   48 1
    45   20   26 1
    46   20   21 1
    47   20   49 1
    48   21   22 1
    49   21   50 1
    50   21   51 1
    51   22   23 1
    52   22   24 1
    53   22   52 1
    54   23   53 1
    55   23   54 1
    56   24   25 1
    57   24   55 1
    58   24   56 1
    59   25   26 1
    60   25   57 1
    61   26   58 1
    62   26   59 1
@<TRIPOS>MOLECULE
CHEMBL222511
   70    75     0     0     0
SMALL
USER_CHARGES

@<TRIPOS>ATOM
      1 C1          4.0521   -1.5207    2.4526 C.ar      1 <0>         0.0189
      2 C2          4.1331   -0.5183    1.5027 C.ar      1 <0>        -0.2435
      3 C3          4.5842    0.7408    1.8847 C.ar      1 <0>         0.4329
      4 N1          4.9322    0.9798    3.1399 N.ar      1 <0>        -0.5404
      5 C4          4.8652    0.0431    4.0667 C.ar      1 <0>         0.2119
      6 C5          4.4264   -1.2290    3.7573 C.ar      1 <0>        -0.3061
      7 C6          4.3541   -2.2898    4.8252 C.3       1 <0>         0.5210
      8 F1          5.5703   -2.9790    4.8810 F         1 <0>        -0.1780
      9 F2          4.1014   -1.6890    6.0631 F         1 <0>        -0.1776
     10 F3          3.3235   -3.1863    4.5229 F         1 <0>        -0.1786
     11 N2          4.6710    1.7572    0.9404 N.pl3     1 <0>        -0.5993
     12 C7          5.0381    3.1255    1.3357 C.3       1 <0>         0.1265
     13 C8          6.1827    3.6018    0.4350 C.3       1 <0>         0.0354
     14 N3          5.7917    3.4456   -0.9723 N.3       1 <0>        -0.5175
     15 C9          5.5679    2.0335   -1.3096 C.3       1 <0>         0.0272
     16 C10         4.4040    1.4916   -0.4813 C.3       1 <0>         0.1260
     17 C11         6.7895    4.0485   -1.8661 C.3       1 <0>         0.0658
     18 C12         8.2420    3.7704   -1.4445 C.3       1 <0>        -0.1561
     19 C13         8.5516    5.2245   -1.8376 C.3       1 <0>        -0.1366
     20 C14         7.0692    5.5307   -1.5663 C.3       1 <0>        -0.1152
     21 C15         6.5170    3.7680   -3.3214 C.2       1 <0>         0.5453
     22 O1          7.4400    3.5897   -4.0878 O.2       1 <0>        -0.5282
     23 N4          5.2477    3.7151   -3.7714 N.am      1 <0>        -0.7139
     24 C16         4.9843    3.5390   -5.2017 C.3       1 <0>         0.1533
     25 C17         5.0194    4.9008   -5.8982 C.3       1 <0>        -0.0918
     26 C18         3.9505    5.8117   -5.2912 C.3       1 <0>        -0.1080
     27 C19         2.5714    5.1769   -5.4815 C.3       1 <0>        -0.0836
     28 C20         2.5364    3.8151   -4.7850 C.3       1 <0>        -0.1115
     29 C21         3.6053    2.9041   -5.3920 C.3       1 <0>        -0.0914
     30 C22         3.3302    2.7202   -6.8858 C.3       1 <0>        -0.0855
     31 C23         3.3653    4.0820   -7.5823 C.3       1 <0>        -0.0728
     32 C24         2.2964    4.9930   -6.9753 C.3       1 <0>        -0.1002
     33 C25         4.7443    4.7168   -7.3920 C.3       1 <0>        -0.0984
     34 C26         3.0944    3.9008   -9.0536 C.2       1 <0>         0.5265
     35 O2          2.8930    2.7917   -9.5011 O.2       1 <0>        -0.5394
     36 N5          3.0758    4.9713   -9.8722 N.am      1 <0>        -0.8547
     37 H1          3.7014   -2.5068    2.1862 H         1 <0>         0.1458
     38 H2          3.8502   -0.7108    0.4783 H         1 <0>         0.1436
     39 H3          5.1574    0.2743    5.0803 H         1 <0>         0.1675
     40 H4          4.1785    3.7847    1.2147 H         1 <0>         0.0747
     41 H5          5.3640    3.1312    2.3758 H         1 <0>         0.1044
     42 H6          6.3938    4.6514    0.6395 H         1 <0>         0.0955
     43 H7          7.0736    3.0059    0.6332 H         1 <0>         0.0493
     44 H8          5.3330    1.9457   -2.3704 H         1 <0>         0.0943
     45 H9          6.4673    1.4594   -1.0871 H         1 <0>         0.0455
     46 H10         4.3108    0.4175   -0.6419 H         1 <0>         0.0915
     47 H11         3.4822    1.9906   -0.7803 H         1 <0>         0.0811
     48 H12         8.3571    3.5722   -0.3789 H         1 <0>         0.0921
     49 H13         8.7445    3.0326   -2.0700 H         1 <0>         0.0787
     50 H14         9.2338    5.7265   -1.1515 H         1 <0>         0.0741
     51 H15         8.8378    5.3428   -2.8827 H         1 <0>         0.0897
     52 H16         6.6250    6.2140   -2.2901 H         1 <0>         0.0745
     53 H17         6.8637    5.8137   -0.5340 H         1 <0>         0.0974
     54 H18         4.5086    3.7937   -3.1482 H         1 <0>         0.4075
     55 H19         5.7458    2.8900   -5.6342 H         1 <0>         0.0904
     56 H20         6.0018    5.3530   -5.7627 H         1 <0>         0.0793
     57 H21         4.1464    5.9428   -4.2270 H         1 <0>         0.0666
     58 H22         3.9754    6.7819   -5.7875 H         1 <0>         0.0651
     59 H23         1.8099    5.8259   -5.0490 H         1 <0>         0.0779
     60 H24         2.7324    3.9462   -3.7208 H         1 <0>         0.0642
     61 H25         1.5539    3.3629   -4.9205 H         1 <0>         0.0706
     62 H26         3.5803    1.9340   -4.8957 H         1 <0>         0.0819
     63 H27         4.0917    2.0712   -7.3182 H         1 <0>         0.0738
     64 H28         2.3478    2.2679   -7.0213 H         1 <0>         0.0775
     65 H29         1.3139    4.5407   -7.1108 H         1 <0>         0.0702
     66 H30         2.3213    5.9631   -7.4715 H         1 <0>         0.0679
     67 H31         4.7693    5.6870   -7.8883 H         1 <0>         0.0711
     68 H32         5.5058    4.0678   -7.8245 H         1 <0>         0.0715
     69 H33         3.2368    5.8584   -9.5144 H         1 <0>         0.4006
     70 H34         2.9014    4.8547  -10.8193 H         1 <0>         0.4020
@<TRIPOS>BOND
     1    1    6 ar
     2    1    2 ar
     3    1   37 1
     4    2    3 ar
     5    2   38 1
     6    3    4 ar
     7    3   11 1
     8    4    5 ar
     9    5    6 ar
    10    5   39 1
    11    6    7 1
    12    7    8 1
    13    7    9 1
    14    7   10 1
    15   11   16 1
    16   11   12 1
    17   12   13 1
    18   12   40 1
    19   12   41 1
    20   13   14 1
    21   13   42 1
    22   13   43 1
    23   14   15 1
    24   14   17 1
    25   15   16 1
    26   15   44 1
    27   15   45 1
    28   16   46 1
    29   16   47 1
    30   17   20 1
    31   17   18 1
    32   17   21 1
    33   18   19 1
    34   18   48 1
    35   18   49 1
    36   19   20 1
    37   19   50 1
    38   19   51 1
    39   20   52 1
    40   20   53 1
    41   21   22 2
    42   21   23 am
    43   23   24 1
    44   23   54 1
    45   24   29 1
    46   24   25 1
    47   24   55 1
    48   25   33 1
    49   25   26 1
    50   25   56 1
    51   26   27 1
    52   26   57 1
    53   26   58 1
    54   27   32 1
    55   27   28 1
    56   27   59 1
    57   28   29 1
    58   28   60 1
    59   28   61 1
    60   29   30 1
    61   29   62 1
    62   30   31 1
    63   30   63 1
    64   30   64 1
    65   31   32 1
    66   31   33 1
    67   31   34 1
    68   32   65 1
    69   32   66 1
    70   33   67 1
    71   33   68 1
    72   34   35 2
    73   34   36 am
    74   36   69 1
    75   36   70 1
@<TRIPOS>MOLECULE
CHEMBL563234
   60    63     0     0     0
SMALL
USER_CHARGES

@<TRIPOS>ATOM
      1 C1         -0.0187    1.5258    0.0104 C.3       1 <0>        -0.1638
      2 C2          0.0021   -0.0041    0.0020 C.3       1 <0>        -0.0246
      3 C3          0.7421   -0.5109    1.2415 C.3       1 <0>        -0.1646
      4 C4         -1.4333   -0.5336    0.0129 C.3       1 <0>        -0.1343
      5 C5         -2.1387   -0.0476    1.2528 C.2       1 <0>         0.5182
      6 O1         -1.5512    0.6533    2.0493 O.2       1 <0>        -0.5202
      7 N1         -3.4224   -0.3919    1.4765 N.am      1 <0>        -0.7071
      8 C6         -4.1081    0.0805    2.6818 C.3       1 <0>         0.0784
      9 C7         -4.9687   -0.9276    3.4460 C.3       1 <0>        -0.1935
     10 C8         -5.6338    0.1841    2.6319 C.3       1 <0>        -0.1897
     11 C9          0.7182   -0.4975   -1.2568 C.3       1 <0>        -0.1353
     12 C10         2.1320    0.0241   -1.2675 C.2       1 <0>         0.5150
     13 O2          2.5279    0.7218   -0.3579 O.2       1 <0>        -0.5217
     14 N2          2.9565   -0.2847   -2.2879 N.am      1 <0>        -0.7272
     15 C11         4.3309    0.2224   -2.2983 C.3       1 <0>         0.1567
     16 C12         4.3512    1.6287   -2.9006 C.3       1 <0>        -0.0925
     17 C13         3.8155    1.5778   -4.3329 C.3       1 <0>        -0.1076
     18 C14         4.6950    0.6502   -5.1737 C.3       1 <0>        -0.0844
     19 C15         4.6747   -0.7561   -4.5714 C.3       1 <0>        -0.1112
     20 C16         5.2104   -0.7052   -3.1391 C.3       1 <0>        -0.0931
     21 C17         6.6458   -0.1756   -3.1500 C.3       1 <0>        -0.0857
     22 C18         6.6660    1.2307   -3.7523 C.3       1 <0>        -0.0731
     23 C19         6.1303    1.1798   -5.1845 C.3       1 <0>        -0.1000
     24 C20         5.7865    2.1583   -2.9115 C.3       1 <0>        -0.0985
     25 C21         8.0798    1.7523   -3.7630 C.2       1 <0>         0.5266
     26 O3          8.9824    1.0668   -3.3314 O.2       1 <0>        -0.5395
     27 N3          8.3412    2.9806   -4.2522 N.am      1 <0>        -0.8548
     28 H1          1.0039    1.9031    0.0027 H         1 <0>         0.0809
     29 H2         -0.5459    1.8868   -0.8726 H         1 <0>         0.0361
     30 H3         -0.5289    1.8773    0.9072 H         1 <0>         0.0793
     31 H4          0.2319   -0.1594    2.1383 H         1 <0>         0.0795
     32 H5          0.7568   -1.6008    1.2356 H         1 <0>         0.0364
     33 H6          1.7647   -0.1336    1.2338 H         1 <0>         0.0811
     34 H7         -1.9605   -0.1726   -0.8702 H         1 <0>         0.0935
     35 H8         -1.4185   -1.6235    0.0069 H         1 <0>         0.0935
     36 H9         -3.8923   -0.9525    0.8394 H         1 <0>         0.4006
     37 H10        -3.5717    0.8290    3.2650 H         1 <0>         0.1382
     38 H11        -5.0247   -1.9423    3.0519 H         1 <0>         0.0966
     39 H12        -4.9985   -0.8425    4.5323 H         1 <0>         0.1027
     40 H13        -6.1011    1.0005    3.1825 H         1 <0>         0.1039
     41 H14        -6.1273   -0.0993    1.7022 H         1 <0>         0.0970
     42 H15         0.7330   -1.5874   -1.2628 H         1 <0>         0.0921
     43 H16         0.1910   -0.1364   -2.1398 H         1 <0>         0.0919
     44 H17         2.6400   -0.8427   -3.0154 H         1 <0>         0.3977
     45 H18         4.7126    0.2586   -1.2779 H         1 <0>         0.0899
     46 H19         3.7246    2.2895   -2.3016 H         1 <0>         0.0815
     47 H20         2.7929    1.2006   -4.3251 H         1 <0>         0.0651
     48 H21         3.8299    2.5797   -4.7619 H         1 <0>         0.0647
     49 H22         4.3133    0.6140   -6.1940 H         1 <0>         0.0771
     50 H23         3.6522   -1.1334   -4.5636 H         1 <0>         0.0629
     51 H24         5.3013   -1.4169   -5.1704 H         1 <0>         0.0700
     52 H25         5.1960   -1.7071   -2.7100 H         1 <0>         0.0822
     53 H26         7.0275   -0.1394   -2.1296 H         1 <0>         0.0740
     54 H27         7.2724   -0.8365   -3.7490 H         1 <0>         0.0766
     55 H28         6.7569    0.5190   -5.7835 H         1 <0>         0.0699
     56 H29         6.1447    2.1817   -5.6136 H         1 <0>         0.0678
     57 H30         5.8009    3.1602   -3.3406 H         1 <0>         0.0704
     58 H31         6.1682    2.1945   -1.8911 H         1 <0>         0.0718
     59 H32         7.6194    3.5289   -4.5974 H         1 <0>         0.4006
     60 H33         9.2513    3.3164   -4.2591 H         1 <0>         0.4019
@<TRIPOS>BOND
     1    1    2 1
     2    1   28 1
     3    1   29 1
     4    1   30 1
     5    2    3 1
     6    2    4 1
     7    2   11 1
     8    3   31 1
     9    3   32 1
    10    3   33 1
    11    4    5 1
    12    4   34 1
    13    4   35 1
    14    5    6 2
    15    5    7 am
    16    7    8 1
    17    7   36 1
    18    8   10 1
    19    8    9 1
    20    8   37 1
    21    9   10 1
    22    9   38 1
    23    9   39 1
    24   10   40 1
    25   10   41 1
    26   11   12 1
    27   11   42 1
    28   11   43 1
    29   12   13 2
    30   12   14 am
    31   14   15 1
    32   14   44 1
    33   15   20 1
    34   15   16 1
    35   15   45 1
    36   16   24 1
    37   16   17 1
    38   16   46 1
    39   17   18 1
    40   17   47 1
    41   17   48 1
    42   18   23 1
    43   18   19 1
    44   18   49 1
    45   19   20 1
    46   19   50 1
    47   19   51 1
    48   20   21 1
    49   20   52 1
    50   21   22 1
    51   21   53 1
    52   21   54 1
    53   22   23 1
    54   22   24 1
    55   22   25 1
    56   23   55 1
    57   23   56 1
    58   24   57 1
    59   24   58 1
    60   25   26 2
    61   25   27 am
    62   27   59 1
    63   27   60 1
@<TRIPOS>MOLECULE
CHEMBL460962
   56    58     0     0     0
SMALL
USER_CHARGES

@<TRIPOS>ATOM
      1 C1         -0.3379    1.4452    0.2986 C.3       1 <0>        -0.1850
      2 C2         -0.0847   -0.0585    0.1745 C.3       1 <0>         0.1579
      3 H1         -0.9945   -0.6048    0.4234 H         1 <0>         0.0851
      4 C3          0.3402   -0.3924   -1.2594 C.3       1 <0>         0.0494
      5 N1          0.7303   -1.8067   -1.3345 N.3       1 <0>        -0.5352
      6 C4          1.8989   -2.0827   -0.4881 C.3       1 <0>         0.0431
      7 C5          1.5378   -1.8181    0.9775 C.3       1 <0>         0.1219
      8 N2          0.9958   -0.4548    1.0904 N.pl3     1 <0>        -0.9939
      9 S1          1.5899    0.6069    2.2139 S.o2      1 <0>         2.6877
     10 O1          2.8406    0.0864    2.6429 O.2       1 <0>        -0.9534
     11 O2          1.4569    1.9064    1.6547 O.2       1 <0>        -0.9475
     12 C6          0.5141    0.5461    3.6081 C.ar      1 <0>        -0.6644
     13 C7         -0.5761    1.3931    3.6773 C.ar      1 <0>        -0.0210
     14 C8         -1.4201    1.3454    4.7711 C.ar      1 <0>        -0.1153
     15 C9         -1.1740    0.4503    5.7954 C.ar      1 <0>        -0.0801
     16 C10        -0.0843   -0.3973    5.7258 C.ar      1 <0>        -0.1117
     17 C11         0.7572   -0.3526    4.6300 C.ar      1 <0>        -0.0157
     18 C12        -2.0935    0.3990    6.9883 C.3       1 <0>         0.1396
     19 C13        -2.1137   -1.0216    7.5559 C.3       1 <0>        -0.1506
     20 C14        -1.5930    1.3694    8.0601 C.3       1 <0>         0.4270
     21 F1         -1.5746    2.6684    7.5411 F         1 <0>        -0.1794
     22 F2         -2.4466    1.3218    9.1675 F         1 <0>        -0.1692
     23 F3         -0.3003    1.0053    8.4518 F         1 <0>        -0.1724
     24 O3         -3.4140    0.7709    6.5882 O.3       1 <0>        -0.5175
     25 C15         0.9798   -2.2109   -2.7245 C.3       1 <0>         0.0978
     26 C16         0.9905   -3.7381   -2.8174 C.3       1 <0>        -0.1608
     27 C17         2.3138   -4.4145   -3.1808 C.3       1 <0>        -0.1473
     28 C18         1.1765   -4.3603   -4.2028 C.3       1 <0>        -0.1558
     29 C19         0.0853   -4.4545   -1.8487 C.2       1 <0>         0.5777
     30 O4          0.5596   -5.1622   -0.9855 O.2       1 <0>        -0.5444
     31 N3         -1.2514   -4.3088   -1.9416 N.am      1 <0>        -0.8447
     32 H2          0.5049    1.9918   -0.1247 H         1 <0>         0.0924
     33 H3         -1.2482    1.7062   -0.2413 H         1 <0>         0.0733
     34 H4         -0.4509    1.7091    1.3501 H         1 <0>         0.0693
     35 H5         -0.4929   -0.2084   -1.9378 H         1 <0>         0.0899
     36 H6          1.1861    0.2338   -1.5433 H         1 <0>         0.0453
     37 H7          2.1961   -3.1246   -0.6071 H         1 <0>         0.0987
     38 H8          2.7230   -1.4330   -0.7827 H         1 <0>         0.0420
     39 H9          0.7859   -2.5362    1.3047 H         1 <0>         0.0795
     40 H10         2.4301   -1.9102    1.5967 H         1 <0>         0.1006
     41 H11        -0.7683    2.0924    2.8770 H         1 <0>         0.1502
     42 H12        -2.2714    2.0077    4.8255 H         1 <0>         0.1358
     43 H13         0.1081   -1.0964    6.5262 H         1 <0>         0.1436
     44 H14         1.6065   -1.0174    4.5738 H         1 <0>         0.1472
     45 H15        -1.1065   -1.3053    7.8611 H         1 <0>         0.0909
     46 H16        -2.7788   -1.0588    8.4187 H         1 <0>         0.0870
     47 H17        -2.4702   -1.7130    6.7923 H         1 <0>         0.0936
     48 H18        -3.4765    1.6620    6.2179 H         1 <0>         0.3876
     49 H19         0.1928   -1.8134   -3.3654 H         1 <0>         0.0853
     50 H20         1.9444   -1.8205   -3.0489 H         1 <0>         0.0505
     51 H21         3.1769   -3.7716   -3.3537 H         1 <0>         0.1030
     52 H22         2.5300   -5.3779   -2.7191 H         1 <0>         0.1057
     53 H23         0.6444   -5.2880   -4.4134 H         1 <0>         0.1007
     54 H24         1.2912   -3.6816   -5.0480 H         1 <0>         0.1053
     55 H25        -1.6343   -3.8027   -2.6752 H         1 <0>         0.3998
     56 H26        -1.8305   -4.7100   -1.2748 H         1 <0>         0.4008
@<TRIPOS>BOND
     1    1    2 1
     2    1   32 1
     3    1   33 1
     4    1   34 1
     5    2    3 1
     6    2    8 1
     7    2    4 1
     8    4    5 1
     9    4   35 1
    10    4   36 1
    11    5    6 1
    12    5   25 1
    13    6    7 1
    14    6   37 1
    15    6   38 1
    16    7    8 1
    17    7   39 1
    18    7   40 1
    19    8    9 1
    20    9   10 2
    21    9   11 2
    22    9   12 1
    23   12   17 ar
    24   12   13 ar
    25   13   14 ar
    26   13   41 1
    27   14   15 ar
    28   14   42 1
    29   15   16 ar
    30   15   18 1
    31   16   17 ar
    32   16   43 1
    33   17   44 1
    34   18   19 1
    35   18   20 1
    36   18   24 1
    37   19   45 1
    38   19   46 1
    39   19   47 1
    40   20   21 1
    41   20   22 1
    42   20   23 1
    43   24   48 1
    44   25   26 1
    45   25   49 1
    46   25   50 1
    47   26   28 1
    48   26   27 1
    49   26   29 1
    50   27   28 1
    51   27   51 1
    52   27   52 1
    53   28   53 1
    54   28   54 1
    55   29   30 2
    56   29   31 am
    57   31   55 1
    58   31   56 1
@<TRIPOS>MOLECULE
CHEMBL460962__1
   57    59     0     0     0
SMALL
USER_CHARGES

@<TRIPOS>ATOM
      1 C1         -0.1037    1.2040    0.7453 C.3       1 <0>        -0.1911
      2 C2         -0.0035   -0.2865    0.4150 C.3       1 <0>         0.1352
      3 H1         -0.9918   -0.7423    0.4754 H         1 <0>         0.1049
      4 C3          0.5596   -0.4639   -0.9990 C.3       1 <0>        -0.0183
      5 N1          0.7821   -1.8915   -1.2607 N.4       1 <0>        -0.3804
      6 C4          1.8155   -2.4107   -0.3559 C.3       1 <0>        -0.0150
      7 C5          1.3146   -2.3298    1.0899 C.3       1 <0>         0.0918
      8 N2          0.9034   -0.9443    1.3684 N.pl3     1 <0>        -1.0096
      9 S1          1.4507   -0.1462    2.7122 S.o2      1 <0>         2.6899
     10 O1          2.5666   -0.8816    3.1950 O.2       1 <0>        -0.9374
     11 O2          1.5381    1.2280    2.3609 O.2       1 <0>        -0.9332
     12 C6          0.1943   -0.2728    3.9411 C.ar      1 <0>        -0.6717
     13 C7         -0.7961    0.6884    4.0186 C.ar      1 <0>        -0.0220
     14 C8         -1.7817    0.5891    4.9827 C.ar      1 <0>        -0.1123
     15 C9         -1.7773   -0.4718    5.8690 C.ar      1 <0>        -0.0691
     16 C10        -0.7874   -1.4335    5.7909 C.ar      1 <0>        -0.1090
     17 C11         0.1958   -1.3364    4.8240 C.ar      1 <0>        -0.0163
     18 C12        -2.8513   -0.5795    6.9207 C.3       1 <0>         0.1363
     19 C13        -3.1039   -2.0538    7.2424 C.3       1 <0>        -0.1515
     20 C14        -2.3990    0.1488    8.1879 C.3       1 <0>         0.4270
     21 F1         -2.1681    1.4969    7.8938 F         1 <0>        -0.1789
     22 F2         -3.3961    0.0487    9.1642 F         1 <0>        -0.1653
     23 F3         -1.2195   -0.4333    8.6646 F         1 <0>        -0.1722
     24 O3         -4.0561    0.0150    6.4338 O.3       1 <0>        -0.5157
     25 C15         1.2174   -2.0704   -2.6523 C.3       1 <0>         0.0424
     26 C16         1.4058   -3.5612   -2.9401 C.3       1 <0>        -0.2162
     27 C17         0.6428   -4.1535   -4.1266 C.3       1 <0>        -0.1187
     28 C18         0.2101   -4.4843   -2.6968 C.3       1 <0>        -0.1589
     29 C19         2.7791   -4.1105   -2.6511 C.2       1 <0>         0.5481
     30 O4          3.6385   -3.3860   -2.1958 O.2       1 <0>        -0.5327
     31 N3          3.0521   -5.4069   -2.8987 N.am      1 <0>        -0.8399
     32 H2          0.8495    1.6881    0.5328 H         1 <0>         0.1064
     33 H3         -0.8857    1.6591    0.1375 H         1 <0>         0.0891
     34 H4         -0.3462    1.3267    1.8008 H         1 <0>         0.0864
     35 H5         -0.1500   -0.0675   -1.7252 H         1 <0>         0.1472
     36 H6          1.5046    0.0728   -1.0838 H         1 <0>         0.1407
     37 H7          2.0313   -3.4489   -0.6083 H         1 <0>         0.1383
     38 H8          2.7225   -1.8151   -0.4602 H         1 <0>         0.1446
     39 H9          0.4610   -2.9950    1.2195 H         1 <0>         0.0981
     40 H10         2.1147   -2.6188    1.7714 H         1 <0>         0.1416
     41 H11        -0.7996    1.5173    3.3262 H         1 <0>         0.1505
     42 H12        -2.5551    1.3405    5.0438 H         1 <0>         0.1400
     43 H13        -0.7837   -2.2621    6.4835 H         1 <0>         0.1475
     44 H14         0.9670   -2.0898    4.7606 H         1 <0>         0.1481
     45 H15        -2.1849   -2.5073    7.6138 H         1 <0>         0.0915
     46 H16        -3.8807   -2.1318    8.0031 H         1 <0>         0.0907
     47 H17        -3.4260   -2.5727    6.3396 H         1 <0>         0.0927
     48 H18        -3.9696    0.9515    6.2092 H         1 <0>         0.3885
     49 H19         0.4621   -1.6632   -3.3244 H         1 <0>         0.1427
     50 H20         2.1615   -1.5482   -2.8076 H         1 <0>         0.1481
     51 H21         0.0066   -3.4811   -4.7022 H         1 <0>         0.1249
     52 H22         1.1341   -4.9407   -4.6986 H         1 <0>         0.1214
     53 H23         0.4168   -5.4890   -2.3281 H         1 <0>         0.1235
     54 H24        -0.7107   -4.0294   -2.3317 H         1 <0>         0.1153
     55 H25         2.3648   -5.9863   -3.2629 H         1 <0>         0.4062
     56 H26         3.9360   -5.7604   -2.7127 H         1 <0>         0.4181
     57 H27        -0.0781   -2.3974   -1.1123 H         1 <0>         0.4175
@<TRIPOS>BOND
     1    1    2 1
     2    1   32 1
     3    1   33 1
     4    1   34 1
     5    2    3 1
     6    2    8 1
     7    2    4 1
     8    4    5 1
     9    4   35 1
    10    4   36 1
    11    5    6 1
    12    5   25 1
    13    5   57 1
    14    6    7 1
    15    6   37 1
    16    6   38 1
    17    7    8 1
    18    7   39 1
    19    7   40 1
    20    8    9 1
    21    9   10 2
    22    9   11 2
    23    9   12 1
    24   12   17 ar
    25   12   13 ar
    26   13   14 ar
    27   13   41 1
    28   14   15 ar
    29   14   42 1
    30   15   16 ar
    31   15   18 1
    32   16   17 ar
    33   16   43 1
    34   17   44 1
    35   18   19 1
    36   18   20 1
    37   18   24 1
    38   19   45 1
    39   19   46 1
    40   19   47 1
    41   20   21 1
    42   20   22 1
    43   20   23 1
    44   24   48 1
    45   25   26 1
    46   25   49 1
    47   25   50 1
    48   26   28 1
    49   26   27 1
    50   26   29 1
    51   27   28 1
    52   27   51 1
    53   27   52 1
    54   28   53 1
    55   28   54 1
    56   29   30 2
    57   29   31 am
    58   31   55 1
    59   31   56 1
@<TRIPOS>MOLECULE
CHEMBL559418
   58    62     0     0     0
SMALL
USER_CHARGES

@<TRIPOS>ATOM
      1 C1         -0.0167    1.3777    0.0096 C.ar      1 <0>        -0.1248
      2 C2          1.1710    2.0855    0.0021 C.ar      1 <0>        -0.0144
      3 C3          2.3777    1.4116   -0.0130 C.ar      1 <0>        -0.6682
      4 C4          2.3977    0.0294   -0.0210 C.ar      1 <0>        -0.0147
      5 C5          1.2098   -0.6793   -0.0135 C.ar      1 <0>        -0.0568
      6 C6          0.0021   -0.0041    0.0020 C.ar      1 <0>        -0.0535
      7 Cl1         1.2341   -2.4151   -0.0242 Cl        1 <0>        -0.0535
      8 S1          3.8908    2.3145   -0.0226 S.o2      1 <0>         2.6956
      9 O1          4.8723    1.4562   -0.5874 O.2       1 <0>        -0.9473
     10 O2          3.5962    3.5950   -0.5638 O.2       1 <0>        -0.9490
     11 N1          4.3263    2.5570    1.5566 N.pl3     1 <0>        -1.1114
     12 C7          4.6698    1.4135    2.4055 C.3       1 <0>         0.1527
     13 C8          5.3706    1.9021    3.6470 C.ar      1 <0>        -0.0778
     14 C9          6.7479    2.0336    3.6537 C.ar      1 <0>        -0.1052
     15 C10         7.3957    2.4804    4.7868 C.ar      1 <0>        -0.0593
     16 C11         6.6585    2.8000    5.9281 C.ar      1 <0>        -0.1263
     17 C12         5.2693    2.6651    5.9146 C.ar      1 <0>        -0.0888
     18 C13         4.6334    2.2227    4.7731 C.ar      1 <0>        -0.1086
     19 C14         7.3461    3.2789    7.1462 C.2       1 <0>         0.5596
     20 O3          8.5561    3.3950    7.1552 O.2       1 <0>        -0.5260
     21 N2          6.6314    3.5867    8.2466 N.am      1 <0>        -0.7210
     22 C15         7.3128    4.0612    9.4536 C.3       1 <0>         0.1845
     23 C16         8.2954    2.9931    9.9378 C.3       1 <0>        -0.1221
     24 C17         9.0070    3.4887   11.1983 C.3       1 <0>        -0.0826
     25 C18         7.9736    3.7645   12.2923 C.3       1 <0>        -0.1116
     26 C19         6.9910    4.8327   11.8081 C.3       1 <0>        -0.0803
     27 C20         6.2794    4.3371   10.5475 C.3       1 <0>        -0.1153
     28 C21         7.7534    6.1205   11.4903 C.3       1 <0>        -0.1116
     29 C22         8.7869    5.8447   10.3963 C.3       1 <0>        -0.0827
     30 C23         9.7695    4.7766   10.8806 C.3       1 <0>        -0.1097
     31 C24         8.0753    5.3491    9.1358 C.3       1 <0>        -0.1221
     32 H1         -0.9592    1.9048    0.0259 H         1 <0>         0.1453
     33 H2          1.1559    3.1654    0.0076 H         1 <0>         0.1485
     34 H3          3.3407   -0.4970   -0.0336 H         1 <0>         0.1519
     35 H4         -0.9257   -0.5568    0.0079 H         1 <0>         0.1440
     36 H5          4.3540    3.4561    1.9195 H         1 <0>         0.4231
     37 H6          3.7598    0.8835    2.6868 H         1 <0>         0.0788
     38 H7          5.3284    0.7393    1.8580 H         1 <0>         0.0950
     39 H8          7.3172    1.7856    2.7701 H         1 <0>         0.1359
     40 H9          8.4709    2.5822    4.7909 H         1 <0>         0.1402
     41 H10         4.6932    2.9107    6.7944 H         1 <0>         0.1273
     42 H11         3.5582    2.1220    4.7599 H         1 <0>         0.1320
     43 H12         5.6659    3.4940    8.2394 H         1 <0>         0.3978
     44 H13         7.7522    2.0756   10.1642 H         1 <0>         0.0596
     45 H14         9.0316    2.7966    9.1584 H         1 <0>         0.0858
     46 H15         9.7070    2.7277   11.5433 H         1 <0>         0.0727
     47 H16         7.4304    2.8471   12.5187 H         1 <0>         0.0624
     48 H17         8.4805    4.1176   13.1903 H         1 <0>         0.0654
     49 H18         6.2547    5.0292   12.5874 H         1 <0>         0.0753
     50 H19         5.5794    5.0980   10.2025 H         1 <0>         0.0684
     51 H20         5.7362    3.4196   10.7739 H         1 <0>         0.0684
     52 H21         7.0534    6.8815   11.1453 H         1 <0>         0.0624
     53 H22         8.2604    6.4736   12.3883 H         1 <0>         0.0653
     54 H23         9.3301    6.7622   10.1700 H         1 <0>         0.0727
     55 H24        10.2764    5.1296   11.7786 H         1 <0>         0.0631
     56 H25        10.5057    4.5800   10.1012 H         1 <0>         0.0651
     57 H26         8.8115    5.1526    8.3564 H         1 <0>         0.0858
     58 H27         7.3752    6.1101    8.7908 H         1 <0>         0.0595
@<TRIPOS>BOND
     1    1    6 ar
     2    1    2 ar
     3    1   32 1
     4    2    3 ar
     5    2   33 1
     6    3    4 ar
     7    3    8 1
     8    4    5 ar
     9    4   34 1
    10    5    6 ar
    11    5    7 1
    12    6   35 1
    13    8    9 2
    14    8   10 2
    15    8   11 1
    16   11   12 1
    17   11   36 1
    18   12   13 1
    19   12   37 1
    20   12   38 1
    21   13   18 ar
    22   13   14 ar
    23   14   15 ar
    24   14   39 1
    25   15   16 ar
    26   15   40 1
    27   16   17 ar
    28   16   19 1
    29   17   18 ar
    30   17   41 1
    31   18   42 1
    32   19   20 2
    33   19   21 am
    34   21   22 1
    35   21   43 1
    36   22   27 1
    37   22   31 1
    38   22   23 1
    39   23   24 1
    40   23   44 1
    41   23   45 1
    42   24   30 1
    43   24   25 1
    44   24   46 1
    45   25   26 1
    46   25   47 1
    47   25   48 1
    48   26   27 1
    49   26   28 1
    50   26   49 1
    51   27   50 1
    52   27   51 1
    53   28   29 1
    54   28   52 1
    55   28   53 1
    56   29   30 1
    57   29   31 1
    58   29   54 1
    59   30   55 1
    60   30   56 1
    61   31   57 1
    62   31   58 1
@<TRIPOS>MOLECULE
CHEMBL237463
   45    47     0     0     0
SMALL
USER_CHARGES

@<TRIPOS>ATOM
      1 C1          0.1831    1.8124   -0.5800 C.3       1 <0>        -0.1453
      2 C2          0.5240    0.3733   -0.9719 C.3       1 <0>        -0.0586
      3 C3          1.7975   -0.0650   -0.2459 C.3       1 <0>        -0.1464
      4 C4         -0.6308   -0.5498   -0.5782 C.3       1 <0>        -0.1293
      5 C5         -0.3771   -1.9837   -1.0299 C.2       1 <0>         0.5232
      6 O1          0.5504   -2.6607   -0.6310 O.2       1 <0>        -0.5434
      7 N1         -1.2651   -2.4079   -1.8929 N.2       1 <0>        -0.7373
      8 C6         -2.2767   -1.6830   -2.3335 C.2       1 <0>         0.4182
      9 S1         -2.1435   -0.1924   -1.5632 S.3       1 <0>        -0.1675
     10 N2         -3.2337   -2.0639   -3.2301 N.2       1 <0>        -0.5839
     11 C7         -3.3310   -3.4028   -3.6225 C.ar      1 <0>         0.1613
     12 C8         -2.8611   -4.4086   -2.7878 C.ar      1 <0>        -0.1501
     13 C9         -2.9592   -5.7297   -3.1781 C.ar      1 <0>        -0.1033
     14 C10        -3.5241   -6.0516   -4.3985 C.ar      1 <0>        -0.1330
     15 C11        -3.9930   -5.0527   -5.2318 C.ar      1 <0>        -0.1028
     16 C12        -3.9031   -3.7299   -4.8450 C.ar      1 <0>        -0.1448
     17 C13        -3.6286   -7.4943   -4.8215 C.3       1 <0>        -0.0342
     18 C14        -5.0988   -7.8559   -5.0421 C.3       1 <0>        -0.1093
     19 C15        -5.2049   -9.3205   -5.4716 C.3       1 <0>        -0.1194
     20 C16        -4.4278   -9.5279   -6.7731 C.3       1 <0>        -0.1184
     21 C17        -2.9576   -9.1664   -6.5525 C.3       1 <0>        -0.1195
     22 C18        -2.8516   -7.7017   -6.1230 C.3       1 <0>        -0.1102
     23 H1          1.0058    2.4700   -0.8605 H         1 <0>         0.0546
     24 H2         -0.7242    2.1246   -1.0972 H         1 <0>         0.0615
     25 H3          0.0247    1.8678    0.4971 H         1 <0>         0.0526
     26 H4          0.6825    0.3179   -2.0489 H         1 <0>         0.0725
     27 H5          2.6203    0.5926   -0.5265 H         1 <0>         0.0503
     28 H6          1.6391   -0.0096    0.8311 H         1 <0>         0.0511
     29 H7          2.0404   -1.0902   -0.5252 H         1 <0>         0.0769
     30 H8         -0.8308   -0.4979    0.4921 H         1 <0>         0.1183
     31 H9         -2.4191   -4.1577   -1.8349 H         1 <0>         0.1341
     32 H10        -2.5940   -6.5123   -2.5295 H         1 <0>         0.1035
     33 H11        -4.4333   -5.3074   -6.1845 H         1 <0>         0.1068
     34 H12        -4.2735   -2.9504   -5.4944 H         1 <0>         0.1106
     35 H13        -3.2104   -8.1324   -4.0430 H         1 <0>         0.0676
     36 H14        -5.6524   -7.7081   -4.1149 H         1 <0>         0.0605
     37 H15        -5.5170   -7.2178   -5.8206 H         1 <0>         0.0618
     38 H16        -4.7867   -9.9586   -4.6931 H         1 <0>         0.0590
     39 H17        -6.2523   -9.5781   -5.6288 H         1 <0>         0.0572
     40 H18        -4.5034  -10.5714   -7.0791 H         1 <0>         0.0555
     41 H19        -4.8461   -8.8898   -7.5516 H         1 <0>         0.0597
     42 H20        -2.5394   -9.8044   -5.7740 H         1 <0>         0.0591
     43 H21        -2.4040   -9.3141   -7.4797 H         1 <0>         0.0574
     44 H22        -3.2698   -7.0636   -6.9015 H         1 <0>         0.0617
     45 H23        -1.8042   -7.4441   -5.9659 H         1 <0>         0.0613
@<TRIPOS>BOND
     1    1    2 1
     2    1   23 1
     3    1   24 1
     4    1   25 1
     5    2    3 1
     6    2    4 1
     7    2   26 1
     8    3   27 1
     9    3   28 1
    10    3   29 1
    11    4    9 1
    12    4    5 1
    13    4   30 1
    14    5    6 2
    15    5    7 1
    16    7    8 2
    17    8    9 1
    18    8   10 1
    19   10   11 1
    20   11   16 ar
    21   11   12 ar
    22   12   13 ar
    23   12   31 1
    24   13   14 ar
    25   13   32 1
    26   14   15 ar
    27   14   17 1
    28   15   16 ar
    29   15   33 1
    30   16   34 1
    31   17   22 1
    32   17   18 1
    33   17   35 1
    34   18   19 1
    35   18   36 1
    36   18   37 1
    37   19   20 1
    38   19   38 1
    39   19   39 1
    40   20   21 1
    41   20   40 1
    42   20   41 1
    43   21   22 1
    44   21   42 1
    45   21   43 1
    46   22   44 1
    47   22   45 1
@<TRIPOS>MOLECULE
CHEMBL237463__1
   45    47     0     0     0
SMALL
USER_CHARGES

@<TRIPOS>ATOM
      1 C1         -0.3984    0.8932   -0.8151 C.3       1 <0>        -0.1464
      2 C2         -0.9168   -0.5436   -0.9028 C.3       1 <0>        -0.0576
      3 C3         -0.0243   -1.4600   -0.0634 C.3       1 <0>        -0.1528
      4 C4         -2.3505   -0.6018   -0.3716 C.3       1 <0>        -0.1334
      5 C5         -2.8376   -2.0404   -0.2387 C.2       1 <0>         0.5262
      6 O1         -2.9531   -2.8013   -1.1796 O.2       1 <0>        -0.5488
      7 N1         -3.1179   -2.3685    0.9970 N.2       1 <0>        -0.7364
      8 C6         -2.9964   -1.5519    2.0272 C.2       1 <0>         0.4180
      9 S1         -2.4339   -0.0966    1.3959 S.3       1 <0>        -0.1598
     10 N2         -3.2713   -1.8303    3.3355 N.2       1 <0>        -0.5849
     11 C7         -3.5305   -3.1466    3.7308 C.ar      1 <0>         0.1619
     12 C8         -3.0309   -4.2078    2.9870 C.ar      1 <0>        -0.1500
     13 C9         -3.2882   -5.5065    3.3804 C.ar      1 <0>        -0.1034
     14 C10        -4.0427   -5.7508    4.5132 C.ar      1 <0>        -0.1333
     15 C11        -4.5417   -4.6964    5.2559 C.ar      1 <0>        -0.1028
     16 C12        -4.2832   -3.3954    4.8712 C.ar      1 <0>        -0.1452
     17 C13        -4.3224   -7.1691    4.9389 C.3       1 <0>        -0.0343
     18 C14        -5.8335   -7.4084    4.9544 C.3       1 <0>        -0.1101
     19 C15        -6.1173   -8.8484    5.3866 C.3       1 <0>        -0.1195
     20 C16        -5.5497   -9.0815    6.7881 C.3       1 <0>        -0.1183
     21 C17        -4.0386   -8.8422    6.7726 C.3       1 <0>        -0.1194
     22 C18        -3.7547   -7.4023    6.3404 C.3       1 <0>        -0.1092
     23 H1          0.6230    0.9346   -1.1936 H         1 <0>         0.0547
     24 H2         -1.0342    1.5460   -1.4132 H         1 <0>         0.0521
     25 H3         -0.4145    1.2225    0.2238 H         1 <0>         0.0645
     26 H4         -0.9007   -0.8730   -1.9417 H         1 <0>         0.0819
     27 H5          0.9970   -1.4186   -0.4419 H         1 <0>         0.0530
     28 H6         -0.0404   -1.1307    0.9755 H         1 <0>         0.0666
     29 H7         -0.3937   -2.4836   -0.1259 H         1 <0>         0.0553
     30 H8         -3.0246   -0.0073   -0.9881 H         1 <0>         0.1166
     31 H9         -2.4421   -4.0177    2.1018 H         1 <0>         0.1344
     32 H10        -2.9000   -6.3321    2.8024 H         1 <0>         0.1032
     33 H11        -5.1309   -4.8906    6.1400 H         1 <0>         0.1065
     34 H12        -4.6693   -2.5724    5.4543 H         1 <0>         0.1104
     35 H13        -3.8525   -7.8584    4.2372 H         1 <0>         0.0675
     36 H14        -6.3033   -6.7192    5.6560 H         1 <0>         0.0617
     37 H15        -6.2379   -7.2423    3.9559 H         1 <0>         0.0612
     38 H16        -7.1939   -9.0189    5.3976 H         1 <0>         0.0574
     39 H17        -5.6475   -9.5376    4.6849 H         1 <0>         0.0591
     40 H18        -6.0195   -8.3923    7.4897 H         1 <0>         0.0597
     41 H19        -5.7519  -10.1074    7.0960 H         1 <0>         0.0555
     42 H20        -3.6341   -9.0083    7.7710 H         1 <0>         0.0572
     43 H21        -3.5687   -9.5315    6.0709 H         1 <0>         0.0589
     44 H22        -2.6781   -7.2318    6.3293 H         1 <0>         0.0605
     45 H23        -4.2245   -6.7130    7.0420 H         1 <0>         0.0618
@<TRIPOS>BOND
     1    1    2 1
     2    1   23 1
     3    1   24 1
     4    1   25 1
     5    2    3 1
     6    2    4 1
     7    2   26 1
     8    3   27 1
     9    3   28 1
    10    3   29 1
    11    4    9 1
    12    4    5 1
    13    4   30 1
    14    5    6 2
    15    5    7 1
    16    7    8 2
    17    8    9 1
    18    8   10 1
    19   10   11 1
    20   11   16 ar
    21   11   12 ar
    22   12   13 ar
    23   12   31 1
    24   13   14 ar
    25   13   32 1
    26   14   15 ar
    27   14   17 1
    28   15   16 ar
    29   15   33 1
    30   16   34 1
    31   17   22 1
    32   17   18 1
    33   17   35 1
    34   18   19 1
    35   18   36 1
    36   18   37 1
    37   19   20 1
    38   19   38 1
    39   19   39 1
    40   20   21 1
    41   20   40 1
    42   20   41 1
    43   21   22 1
    44   21   42 1
    45   21   43 1
    46   22   44 1
    47   22   45 1
@<TRIPOS>MOLECULE
CHEMBL261727
   51    54     0     0     0
SMALL
USER_CHARGES

@<TRIPOS>ATOM
      1 C1          1.2413    1.7142    3.3401 C.ar      1 <0>        -0.0968
      2 C2          2.4562    2.0629    3.9003 C.ar      1 <0>        -0.0944
      3 C3          3.5538    1.2368    3.7435 C.ar      1 <0>        -0.0452
      4 C4          3.4350    0.0565    3.0231 C.ar      1 <0>         0.1110
      5 C5          2.2141   -0.2910    2.4619 C.ar      1 <0>        -0.0464
      6 C6          1.1200    0.5390    2.6220 C.ar      1 <0>        -0.0941
      7 Cl1         2.0611   -1.7661    1.5595 Cl        1 <0>        -0.0391
      8 O1          4.5127   -0.7575    2.8670 O.3       1 <0>        -0.3110
      9 C7          4.7133   -1.7657    3.8596 C.3       1 <0>         0.1121
     10 C8          5.9462   -2.5642    3.5225 C.ar      1 <0>        -0.1477
     11 C9          5.8530   -3.6910    2.7245 C.ar      1 <0>         0.0101
     12 C10         7.0255   -4.4004    2.4387 C.ar      1 <0>        -0.1885
     13 C11         8.2344   -3.9452    2.9670 C.ar      1 <0>         0.1176
     14 N1          8.2715   -2.8671    3.7218 N.ar      1 <0>        -0.4830
     15 C12         7.1836   -2.1752    4.0028 C.ar      1 <0>         0.1495
     16 C13         6.9838   -5.6115    1.5919 C.2       1 <0>         0.5641
     17 O2          5.9677   -6.2760    1.5312 O.2       1 <0>        -0.5059
     18 N2          8.0723   -5.9789    0.8872 N.am      1 <0>        -0.6010
     19 C14         9.2965   -5.1673    0.9234 C.3       1 <0>         0.0678
     20 C15         9.7080   -4.8313   -0.5135 C.3       1 <0>        -0.1367
     21 C16         9.8359   -6.1262   -1.3192 C.3       1 <0>        -0.1207
     22 C17         8.4829   -6.8402   -1.3587 C.3       1 <0>        -0.1306
     23 C18         8.0593   -7.2019    0.0730 C.3       1 <0>         0.1917
     24 C19         6.6697   -7.7846    0.0588 C.ar      1 <0>        -0.1012
     25 C20         6.3905   -8.9514    0.7543 C.ar      1 <0>        -0.0735
     26 C21         5.0980   -9.4510    0.7129 C.ar      1 <0>        -0.1674
     27 C22         4.1374   -8.7744   -0.0151 C.ar      1 <0>         0.0912
     28 N3          4.4390   -7.6674   -0.6649 N.ar      1 <0>        -0.4825
     29 C23         5.6562   -7.1600   -0.6427 C.ar      1 <0>         0.1399
     30 Cl2         5.0791    1.6757    4.4467 Cl        1 <0>        -0.0423
     31 H1          0.3842    2.3588    3.4676 H         1 <0>         0.1476
     32 H2          2.5482    2.9816    4.4605 H         1 <0>         0.1465
     33 H3          0.1696    0.2689    2.1858 H         1 <0>         0.1465
     34 H4          4.8403   -1.2955    4.8346 H         1 <0>         0.0741
     35 H5          3.8477   -2.4276    3.8854 H         1 <0>         0.0719
     36 H6          4.9002   -4.0150    2.3327 H         1 <0>         0.1464
     37 H7          9.1472   -4.4821    2.7551 H         1 <0>         0.1859
     38 H8          7.2598   -1.2937    4.6221 H         1 <0>         0.1633
     39 H9          9.1079   -4.2459    1.4744 H         1 <0>         0.1154
     40 H10        10.0935   -5.7297    1.4097 H         1 <0>         0.0809
     41 H11         8.9511   -4.1928   -0.9688 H         1 <0>         0.0699
     42 H12        10.6661   -4.3117   -0.5054 H         1 <0>         0.0815
     43 H13        10.1526   -5.8917   -2.3355 H         1 <0>         0.0720
     44 H14        10.5752   -6.7748   -0.8492 H         1 <0>         0.0679
     45 H15         7.7375   -6.1827   -1.8061 H         1 <0>         0.0730
     46 H16         8.5690   -7.7504   -1.9522 H         1 <0>         0.0809
     47 H17         8.7576   -7.9268    0.4915 H         1 <0>         0.0879
     48 H18         7.1617   -9.4590    1.3147 H         1 <0>         0.1252
     49 H19         4.8449  -10.3576    1.2424 H         1 <0>         0.1292
     50 H20         3.1281   -9.1570   -0.0525 H         1 <0>         0.1489
     51 H21         5.8644   -6.2484   -1.1830 H         1 <0>         0.1384
@<TRIPOS>BOND
     1    1    6 ar
     2    1    2 ar
     3    1   31 1
     4    2    3 ar
     5    2   32 1
     6    3    4 ar
     7    3   30 1
     8    4    5 ar
     9    4    8 1
    10    5    6 ar
    11    5    7 1
    12    6   33 1
    13    8    9 1
    14    9   10 1
    15    9   34 1
    16    9   35 1
    17   10   15 ar
    18   10   11 ar
    19   11   12 ar
    20   11   36 1
    21   12   13 ar
    22   12   16 1
    23   13   14 ar
    24   13   37 1
    25   14   15 ar
    26   15   38 1
    27   16   17 2
    28   16   18 am
    29   18   23 1
    30   18   19 1
    31   19   20 1
    32   19   39 1
    33   19   40 1
    34   20   21 1
    35   20   41 1
    36   20   42 1
    37   21   22 1
    38   21   43 1
    39   21   44 1
    40   22   23 1
    41   22   45 1
    42   22   46 1
    43   23   24 1
    44   23   47 1
    45   24   29 ar
    46   24   25 ar
    47   25   26 ar
    48   25   48 1
    49   26   27 ar
    50   26   49 1
    51   27   28 ar
    52   27   50 1
    53   28   29 ar
    54   29   51 1
@<TRIPOS>MOLECULE
CHEMBL261727__1
   51    54     0     0     0
SMALL
USER_CHARGES

@<TRIPOS>ATOM
      1 C1         -0.6876    0.2429   -2.7699 C.ar      1 <0>        -0.0970
      2 C2          0.3617    0.7374   -3.5222 C.ar      1 <0>        -0.0944
      3 C3          1.5701    0.0662   -3.5507 C.ar      1 <0>        -0.0453
      4 C4          1.7293   -1.1050   -2.8232 C.ar      1 <0>         0.1111
      5 C5          0.6742   -1.5990   -2.0689 C.ar      1 <0>        -0.0466
      6 C6         -0.5320   -0.9235   -2.0441 C.ar      1 <0>        -0.0941
      7 Cl1         0.8685   -3.0638   -1.1577 Cl        1 <0>        -0.0388
      8 O1          2.9162   -1.7673   -2.8498 O.3       1 <0>        -0.3105
      9 C7          3.8826   -1.4067   -1.8607 C.3       1 <0>         0.1125
     10 C8          5.1250   -2.2395   -2.0453 C.ar      1 <0>        -0.1478
     11 C9          5.2537   -3.4562   -1.3984 C.ar      1 <0>         0.0089
     12 C10         6.4259   -4.1943   -1.6005 C.ar      1 <0>        -0.1875
     13 C11         7.4120   -3.6763   -2.4414 C.ar      1 <0>         0.1277
     14 N1          7.2429   -2.5129   -3.0343 N.ar      1 <0>        -0.4830
     15 C12         6.1461   -1.7984   -2.8673 C.ar      1 <0>         0.1493
     16 C13         6.6162   -5.5001   -0.9341 C.2       1 <0>         0.5636
     17 O2          5.6577   -6.2127   -0.7083 O.2       1 <0>        -0.5028
     18 N2          7.8525   -5.9005   -0.5769 N.am      1 <0>        -0.6016
     19 C14         9.0184   -5.0414   -0.8246 C.3       1 <0>         0.0788
     20 C15         9.7804   -4.8530    0.4909 C.3       1 <0>        -0.1366
     21 C16        10.1234   -6.2241    1.0780 C.3       1 <0>        -0.1206
     22 C17         8.8329   -6.9919    1.3730 C.3       1 <0>        -0.1316
     23 C18         8.0593   -7.2019    0.0730 C.3       1 <0>         0.1921
     24 C19         6.7248   -7.8321    0.3778 C.ar      1 <0>        -0.0987
     25 C20         6.2754   -8.9164   -0.3606 C.ar      1 <0>        -0.0728
     26 C21         5.0415   -9.4638   -0.0448 C.ar      1 <0>        -0.1650
     27 C22         4.3055   -8.9146    0.9882 C.ar      1 <0>         0.0905
     28 N3          4.7643   -7.8827    1.6690 N.ar      1 <0>        -0.4809
     29 C23         5.9361   -7.3404    1.4004 C.ar      1 <0>         0.1320
     30 Cl2         2.8869    0.6874   -4.4961 Cl        1 <0>        -0.0424
     31 H1         -1.6293    0.7713   -2.7455 H         1 <0>         0.1476
     32 H2          0.2371    1.6486   -4.0884 H         1 <0>         0.1465
     33 H3         -1.3532   -1.3072   -1.4570 H         1 <0>         0.1464
     34 H4          4.1337   -0.3513   -1.9659 H         1 <0>         0.0740
     35 H5          3.4700   -1.5848   -0.8677 H         1 <0>         0.0715
     36 H6          4.4701   -3.8266   -0.7541 H         1 <0>         0.1456
     37 H7          8.3217   -4.2344   -2.6069 H         1 <0>         0.1760
     38 H8          6.0464   -0.8514   -3.3767 H         1 <0>         0.1634
     39 H9          9.6701   -5.5129   -1.5601 H         1 <0>         0.0801
     40 H10         8.6857   -4.0722   -1.1962 H         1 <0>         0.1055
     41 H11        10.6993   -4.2976    0.3028 H         1 <0>         0.0813
     42 H12         9.1587   -4.3007    1.1956 H         1 <0>         0.0692
     43 H13        10.7244   -6.7854    0.3626 H         1 <0>         0.0682
     44 H14        10.6872   -6.0929    2.0016 H         1 <0>         0.0721
     45 H15         9.0773   -7.9588    1.8128 H         1 <0>         0.0819
     46 H16         8.2201   -6.4194    2.0694 H         1 <0>         0.0726
     47 H17         8.6311   -7.8535   -0.5876 H         1 <0>         0.0873
     48 H18         6.8722   -9.3245   -1.1629 H         1 <0>         0.1253
     49 H19         4.6600  -10.3085   -0.5992 H         1 <0>         0.1294
     50 H20         3.3433   -9.3352    1.2405 H         1 <0>         0.1490
     51 H21         6.2811   -6.4992    1.9833 H         1 <0>         0.1388
@<TRIPOS>BOND
     1    1    6 ar
     2    1    2 ar
     3    1   31 1
     4    2    3 ar
     5    2   32 1
     6    3    4 ar
     7    3   30 1
     8    4    5 ar
     9    4    8 1
    10    5    6 ar
    11    5    7 1
    12    6   33 1
    13    8    9 1
    14    9   10 1
    15    9   34 1
    16    9   35 1
    17   10   15 ar
    18   10   11 ar
    19   11   12 ar
    20   11   36 1
    21   12   13 ar
    22   12   16 1
    23   13   14 ar
    24   13   37 1
    25   14   15 ar
    26   15   38 1
    27   16   17 2
    28   16   18 am
    29   18   23 1
    30   18   19 1
    31   19   20 1
    32   19   39 1
    33   19   40 1
    34   20   21 1
    35   20   41 1
    36   20   42 1
    37   21   22 1
    38   21   43 1
    39   21   44 1
    40   22   23 1
    41   22   45 1
    42   22   46 1
    43   23   24 1
    44   23   47 1
    45   24   29 ar
    46   24   25 ar
    47   25   26 ar
    48   25   48 1
    49   26   27 ar
    50   26   49 1
    51   27   28 ar
    52   27   50 1
    53   28   29 ar
    54   29   51 1
@<TRIPOS>MOLECULE
CHEMBL1088379
   53    57     0     0     0
SMALL
USER_CHARGES

@<TRIPOS>ATOM
      1 C1         -0.0160    1.3769   -0.2272 C.ar      1 <0>        -0.1252
      2 C2          1.1709    2.0846   -0.1941 C.ar      1 <0>        -0.1193
      3 C3          2.3769    1.4101   -0.1547 C.ar      1 <0>        -0.1154
      4 C4          2.3960    0.0279   -0.1479 C.ar      1 <0>        -0.0694
      5 C5          1.2090   -0.6798   -0.1800 C.ar      1 <0>        -0.1199
      6 C6          0.0030   -0.0054   -0.2208 C.ar      1 <0>        -0.1177
      7 C7          3.7107   -0.7073   -0.1059 C.3       1 <0>        -0.0118
      8 C8          4.4709   -0.3209    1.1644 C.3       1 <0>        -0.0998
      9 C9          5.8057   -1.0675    1.2070 C.3       1 <0>        -0.0834
     10 C10         6.6392   -0.6924   -0.0200 C.3       1 <0>        -0.1109
     11 C11         5.8791   -1.0788   -1.2904 C.3       1 <0>        -0.0835
     12 C12         4.5442   -0.3323   -1.3330 C.3       1 <0>        -0.0999
     13 C13         5.6203   -2.5868   -1.2911 C.3       1 <0>        -0.1206
     14 C14         4.7869   -2.9618   -0.0641 C.3       1 <0>        -0.0674
     15 C15         5.5470   -2.5754    1.2063 C.3       1 <0>        -0.1123
     16 C16         3.4520   -2.2153   -0.1067 C.3       1 <0>        -0.0805
     17 C17         4.5320   -4.4471   -0.0648 C.2       1 <0>         0.5262
     18 O1          3.3994   -4.8681    0.0397 O.2       1 <0>        -0.5377
     19 N1          5.5627   -5.3076   -0.1817 N.am      1 <0>        -0.6090
     20 C18         6.9484   -4.8193   -0.1893 C.3       1 <0>         0.0818
     21 C19         7.7413   -5.5689    0.8860 C.3       1 <0>        -0.1384
     22 C20         7.6047   -7.0759    0.6573 C.3       1 <0>        -0.1207
     23 C21         6.1331   -7.4798    0.7727 C.3       1 <0>        -0.1351
     24 C22         5.3222   -6.7524   -0.2978 C.3       1 <0>         0.1087
     25 H1         -0.9584    1.9038   -0.2534 H         1 <0>         0.1196
     26 H2          1.1561    3.1645   -0.1995 H         1 <0>         0.1202
     27 H3          3.3043    1.9631   -0.1296 H         1 <0>         0.1196
     28 H4          1.2238   -1.7597   -0.1750 H         1 <0>         0.1272
     29 H5         -0.9244   -0.5583   -0.2463 H         1 <0>         0.1206
     30 H6          4.6552    0.7534    1.1650 H         1 <0>         0.0675
     31 H7          3.8771   -0.5881    2.0386 H         1 <0>         0.0653
     32 H8          6.3472   -0.7922    2.1120 H         1 <0>         0.0777
     33 H9          6.8235    0.3819   -0.0195 H         1 <0>         0.0674
     34 H10         7.5901   -1.2242    0.0103 H         1 <0>         0.0643
     35 H11         6.4728   -0.8116   -2.1645 H         1 <0>         0.0774
     36 H12         4.0027   -0.6076   -2.2380 H         1 <0>         0.0649
     37 H13         4.7285    0.7420   -1.3324 H         1 <0>         0.0673
     38 H14         5.0788   -2.8620   -2.1961 H         1 <0>         0.0681
     39 H15         6.5713   -3.1186   -1.2608 H         1 <0>         0.0834
     40 H16         6.4979   -3.1072    1.2366 H         1 <0>         0.0784
     41 H17         4.9532   -2.8426    2.0804 H         1 <0>         0.0693
     42 H18         2.8582   -2.4825    0.7675 H         1 <0>         0.0743
     43 H19         2.9105   -2.4906   -1.0117 H         1 <0>         0.0710
     44 H20         7.3949   -5.0023   -1.1667 H         1 <0>         0.0695
     45 H21         6.9605   -3.7508    0.0260 H         1 <0>         0.1126
     46 H22         8.7922   -5.2857    0.8268 H         1 <0>         0.0768
     47 H23         7.3501   -5.3134    1.8708 H         1 <0>         0.0677
     48 H24         7.9733   -7.3271   -0.3373 H         1 <0>         0.0648
     49 H25         8.1880   -7.6112    1.4064 H         1 <0>         0.0664
     50 H26         6.0393   -8.5567    0.6329 H         1 <0>         0.0757
     51 H27         5.7570   -7.2063    1.7586 H         1 <0>         0.0660
     52 H28         4.2616   -6.9590   -0.1540 H         1 <0>         0.0920
     53 H29         5.6332   -7.0965   -1.2842 H         1 <0>         0.0663
@<TRIPOS>BOND
     1    1    6 ar
     2    1    2 ar
     3    1   25 1
     4    2    3 ar
     5    2   26 1
     6    3    4 ar
     7    3   27 1
     8    4    5 ar
     9    4    7 1
    10    5    6 ar
    11    5   28 1
    12    6   29 1
    13    7   12 1
    14    7   16 1
    15    7    8 1
    16    8    9 1
    17    8   30 1
    18    8   31 1
    19    9   15 1
    20    9   10 1
    21    9   32 1
    22   10   11 1
    23   10   33 1
    24   10   34 1
    25   11   12 1
    26   11   13 1
    27   11   35 1
    28   12   36 1
    29   12   37 1
    30   13   14 1
    31   13   38 1
    32   13   39 1
    33   14   15 1
    34   14   16 1
    35   14   17 1
    36   15   40 1
    37   15   41 1
    38   16   42 1
    39   16   43 1
    40   17   18 2
    41   17   19 am
    42   19   24 1
    43   19   20 1
    44   20   21 1
    45   20   44 1
    46   20   45 1
    47   21   22 1
    48   21   46 1
    49   21   47 1
    50   22   23 1
    51   22   48 1
    52   22   49 1
    53   23   24 1
    54   23   50 1
    55   23   51 1
    56   24   52 1
    57   24   53 1
@<TRIPOS>MOLECULE
CHEMBL429456
   34    36     0     0     0
SMALL
USER_CHARGES

@<TRIPOS>ATOM
      1 C1         -1.1149    1.6687    0.6759 C.3       1 <0>        -0.1449
      2 C2         -0.8124    0.1749    0.5421 C.3       1 <0>        -0.0595
      3 C3         -0.1243   -0.3221    1.8150 C.3       1 <0>        -0.1471
      4 C4         -2.1191   -0.5937    0.3354 C.3       1 <0>        -0.1092
      5 C5         -1.8617   -2.0785    0.1086 C.2       1 <0>         0.5221
      6 O1         -1.3409   -2.7842    0.9503 O.2       1 <0>        -0.5372
      7 N1         -2.2399   -2.5397   -1.0522 N.2       1 <0>        -0.7245
      8 C6         -2.8118   -1.8092   -2.0003 C.2       1 <0>         0.4770
      9 S1         -2.8978   -0.1747   -1.2810 S.3       1 <0>        -0.2509
     10 N2         -3.2351   -2.2110   -3.2349 N.2       1 <0>        -0.5747
     11 C7         -3.2738   -3.5697   -3.5513 C.ar      1 <0>         0.1808
     12 C8         -3.3765   -4.5161   -2.5528 C.ar      1 <0>        -0.1711
     13 C9         -3.4157   -5.8730   -2.8590 C.ar      1 <0>        -0.0760
     14 C10        -3.3541   -6.3072   -4.1489 C.ar      1 <0>        -0.1614
     15 C11        -3.2497   -5.3766   -5.1942 C.ar      1 <0>        -0.0861
     16 C12        -3.2142   -3.9904   -4.8939 C.ar      1 <0>        -0.0381
     17 C13        -3.1140   -3.0805   -5.9600 C.ar      1 <0>        -0.1087
     18 C14        -3.0610   -3.5665   -7.2317 C.ar      1 <0>         0.0317
     19 N3         -3.1013   -4.8672   -7.4858 N.ar      1 <0>        -0.4910
     20 C15        -3.1826   -5.7735   -6.5400 C.ar      1 <0>         0.1178
     21 H1         -0.1840    2.2162    0.8231 H         1 <0>         0.0553
     22 H2         -1.6051    2.0227   -0.2310 H         1 <0>         0.0612
     23 H3         -1.7712    1.8313    1.5308 H         1 <0>         0.0527
     24 H4         -0.1561    0.0122   -0.3129 H         1 <0>         0.0731
     25 H5         -0.7806   -0.1595    2.6700 H         1 <0>         0.0516
     26 H6          0.0913   -1.3864    1.7197 H         1 <0>         0.0777
     27 H7          0.8066    0.2254    1.9623 H         1 <0>         0.0510
     28 H8         -2.8085   -0.4302    1.1637 H         1 <0>         0.1195
     29 H9         -3.4267   -4.2001   -1.5213 H         1 <0>         0.1412
     30 H10        -3.4960   -6.5948   -2.0597 H         1 <0>         0.1129
     31 H11        -3.3853   -7.3646   -4.3664 H         1 <0>         0.1188
     32 H12        -3.0801   -2.0170   -5.7750 H         1 <0>         0.1389
     33 H13        -2.9843   -2.8728   -8.0559 H         1 <0>         0.1432
     34 H14        -3.2113   -6.8221   -6.7968 H         1 <0>         0.1538
@<TRIPOS>BOND
     1    1    2 1
     2    1   21 1
     3    1   22 1
     4    1   23 1
     5    2    3 1
     6    2    4 1
     7    2   24 1
     8    3   25 1
     9    3   26 1
    10    3   27 1
    11    4    9 1
    12    4    5 1
    13    4   28 1
    14    5    6 2
    15    5    7 1
    16    7    8 2
    17    8    9 1
    18    8   10 1
    19   10   11 1
    20   11   16 ar
    21   11   12 ar
    22   12   13 ar
    23   12   29 1
    24   13   14 ar
    25   13   30 1
    26   14   15 ar
    27   14   31 1
    28   15   20 ar
    29   15   16 ar
    30   16   17 ar
    31   17   18 ar
    32   17   32 1
    33   18   19 ar
    34   18   33 1
    35   19   20 ar
    36   20   34 1
@<TRIPOS>MOLECULE
CHEMBL429456__1
   35    37     0     0     0
SMALL
USER_CHARGES

@<TRIPOS>ATOM
      1 C1         -1.1149    1.6687    0.6759 C.3       1 <0>        -0.1474
      2 C2         -0.8124    0.1749    0.5421 C.3       1 <0>        -0.0598
      3 C3         -0.1243   -0.3221    1.8150 C.3       1 <0>        -0.1496
      4 C4         -2.1191   -0.5937    0.3354 C.3       1 <0>        -0.1133
      5 C5         -1.8617   -2.0785    0.1086 C.2       1 <0>         0.5258
      6 O1         -1.3409   -2.7842    0.9503 O.2       1 <0>        -0.5075
      7 N1         -2.2399   -2.5397   -1.0522 N.2       1 <0>        -0.7246
      8 C6         -2.8118   -1.8092   -2.0003 C.2       1 <0>         0.4874
      9 S1         -2.8978   -0.1747   -1.2810 S.3       1 <0>        -0.2134
     10 N2         -3.2351   -2.2110   -3.2349 N.2       1 <0>        -0.5887
     11 C7         -3.2738   -3.5697   -3.5513 C.ar      1 <0>         0.2027
     12 C8         -3.3765   -4.5161   -2.5528 C.ar      1 <0>        -0.1367
     13 C9         -3.4157   -5.8730   -2.8590 C.ar      1 <0>        -0.0462
     14 C10        -3.3541   -6.3072   -4.1489 C.ar      1 <0>        -0.1507
     15 C11        -3.2497   -5.3766   -5.1942 C.ar      1 <0>        -0.0712
     16 C12        -3.2142   -3.9904   -4.8939 C.ar      1 <0>        -0.0267
     17 C13        -3.1140   -3.0805   -5.9600 C.ar      1 <0>        -0.0243
     18 C14        -3.0610   -3.5665   -7.2317 C.ar      1 <0>        -0.0075
     19 N3         -3.1013   -4.8672   -7.4858 N.ar      1 <0>        -0.4366
     20 C15        -3.1826   -5.7735   -6.5400 C.ar      1 <0>         0.1755
     21 H1         -0.1840    2.2162    0.8231 H         1 <0>         0.0603
     22 H2         -1.6051    2.0227   -0.2310 H         1 <0>         0.0609
     23 H3         -1.7712    1.8313    1.5308 H         1 <0>         0.0561
     24 H4         -0.1561    0.0122   -0.3129 H         1 <0>         0.0743
     25 H5         -0.7806   -0.1595    2.6700 H         1 <0>         0.0552
     26 H6          0.0913   -1.3864    1.7197 H         1 <0>         0.0760
     27 H7          0.8066    0.2254    1.9623 H         1 <0>         0.0565
     28 H8         -2.8085   -0.4302    1.1637 H         1 <0>         0.1293
     29 H9         -3.4267   -4.2001   -1.5213 H         1 <0>         0.1570
     30 H10        -3.4960   -6.5948   -2.0597 H         1 <0>         0.1348
     31 H11        -3.3853   -7.3646   -4.3664 H         1 <0>         0.1392
     32 H12        -3.0801   -2.0170   -5.7750 H         1 <0>         0.1796
     33 H13        -2.9843   -2.8728   -8.0559 H         1 <0>         0.1904
     34 H14        -3.2113   -6.8221   -6.7968 H         1 <0>         0.2037
     35 H15        -3.0606   -5.1616   -8.4092 H         1 <0>         0.4396
@<TRIPOS>BOND
     1    1    2 1
     2    1   21 1
     3    1   22 1
     4    1   23 1
     5    2    3 1
     6    2    4 1
     7    2   24 1
     8    3   25 1
     9    3   26 1
    10    3   27 1
    11    4    9 1
    12    4    5 1
    13    4   28 1
    14    5    6 2
    15    5    7 1
    16    7    8 2
    17    8    9 1
    18    8   10 1
    19   10   11 1
    20   11   16 ar
    21   11   12 ar
    22   12   13 ar
    23   12   29 1
    24   13   14 ar
    25   13   30 1
    26   14   15 ar
    27   14   31 1
    28   15   20 ar
    29   15   16 ar
    30   16   17 ar
    31   17   18 ar
    32   17   32 1
    33   18   19 ar
    34   18   33 1
    35   19   20 ar
    36   19   35 1
    37   20   34 1
@<TRIPOS>MOLECULE
CHEMBL429456__2
   34    36     0     0     0
SMALL
USER_CHARGES

@<TRIPOS>ATOM
      1 C1          0.9001    1.2360    0.8442 C.3       1 <0>        -0.1460
      2 C2          0.6839   -0.2671    0.6574 C.3       1 <0>        -0.0588
      3 C3          1.1651   -1.0105    1.9051 C.3       1 <0>        -0.1531
      4 C4         -0.8049   -0.5451    0.4405 C.3       1 <0>        -0.1134
      5 C5         -1.1006   -2.0401    0.4593 C.2       1 <0>         0.5253
      6 O1         -0.6280   -2.8067   -0.3573 O.2       1 <0>        -0.5429
      7 N1         -1.8961   -2.4398    1.4135 N.2       1 <0>        -0.7238
      8 C6         -2.4345   -1.6416    2.3259 C.2       1 <0>         0.4766
      9 S1         -1.8060   -0.0239    1.8967 S.3       1 <0>        -0.2427
     10 N2         -3.2718   -1.9767    3.3514 N.2       1 <0>        -0.5757
     11 C7         -3.4960   -3.3194    3.6589 C.ar      1 <0>         0.1814
     12 C8         -2.5656   -4.2785    3.3163 C.ar      1 <0>        -0.1712
     13 C9         -2.7807   -5.6196    3.6188 C.ar      1 <0>        -0.0760
     14 C10        -3.9123   -6.0254    4.2602 C.ar      1 <0>        -0.1618
     15 C11        -4.8835   -5.0809    4.6264 C.ar      1 <0>        -0.0860
     16 C12        -4.6720   -3.7101    4.3277 C.ar      1 <0>        -0.0384
     17 C13        -5.6586   -2.7855    4.7099 C.ar      1 <0>        -0.1086
     18 C14        -6.7690   -3.2426    5.3535 C.ar      1 <0>         0.0314
     19 N3         -6.9401   -4.5289    5.6258 N.ar      1 <0>        -0.4910
     20 C15        -6.0667   -5.4486    5.2884 C.ar      1 <0>         0.1176
     21 H1          1.9608    1.4340    0.9987 H         1 <0>         0.0554
     22 H2          0.5573    1.7656   -0.0447 H         1 <0>         0.0520
     23 H3          0.3363    1.5791    1.7116 H         1 <0>         0.0644
     24 H4          1.2477   -0.6103   -0.2101 H         1 <0>         0.0831
     25 H5          0.6012   -0.6674    2.7725 H         1 <0>         0.0673
     26 H6          1.0110   -2.0813    1.7720 H         1 <0>         0.0550
     27 H7          2.2257   -0.8125    2.0596 H         1 <0>         0.0538
     28 H8         -1.1640   -0.0789   -0.4770 H         1 <0>         0.1179
     29 H9         -1.6596   -3.9851    2.8069 H         1 <0>         0.1414
     30 H10        -2.0376   -6.3520    3.3400 H         1 <0>         0.1126
     31 H11        -4.0615   -7.0710    4.4857 H         1 <0>         0.1186
     32 H12        -5.5388   -1.7332    4.4981 H         1 <0>         0.1388
     33 H13        -7.5311   -2.5373    5.6506 H         1 <0>         0.1430
     34 H14        -6.2511   -6.4847    5.5312 H         1 <0>         0.1537
@<TRIPOS>BOND
     1    1    2 1
     2    1   21 1
     3    1   22 1
     4    1   23 1
     5    2    3 1
     6    2    4 1
     7    2   24 1
     8    3   25 1
     9    3   26 1
    10    3   27 1
    11    4    9 1
    12    4    5 1
    13    4   28 1
    14    5    6 2
    15    5    7 1
    16    7    8 2
    17    8    9 1
    18    8   10 1
    19   10   11 1
    20   11   16 ar
    21   11   12 ar
    22   12   13 ar
    23   12   29 1
    24   13   14 ar
    25   13   30 1
    26   14   15 ar
    27   14   31 1
    28   15   20 ar
    29   15   16 ar
    30   16   17 ar
    31   17   18 ar
    32   17   32 1
    33   18   19 ar
    34   18   33 1
    35   19   20 ar
    36   20   34 1
@<TRIPOS>MOLECULE
CHEMBL429456__3
   35    37     0     0     0
SMALL
USER_CHARGES

@<TRIPOS>ATOM
      1 C1          0.9001    1.2360    0.8442 C.3       1 <0>        -0.1482
      2 C2          0.6839   -0.2671    0.6574 C.3       1 <0>        -0.0613
      3 C3          1.1651   -1.0105    1.9051 C.3       1 <0>        -0.1549
      4 C4         -0.8049   -0.5451    0.4405 C.3       1 <0>        -0.1167
      5 C5         -1.1006   -2.0401    0.4593 C.2       1 <0>         0.5290
      6 O1         -0.6280   -2.8067   -0.3573 O.2       1 <0>        -0.5131
      7 N1         -1.8961   -2.4398    1.4135 N.2       1 <0>        -0.7239
      8 C6         -2.4345   -1.6416    2.3259 C.2       1 <0>         0.4867
      9 S1         -1.8060   -0.0239    1.8967 S.3       1 <0>        -0.2054
     10 N2         -3.2718   -1.9767    3.3514 N.2       1 <0>        -0.5894
     11 C7         -3.4960   -3.3194    3.6589 C.ar      1 <0>         0.2034
     12 C8         -2.5656   -4.2785    3.3163 C.ar      1 <0>        -0.1370
     13 C9         -2.7807   -5.6196    3.6188 C.ar      1 <0>        -0.0461
     14 C10        -3.9123   -6.0254    4.2602 C.ar      1 <0>        -0.1511
     15 C11        -4.8835   -5.0809    4.6264 C.ar      1 <0>        -0.0710
     16 C12        -4.6720   -3.7101    4.3277 C.ar      1 <0>        -0.0271
     17 C13        -5.6586   -2.7855    4.7100 C.ar      1 <0>        -0.0241
     18 C14        -6.7690   -3.2426    5.3535 C.ar      1 <0>        -0.0079
     19 N3         -6.9401   -4.5289    5.6258 N.ar      1 <0>        -0.4365
     20 C15        -6.0667   -5.4486    5.2884 C.ar      1 <0>         0.1752
     21 H1          1.9608    1.4340    0.9987 H         1 <0>         0.0606
     22 H2          0.5573    1.7656   -0.0447 H         1 <0>         0.0555
     23 H3          0.3363    1.5791    1.7116 H         1 <0>         0.0637
     24 H4          1.2477   -0.6103   -0.2101 H         1 <0>         0.0890
     25 H5          0.6012   -0.6674    2.7725 H         1 <0>         0.0661
     26 H6          1.0110   -2.0813    1.7720 H         1 <0>         0.0534
     27 H7          2.2257   -0.8125    2.0596 H         1 <0>         0.0600
     28 H8         -1.1640   -0.0789   -0.4770 H         1 <0>         0.1277
     29 H9         -1.6596   -3.9851    2.8069 H         1 <0>         0.1571
     30 H10        -2.0376   -6.3520    3.3400 H         1 <0>         0.1346
     31 H11        -4.0615   -7.0710    4.4857 H         1 <0>         0.1390
     32 H12        -5.5388   -1.7332    4.4981 H         1 <0>         0.1796
     33 H13        -7.5311   -2.5373    5.6506 H         1 <0>         0.1903
     34 H14        -6.2511   -6.4847    5.5312 H         1 <0>         0.2036
     35 H15        -7.7487   -4.8027    6.0864 H         1 <0>         0.4395
@<TRIPOS>BOND
     1    1    2 1
     2    1   21 1
     3    1   22 1
     4    1   23 1
     5    2    3 1
     6    2    4 1
     7    2   24 1
     8    3   25 1
     9    3   26 1
    10    3   27 1
    11    4    9 1
    12    4    5 1
    13    4   28 1
    14    5    6 2
    15    5    7 1
    16    7    8 2
    17    8    9 1
    18    8   10 1
    19   10   11 1
    20   11   16 ar
    21   11   12 ar
    22   12   13 ar
    23   12   29 1
    24   13   14 ar
    25   13   30 1
    26   14   15 ar
    27   14   31 1
    28   15   20 ar
    29   15   16 ar
    30   16   17 ar
    31   17   18 ar
    32   17   32 1
    33   18   19 ar
    34   18   33 1
    35   19   20 ar
    36   19   35 1
    37   20   34 1
@<TRIPOS>MOLECULE
CHEMBL465956
   59    61     0     0     0
SMALL
USER_CHARGES

@<TRIPOS>ATOM
      1 C1         -0.3263    1.4060    0.3769 C.3       1 <0>        -0.1846
      2 C2         -0.1132   -0.1010    0.2213 C.3       1 <0>         0.1574
      3 H1         -1.0482   -0.6253    0.4185 H         1 <0>         0.0848
      4 C3          0.3595   -0.4097   -1.2033 C.3       1 <0>         0.0493
      5 N1          0.7100   -1.8329   -1.3019 N.3       1 <0>        -0.5347
      6 C4          1.8343   -2.1674   -0.4177 C.3       1 <0>         0.0348
      7 C5          1.4221   -1.9307    1.0391 C.3       1 <0>         0.1206
      8 N2          0.9168   -0.5547    1.1682 N.pl3     1 <0>        -0.9936
      9 S1          1.4961    0.4579    2.3435 S.o2      1 <0>         2.6879
     10 O1          2.7127   -0.1118    2.8068 O.2       1 <0>        -0.9539
     11 O2          1.4241    1.7754    1.8160 O.2       1 <0>        -0.9477
     12 C6          0.3638    0.3927    3.6918 C.ar      1 <0>        -0.6646
     13 C7         -0.7030    1.2704    3.7416 C.ar      1 <0>        -0.0210
     14 C8         -1.5914    1.2193    4.7995 C.ar      1 <0>        -0.1154
     15 C9         -1.4132    0.2900    5.8073 C.ar      1 <0>        -0.0801
     16 C10        -0.3470   -0.5883    5.7571 C.ar      1 <0>        -0.1118
     17 C11         0.5389   -0.5400    4.6970 C.ar      1 <0>        -0.0157
     18 C12        -2.3812    0.2349    6.9611 C.3       1 <0>         0.1395
     19 C13        -1.6532   -0.2549    8.2145 C.3       1 <0>        -0.1510
     20 C14        -3.5215   -0.7280    6.6245 C.3       1 <0>         0.4276
     21 F1         -3.0001   -2.0052    6.3919 F         1 <0>        -0.1724
     22 F2         -4.4201   -0.7792    7.6956 F         1 <0>        -0.1693
     23 F3         -4.1871   -0.2802    5.4784 F         1 <0>        -0.1798
     24 O3         -2.9138    1.5395    7.1987 O.3       1 <0>        -0.5173
     25 C15         1.0036   -2.2077   -2.6916 C.3       1 <0>         0.0739
     26 C16         1.1183   -3.7298   -2.7960 C.3       1 <0>        -0.1081
     27 C17         2.4991   -4.2728   -2.3917 C.3       1 <0>        -0.1234
     28 C18         2.3711   -5.2534   -3.5693 C.3       1 <0>        -0.1426
     29 C19         1.4258   -4.2283   -4.2179 C.3       1 <0>        -0.1233
     30 C20        -0.0314   -4.4496   -2.1394 C.2       1 <0>         0.5638
     31 O4          0.1619   -5.1283   -1.1531 O.2       1 <0>        -0.5383
     32 N3         -1.2745   -4.3392   -2.6484 N.am      1 <0>        -0.8522
     33 H2          0.5508    1.9371    0.0070 H         1 <0>         0.0927
     34 H3         -1.2030    1.7100   -0.1951 H         1 <0>         0.0730
     35 H4         -0.4785    1.6447    1.4295 H         1 <0>         0.0690
     36 H5         -0.4394   -0.1821   -1.9090 H         1 <0>         0.0887
     37 H6          1.2345    0.1973   -1.4357 H         1 <0>         0.0449
     38 H7          2.1050   -3.2144   -0.5536 H         1 <0>         0.1053
     39 H8          2.6888   -1.5359   -0.6611 H         1 <0>         0.0411
     40 H9          0.6364   -2.6336    1.3161 H         1 <0>         0.0804
     41 H10         2.2853   -2.0667    1.6906 H         1 <0>         0.1002
     42 H11        -0.8421    1.9964    2.9543 H         1 <0>         0.1501
     43 H12        -2.4244    1.9055    4.8388 H         1 <0>         0.1357
     44 H13        -0.2077   -1.3141    6.5446 H         1 <0>         0.1436
     45 H14         1.3698   -1.2287    4.6558 H         1 <0>         0.1472
     46 H15        -0.8408    0.4311    8.4543 H         1 <0>         0.0939
     47 H16        -2.3533   -0.2947    9.0490 H         1 <0>         0.0870
     48 H17        -1.2470   -1.2500    8.0332 H         1 <0>         0.0910
     49 H18        -3.3898    1.9134    6.4446 H         1 <0>         0.3876
     50 H19         0.1998   -1.8586   -3.3397 H         1 <0>         0.0818
     51 H20         1.9437   -1.7505   -3.0004 H         1 <0>         0.0503
     52 H21         3.3051   -3.5489   -2.5118 H         1 <0>         0.0881
     53 H22         2.5082   -4.7601   -1.4167 H         1 <0>         0.0874
     54 H23         3.3009   -5.3989   -4.1193 H         1 <0>         0.0740
     55 H24         1.8830   -6.1915   -3.3053 H         1 <0>         0.0823
     56 H25         0.5686   -4.6798   -4.7173 H         1 <0>         0.0731
     57 H26         1.9385   -3.4924   -4.8373 H         1 <0>         0.0926
     58 H27        -1.4429   -3.7385   -3.3911 H         1 <0>         0.3989
     59 H28        -2.0008   -4.8605   -2.2720 H         1 <0>         0.4014
@<TRIPOS>BOND
     1    1    2 1
     2    1   33 1
     3    1   34 1
     4    1   35 1
     5    2    3 1
     6    2    8 1
     7    2    4 1
     8    4    5 1
     9    4   36 1
    10    4   37 1
    11    5    6 1
    12    5   25 1
    13    6    7 1
    14    6   38 1
    15    6   39 1
    16    7    8 1
    17    7   40 1
    18    7   41 1
    19    8    9 1
    20    9   10 2
    21    9   11 2
    22    9   12 1
    23   12   17 ar
    24   12   13 ar
    25   13   14 ar
    26   13   42 1
    27   14   15 ar
    28   14   43 1
    29   15   16 ar
    30   15   18 1
    31   16   17 ar
    32   16   44 1
    33   17   45 1
    34   18   19 1
    35   18   20 1
    36   18   24 1
    37   19   46 1
    38   19   47 1
    39   19   48 1
    40   20   21 1
    41   20   22 1
    42   20   23 1
    43   24   49 1
    44   25   26 1
    45   25   50 1
    46   25   51 1
    47   26   29 1
    48   26   27 1
    49   26   30 1
    50   27   28 1
    51   27   52 1
    52   27   53 1
    53   28   29 1
    54   28   54 1
    55   28   55 1
    56   29   56 1
    57   29   57 1
    58   30   31 2
    59   30   32 am
    60   32   58 1
    61   32   59 1
@<TRIPOS>MOLECULE
CHEMBL465956__1
   60    62     0     0     0
SMALL
USER_CHARGES

@<TRIPOS>ATOM
      1 C1         -0.1932    1.4350    0.4603 C.3       1 <0>        -0.1904
      2 C2         -0.0878   -0.0757    0.2419 C.3       1 <0>         0.1332
      3 H1         -1.0749   -0.5288    0.3341 H         1 <0>         0.1036
      4 C3          0.4791   -0.3558   -1.1537 C.3       1 <0>        -0.0192
      5 N1          0.7064   -1.7983   -1.3081 N.4       1 <0>        -0.3859
      6 C4          1.7393   -2.2455   -0.3651 C.3       1 <0>        -0.0327
      7 C5          1.2349   -2.0589    1.0696 C.3       1 <0>         0.0924
      8 N2          0.8189   -0.6578    1.2435 N.pl3     1 <0>        -1.0101
      9 S1          1.3607    0.2397    2.5254 S.o2      1 <0>         2.6908
     10 O1          2.4830   -0.4498    3.0584 O.2       1 <0>        -0.9376
     11 O2          1.4366    1.5855    2.0756 O.2       1 <0>        -0.9336
     12 C6          0.1064    0.1920    3.7620 C.ar      1 <0>        -0.6725
     13 C7         -0.8917    1.1482    3.7713 C.ar      1 <0>        -0.0220
     14 C8         -1.8757    1.1108    4.7415 C.ar      1 <0>        -0.1126
     15 C9         -1.8618    0.1168    5.7021 C.ar      1 <0>        -0.0686
     16 C10        -0.8641   -0.8400    5.6922 C.ar      1 <0>        -0.1086
     17 C11         0.1174   -0.8050    4.7195 C.ar      1 <0>        -0.0160
     18 C12        -2.9340    0.0766    6.7603 C.3       1 <0>         0.1363
     19 C13        -2.3641   -0.5374    8.0406 C.3       1 <0>        -0.1536
     20 C14        -4.1070   -0.7723    6.2659 C.3       1 <0>         0.4284
     21 F1         -3.6631   -2.0725    6.0021 F         1 <0>        -0.1739
     22 F2         -5.1023   -0.8097    7.2483 F         1 <0>        -0.1645
     23 F3         -4.6280   -0.2109    5.0952 F         1 <0>        -0.1814
     24 O3         -3.3874    1.4046    7.0298 O.3       1 <0>        -0.5134
     25 C15         1.1454   -2.0787   -2.6817 C.3       1 <0>         0.0094
     26 C16         1.3047   -3.5890   -2.8678 C.3       1 <0>        -0.1498
     27 C17         2.6981   -4.1135   -2.4829 C.3       1 <0>        -0.1295
     28 C18         2.6060   -5.0316   -3.7131 C.3       1 <0>        -0.1404
     29 C19         1.6354   -4.0001   -4.3123 C.3       1 <0>        -0.1116
     30 C20         0.1723   -4.3761   -2.2604 C.2       1 <0>         0.5145
     31 O4          0.3831   -5.1180   -1.3243 O.2       1 <0>        -0.5063
     32 N3         -1.0747   -4.2558   -2.7573 N.am      1 <0>        -0.8489
     33 H2          0.7671    1.9017    0.2411 H         1 <0>         0.1084
     34 H3         -0.9560    1.8454   -0.2014 H         1 <0>         0.0890
     35 H4         -0.4658    1.6342    1.4967 H         1 <0>         0.0862
     36 H5         -0.2301   -0.0168   -1.9089 H         1 <0>         0.1472
     37 H6          1.4226    0.1760   -1.2763 H         1 <0>         0.1423
     38 H7          1.9588   -3.2989   -0.5392 H         1 <0>         0.1551
     39 H8          2.6447   -1.6565   -0.5116 H         1 <0>         0.1410
     40 H9          0.3829   -2.7154    1.2466 H         1 <0>         0.1000
     41 H10         2.0343   -2.2939    1.7724 H         1 <0>         0.1446
     42 H11        -0.9026    1.9248    3.0208 H         1 <0>         0.1501
     43 H12        -2.6552    1.8583    4.7492 H         1 <0>         0.1400
     44 H13        -0.8531   -1.6164    6.4429 H         1 <0>         0.1479
     45 H14         0.8948   -1.5547    4.7095 H         1 <0>         0.1485
     46 H15        -1.5285    0.0674    8.3928 H         1 <0>         0.0955
     47 H16        -3.1396   -0.5665    8.8060 H         1 <0>         0.0910
     48 H17        -2.0182   -1.5504    7.8351 H         1 <0>         0.0913
     49 H18        -3.7621    1.8559    6.2610 H         1 <0>         0.3877
     50 H19         0.4022   -1.7024   -3.3846 H         1 <0>         0.1401
     51 H20         2.1008   -1.5872   -2.8653 H         1 <0>         0.1480
     52 H21         3.4836   -3.3615   -2.5571 H         1 <0>         0.1050
     53 H22         2.7153   -4.6529   -1.5359 H         1 <0>         0.0975
     54 H23         3.5430   -5.1202   -4.2629 H         1 <0>         0.0899
     55 H24         2.1436   -5.9963   -3.5044 H         1 <0>         0.0913
     56 H25         0.7947   -4.4479   -4.8422 H         1 <0>         0.0869
     57 H26         2.1304   -3.2170   -4.8867 H         1 <0>         0.1079
     58 H27        -1.2311   -3.7197   -3.5504 H         1 <0>         0.4078
     59 H28        -1.8158   -4.7052   -2.3218 H         1 <0>         0.4164
     60 H29        -0.1527   -2.2945   -1.1243 H         1 <0>         0.4177
@<TRIPOS>BOND
     1    1    2 1
     2    1   33 1
     3    1   34 1
     4    1   35 1
     5    2    3 1
     6    2    8 1
     7    2    4 1
     8    4    5 1
     9    4   36 1
    10    4   37 1
    11    5    6 1
    12    5   25 1
    13    5   60 1
    14    6    7 1
    15    6   38 1
    16    6   39 1
    17    7    8 1
    18    7   40 1
    19    7   41 1
    20    8    9 1
    21    9   10 2
    22    9   11 2
    23    9   12 1
    24   12   17 ar
    25   12   13 ar
    26   13   14 ar
    27   13   42 1
    28   14   15 ar
    29   14   43 1
    30   15   16 ar
    31   15   18 1
    32   16   17 ar
    33   16   44 1
    34   17   45 1
    35   18   19 1
    36   18   20 1
    37   18   24 1
    38   19   46 1
    39   19   47 1
    40   19   48 1
    41   20   21 1
    42   20   22 1
    43   20   23 1
    44   24   49 1
    45   25   26 1
    46   25   50 1
    47   25   51 1
    48   26   29 1
    49   26   27 1
    50   26   30 1
    51   27   28 1
    52   27   52 1
    53   27   53 1
    54   28   29 1
    55   28   54 1
    56   28   55 1
    57   29   56 1
    58   29   57 1
    59   30   31 2
    60   30   32 am
    61   32   58 1
    62   32   59 1
@<TRIPOS>MOLECULE
CHEMBL465956__2
   59    61     0     0     0
SMALL
USER_CHARGES

@<TRIPOS>ATOM
      1 C1         -0.3263    1.4060    0.3769 C.3       1 <0>        -0.1848
      2 C2         -0.1132   -0.1010    0.2213 C.3       1 <0>         0.1578
      3 H1         -1.0482   -0.6253    0.4185 H         1 <0>         0.0848
      4 C3          0.3595   -0.4097   -1.2033 C.3       1 <0>         0.0491
      5 N1          0.7100   -1.8329   -1.3019 N.3       1 <0>        -0.5345
      6 C4          1.8343   -2.1674   -0.4177 C.3       1 <0>         0.0346
      7 C5          1.4221   -1.9307    1.0391 C.3       1 <0>         0.1208
      8 N2          0.9168   -0.5547    1.1682 N.pl3     1 <0>        -0.9936
      9 S1          1.4961    0.4579    2.3435 S.o2      1 <0>         2.6876
     10 O1          2.7127   -0.1118    2.8068 O.2       1 <0>        -0.9537
     11 O2          1.4241    1.7754    1.8160 O.2       1 <0>        -0.9477
     12 C6          0.3638    0.3927    3.6918 C.ar      1 <0>        -0.6645
     13 C7         -0.7030    1.2704    3.7416 C.ar      1 <0>        -0.0210
     14 C8         -1.5914    1.2193    4.7995 C.ar      1 <0>        -0.1154
     15 C9         -1.4132    0.2900    5.8073 C.ar      1 <0>        -0.0802
     16 C10        -0.3470   -0.5883    5.7571 C.ar      1 <0>        -0.1118
     17 C11         0.5389   -0.5400    4.6970 C.ar      1 <0>        -0.0157
     18 C12        -2.3812    0.2349    6.9611 C.3       1 <0>         0.1396
     19 C13        -2.4660   -1.1992    7.4875 C.3       1 <0>        -0.1505
     20 C14        -1.8959    1.1605    8.0785 C.3       1 <0>         0.4270
     21 F1         -1.8184    2.4718    7.5971 F         1 <0>        -0.1794
     22 F2         -2.7945    1.1094    9.1496 F         1 <0>        -0.1692
     23 F3         -0.6313    0.7468    8.5106 F         1 <0>        -0.1724
     24 O3         -3.6729    0.6575    6.5197 O.3       1 <0>        -0.5174
     25 C15         1.0036   -2.2077   -2.6916 C.3       1 <0>         0.0738
     26 C16         1.1183   -3.7298   -2.7960 C.3       1 <0>        -0.1081
     27 C17         2.4991   -4.2728   -2.3917 C.3       1 <0>        -0.1234
     28 C18         2.3711   -5.2534   -3.5693 C.3       1 <0>        -0.1426
     29 C19         1.4258   -4.2283   -4.2179 C.3       1 <0>        -0.1234
     30 C20        -0.0314   -4.4496   -2.1394 C.2       1 <0>         0.5639
     31 O4          0.1619   -5.1283   -1.1531 O.2       1 <0>        -0.5384
     32 N3         -1.2745   -4.3392   -2.6484 N.am      1 <0>        -0.8521
     33 H2          0.5508    1.9371    0.0070 H         1 <0>         0.0926
     34 H3         -1.2030    1.7100   -0.1951 H         1 <0>         0.0730
     35 H4         -0.4785    1.6447    1.4295 H         1 <0>         0.0691
     36 H5         -0.4394   -0.1821   -1.9090 H         1 <0>         0.0887
     37 H6          1.2345    0.1973   -1.4357 H         1 <0>         0.0448
     38 H7          2.1050   -3.2144   -0.5536 H         1 <0>         0.1053
     39 H8          2.6888   -1.5359   -0.6611 H         1 <0>         0.0410
     40 H9          0.6364   -2.6336    1.3161 H         1 <0>         0.0804
     41 H10         2.2853   -2.0667    1.6906 H         1 <0>         0.1001
     42 H11        -0.8421    1.9964    2.9543 H         1 <0>         0.1501
     43 H12        -2.4244    1.9055    4.8388 H         1 <0>         0.1357
     44 H13        -0.2077   -1.3141    6.5446 H         1 <0>         0.1436
     45 H14         1.3698   -1.2287    4.6558 H         1 <0>         0.1472
     46 H15        -1.4807   -1.5215    7.8242 H         1 <0>         0.0909
     47 H16        -3.1661   -1.2390    8.3220 H         1 <0>         0.0869
     48 H17        -2.8117   -1.8586    6.6914 H         1 <0>         0.0937
     49 H18        -3.6942    1.5597    6.1723 H         1 <0>         0.3876
     50 H19         0.1998   -1.8586   -3.3397 H         1 <0>         0.0818
     51 H20         1.9437   -1.7505   -3.0004 H         1 <0>         0.0503
     52 H21         3.3051   -3.5489   -2.5118 H         1 <0>         0.0880
     53 H22         2.5082   -4.7601   -1.4167 H         1 <0>         0.0874
     54 H23         3.3009   -5.3989   -4.1193 H         1 <0>         0.0740
     55 H24         1.8830   -6.1915   -3.3053 H         1 <0>         0.0823
     56 H25         0.5686   -4.6798   -4.7173 H         1 <0>         0.0731
     57 H26         1.9385   -3.4924   -4.8373 H         1 <0>         0.0926
     58 H27        -1.4429   -3.7385   -3.3911 H         1 <0>         0.3990
     59 H28        -2.0008   -4.8605   -2.2720 H         1 <0>         0.4014
@<TRIPOS>BOND
     1    1    2 1
     2    1   33 1
     3    1   34 1
     4    1   35 1
     5    2    3 1
     6    2    8 1
     7    2    4 1
     8    4    5 1
     9    4   36 1
    10    4   37 1
    11    5    6 1
    12    5   25 1
    13    6    7 1
    14    6   38 1
    15    6   39 1
    16    7    8 1
    17    7   40 1
    18    7   41 1
    19    8    9 1
    20    9   10 2
    21    9   11 2
    22    9   12 1
    23   12   17 ar
    24   12   13 ar
    25   13   14 ar
    26   13   42 1
    27   14   15 ar
    28   14   43 1
    29   15   16 ar
    30   15   18 1
    31   16   17 ar
    32   16   44 1
    33   17   45 1
    34   18   19 1
    35   18   20 1
    36   18   24 1
    37   19   46 1
    38   19   47 1
    39   19   48 1
    40   20   21 1
    41   20   22 1
    42   20   23 1
    43   24   49 1
    44   25   26 1
    45   25   50 1
    46   25   51 1
    47   26   29 1
    48   26   27 1
    49   26   30 1
    50   27   28 1
    51   27   52 1
    52   27   53 1
    53   28   29 1
    54   28   54 1
    55   28   55 1
    56   29   56 1
    57   29   57 1
    58   30   31 2
    59   30   32 am
    60   32   58 1
    61   32   59 1
@<TRIPOS>MOLECULE
CHEMBL465956__3
   60    62     0     0     0
SMALL
USER_CHARGES

@<TRIPOS>ATOM
      1 C1         -0.1932    1.4350    0.4603 C.3       1 <0>        -0.1906
      2 C2         -0.0878   -0.0757    0.2419 C.3       1 <0>         0.1337
      3 H1         -1.0749   -0.5288    0.3341 H         1 <0>         0.1037
      4 C3          0.4791   -0.3558   -1.1537 C.3       1 <0>        -0.0194
      5 N1          0.7064   -1.7983   -1.3081 N.4       1 <0>        -0.3857
      6 C4          1.7393   -2.2455   -0.3651 C.3       1 <0>        -0.0328
      7 C5          1.2349   -2.0589    1.0696 C.3       1 <0>         0.0926
      8 N2          0.8189   -0.6578    1.2435 N.pl3     1 <0>        -1.0100
      9 S1          1.3607    0.2397    2.5254 S.o2      1 <0>         2.6905
     10 O1          2.4830   -0.4498    3.0584 O.2       1 <0>        -0.9374
     11 O2          1.4366    1.5855    2.0756 O.2       1 <0>        -0.9336
     12 C6          0.1064    0.1920    3.7620 C.ar      1 <0>        -0.6724
     13 C7         -0.8917    1.1482    3.7713 C.ar      1 <0>        -0.0220
     14 C8         -1.8757    1.1108    4.7415 C.ar      1 <0>        -0.1126
     15 C9         -1.8618    0.1168    5.7021 C.ar      1 <0>        -0.0686
     16 C10        -0.8641   -0.8400    5.6922 C.ar      1 <0>        -0.1087
     17 C11         0.1174   -0.8050    4.7195 C.ar      1 <0>        -0.0159
     18 C12        -2.9340    0.0766    6.7603 C.3       1 <0>         0.1362
     19 C13        -3.1742   -1.3727    7.1880 C.3       1 <0>        -0.1518
     20 C14        -2.4867    0.8982    7.9710 C.3       1 <0>         0.4272
     21 F1         -2.2671    2.2233    7.5799 F         1 <0>        -0.1791
     22 F2         -3.4821    0.8608    8.9534 F         1 <0>        -0.1652
     23 F3         -1.3021    0.3617    8.4867 F         1 <0>        -0.1721
     24 O3         -4.1440    0.6245    6.2335 O.3       1 <0>        -0.5155
     25 C15         1.1454   -2.0787   -2.6817 C.3       1 <0>         0.0095
     26 C16         1.3047   -3.5890   -2.8678 C.3       1 <0>        -0.1497
     27 C17         2.6981   -4.1135   -2.4829 C.3       1 <0>        -0.1295
     28 C18         2.6060   -5.0316   -3.7131 C.3       1 <0>        -0.1404
     29 C19         1.6354   -4.0001   -4.3123 C.3       1 <0>        -0.1117
     30 C20         0.1723   -4.3761   -2.2604 C.2       1 <0>         0.5147
     31 O4          0.3831   -5.1180   -1.3243 O.2       1 <0>        -0.5064
     32 N3         -1.0747   -4.2558   -2.7573 N.am      1 <0>        -0.8489
     33 H2          0.7671    1.9017    0.2411 H         1 <0>         0.1083
     34 H3         -0.9560    1.8454   -0.2014 H         1 <0>         0.0890
     35 H4         -0.4658    1.6342    1.4967 H         1 <0>         0.0863
     36 H5         -0.2301   -0.0168   -1.9089 H         1 <0>         0.1472
     37 H6          1.4226    0.1760   -1.2763 H         1 <0>         0.1422
     38 H7          1.9588   -3.2989   -0.5392 H         1 <0>         0.1551
     39 H8          2.6447   -1.6565   -0.5116 H         1 <0>         0.1410
     40 H9          0.3829   -2.7154    1.2466 H         1 <0>         0.1000
     41 H10         2.0343   -2.2939    1.7724 H         1 <0>         0.1445
     42 H11        -0.9026    1.9248    3.0208 H         1 <0>         0.1501
     43 H12        -2.6552    1.8583    4.7492 H         1 <0>         0.1400
     44 H13        -0.8531   -1.6164    6.4429 H         1 <0>         0.1479
     45 H14         0.8948   -1.5547    4.7095 H         1 <0>         0.1485
     46 H15        -2.2512   -1.7906    7.5899 H         1 <0>         0.0917
     47 H16        -3.9497   -1.4018    7.9535 H         1 <0>         0.0909
     48 H17        -3.4929   -1.9580    6.3255 H         1 <0>         0.0929
     49 H18        -4.0655    1.5431    5.9417 H         1 <0>         0.3884
     50 H19         0.4022   -1.7024   -3.3846 H         1 <0>         0.1401
     51 H20         2.1008   -1.5872   -2.8653 H         1 <0>         0.1479
     52 H21         3.4836   -3.3615   -2.5571 H         1 <0>         0.1050
     53 H22         2.7153   -4.6529   -1.5359 H         1 <0>         0.0975
     54 H23         3.5430   -5.1202   -4.2629 H         1 <0>         0.0899
     55 H24         2.1436   -5.9963   -3.5044 H         1 <0>         0.0913
     56 H25         0.7947   -4.4479   -4.8422 H         1 <0>         0.0869
     57 H26         2.1304   -3.2170   -4.8867 H         1 <0>         0.1079
     58 H27        -1.2311   -3.7197   -3.5504 H         1 <0>         0.4078
     59 H28        -1.8158   -4.7052   -2.3218 H         1 <0>         0.4164
     60 H29        -0.1527   -2.2945   -1.1243 H         1 <0>         0.4177
@<TRIPOS>BOND
     1    1    2 1
     2    1   33 1
     3    1   34 1
     4    1   35 1
     5    2    3 1
     6    2    8 1
     7    2    4 1
     8    4    5 1
     9    4   36 1
    10    4   37 1
    11    5    6 1
    12    5   25 1
    13    5   60 1
    14    6    7 1
    15    6   38 1
    16    6   39 1
    17    7    8 1
    18    7   40 1
    19    7   41 1
    20    8    9 1
    21    9   10 2
    22    9   11 2
    23    9   12 1
    24   12   17 ar
    25   12   13 ar
    26   13   14 ar
    27   13   42 1
    28   14   15 ar
    29   14   43 1
    30   15   16 ar
    31   15   18 1
    32   16   17 ar
    33   16   44 1
    34   17   45 1
    35   18   19 1
    36   18   20 1
    37   18   24 1
    38   19   46 1
    39   19   47 1
    40   19   48 1
    41   20   21 1
    42   20   22 1
    43   20   23 1
    44   24   49 1
    45   25   26 1
    46   25   50 1
    47   25   51 1
    48   26   29 1
    49   26   27 1
    50   26   30 1
    51   27   28 1
    52   27   52 1
    53   27   53 1
    54   28   29 1
    55   28   54 1
    56   28   55 1
    57   29   56 1
    58   29   57 1
    59   30   31 2
    60   30   32 am
    61   32   58 1
    62   32   59 1
@<TRIPOS>MOLECULE
CHEMBL564500
   66    70     0     0     0
SMALL
USER_CHARGES

@<TRIPOS>ATOM
      1 C1         -0.8706    2.0054   -6.3153 C.ar      1 <0>        -0.0704
      2 C2          0.2575    2.7949   -6.4342 C.ar      1 <0>        -0.1549
      3 C3          0.4810    3.8222   -5.5333 C.ar      1 <0>         0.1079
      4 C4         -0.4263    4.0574   -4.5141 C.ar      1 <0>        -0.1550
      5 C5         -1.5536    3.2667   -4.3972 C.ar      1 <0>        -0.0704
      6 C6         -1.7757    2.2412   -5.2973 C.ar      1 <0>        -0.1222
      7 C7         -3.0055    1.3797   -5.1687 C.3       1 <0>         0.1632
      8 N1         -2.7095    0.2315   -4.3083 N.am      1 <0>        -0.7310
      9 C8         -3.6670   -0.6810   -4.0492 C.2       1 <0>         0.5131
     10 O1         -4.7736   -0.5516   -4.5284 O.2       1 <0>        -0.5351
     11 C9         -3.3625   -1.8621   -3.1642 C.3       1 <0>        -0.1414
     12 C10        -4.6462   -2.6562   -2.9139 C.3       1 <0>        -0.0201
     13 C11        -4.3338   -3.9171   -2.0818 C.3       1 <0>        -0.1097
     14 C12        -5.2737   -5.0005   -2.6665 C.3       1 <0>        -0.1285
     15 C13        -5.2557   -4.6863   -4.1831 C.3       1 <0>        -0.1296
     16 C14        -5.2323   -3.1453   -4.2500 C.3       1 <0>        -0.1016
     17 C15        -5.6675   -1.7835   -2.1817 C.3       1 <0>        -0.1393
     18 C16        -5.0959   -1.3442   -0.8583 C.2       1 <0>         0.5134
     19 O2         -4.0256   -1.7767   -0.4865 O.2       1 <0>        -0.5358
     20 N2         -5.7742   -0.4707   -0.0880 N.am      1 <0>        -0.7262
     21 C17        -5.2185   -0.0437    1.1985 C.3       1 <0>         0.1590
     22 C18        -5.5924   -1.0610    2.2785 C.3       1 <0>        -0.0938
     23 C19        -7.1158   -1.1536    2.3864 C.3       1 <0>        -0.1064
     24 C20        -7.6850    0.2171    2.7580 C.3       1 <0>        -0.0871
     25 C21        -7.1046    0.6631    4.1016 C.3       1 <0>        -0.1082
     26 C22        -5.5813    0.7557    3.9936 C.3       1 <0>        -0.0883
     27 C23        -5.0121   -0.6150    3.6220 C.3       1 <0>        -0.1066
     28 C24        -5.2074    1.7730    2.9137 C.3       1 <0>        -0.1051
     29 C25        -5.7877    1.3270    1.5701 C.3       1 <0>        -0.0927
     30 C26        -7.3111    1.2344    1.6781 C.3       1 <0>        -0.1092
     31 F1          1.5836    4.5943   -5.6483 F         1 <0>        -0.1367
     32 H1         -1.0473    1.2068   -7.0205 H         1 <0>         0.1354
     33 H2          0.9646    2.6103   -7.2293 H         1 <0>         0.1388
     34 H3         -0.2528    4.8583   -3.8106 H         1 <0>         0.1385
     35 H4         -2.2613    3.4497   -3.6021 H         1 <0>         0.1343
     36 H5         -3.8141    1.9639   -4.7295 H         1 <0>         0.0769
     37 H6         -3.3065    1.0265   -6.1550 H         1 <0>         0.0783
     38 H7         -1.8245    0.1280   -3.9250 H         1 <0>         0.4019
     39 H8         -2.6284   -2.5027   -3.6529 H         1 <0>         0.0936
     40 H9         -2.9619   -1.5101   -2.2135 H         1 <0>         0.1129
     41 H10        -3.2910   -4.2085   -2.2075 H         1 <0>         0.0661
     42 H11        -4.5585   -3.7448   -1.0292 H         1 <0>         0.0779
     43 H12        -4.8797   -5.9984   -2.4741 H         1 <0>         0.0640
     44 H13        -6.2808   -4.8971   -2.2626 H         1 <0>         0.0631
     45 H14        -4.3617   -5.1020   -4.6482 H         1 <0>         0.0624
     46 H15        -6.1531   -5.0755   -4.6640 H         1 <0>         0.0626
     47 H16        -6.2447   -2.7617   -4.3763 H         1 <0>         0.0684
     48 H17        -4.6022   -2.8170   -5.0766 H         1 <0>         0.0643
     49 H18        -5.8969   -0.9068   -2.7874 H         1 <0>         0.1084
     50 H19        -6.5792   -2.3563   -2.0116 H         1 <0>         0.0928
     51 H20        -6.6302   -0.1248   -0.3853 H         1 <0>         0.3980
     52 H21        -4.1332    0.0223    1.1216 H         1 <0>         0.0861
     53 H22        -5.1869   -2.0375    2.0137 H         1 <0>         0.0742
     54 H23        -7.5292   -1.4713    1.4292 H         1 <0>         0.0605
     55 H24        -7.3821   -1.8783    3.1558 H         1 <0>         0.0620
     56 H25        -8.7702    0.1512    2.8349 H         1 <0>         0.0702
     57 H26        -7.5102    1.6396    4.3663 H         1 <0>         0.0620
     58 H27        -7.3710   -0.0616    4.8710 H         1 <0>         0.0624
     59 H28        -5.1678    1.0735    4.9508 H         1 <0>         0.0718
     60 H29        -5.2784   -1.3397    4.3914 H         1 <0>         0.0651
     61 H30        -3.9268   -0.5490    3.5451 H         1 <0>         0.0637
     62 H31        -5.6129    2.7495    3.1785 H         1 <0>         0.0675
     63 H32        -4.1221    1.8390    2.8368 H         1 <0>         0.0645
     64 H33        -5.5214    2.0517    0.8008 H         1 <0>         0.0742
     65 H34        -7.7245    0.9167    0.7209 H         1 <0>         0.0591
     66 H35        -7.7166    2.2109    1.9428 H         1 <0>         0.0670
@<TRIPOS>BOND
     1    1    6 ar
     2    1    2 ar
     3    1   32 1
     4    2    3 ar
     5    2   33 1
     6    3    4 ar
     7    3   31 1
     8    4    5 ar
     9    4   34 1
    10    5    6 ar
    11    5   35 1
    12    6    7 1
    13    7    8 1
    14    7   36 1
    15    7   37 1
    16    8    9 am
    17    8   38 1
    18    9   10 2
    19    9   11 1
    20   11   12 1
    21   11   39 1
    22   11   40 1
    23   12   16 1
    24   12   13 1
    25   12   17 1
    26   13   14 1
    27   13   41 1
    28   13   42 1
    29   14   15 1
    30   14   43 1
    31   14   44 1
    32   15   16 1
    33   15   45 1
    34   15   46 1
    35   16   47 1
    36   16   48 1
    37   17   18 1
    38   17   49 1
    39   17   50 1
    40   18   19 2
    41   18   20 am
    42   20   21 1
    43   20   51 1
    44   21   29 1
    45   21   22 1
    46   21   52 1
    47   22   27 1
    48   22   23 1
    49   22   53 1
    50   23   24 1
    51   23   54 1
    52   23   55 1
    53   24   30 1
    54   24   25 1
    55   24   56 1
    56   25   26 1
    57   25   57 1
    58   25   58 1
    59   26   27 1
    60   26   28 1
    61   26   59 1
    62   27   60 1
    63   27   61 1
    64   28   29 1
    65   28   62 1
    66   28   63 1
    67   29   30 1
    68   29   64 1
    69   30   65 1
    70   30   66 1
@<TRIPOS>MOLECULE
CHEMBL560250
   65    69     0     0     0
SMALL
USER_CHARGES

@<TRIPOS>ATOM
      1 C1         -0.6105    1.0135   -6.6613 C.ar      1 <0>        -0.0750
      2 C2         -1.4012    1.6728   -5.7323 C.ar      1 <0>        -0.1652
      3 C3         -2.0307    0.9410   -4.7436 C.ar      1 <0>         0.1003
      4 N1         -1.8858   -0.3682   -4.6775 N.ar      1 <0>        -0.4700
      5 C4         -1.1419   -1.0281   -5.5435 C.ar      1 <0>         0.1040
      6 C5         -0.4823   -0.3632   -6.5601 C.ar      1 <0>        -0.1537
      7 C6         -1.0090   -2.5244   -5.4232 C.3       1 <0>         0.1736
      8 N2          0.0573   -2.8449   -4.4712 N.am      1 <0>        -0.7265
      9 C7          0.3566   -4.1313   -4.2026 C.2       1 <0>         0.5149
     10 O1         -0.2568   -5.0235   -4.7491 O.2       1 <0>        -0.5351
     11 C8          1.4535   -4.4611   -3.2233 C.3       1 <0>        -0.1406
     12 C9          1.4909   -5.9727   -2.9894 C.3       1 <0>        -0.0201
     13 C10         2.6655   -6.3342   -2.0569 C.3       1 <0>        -0.1095
     14 C11         3.1947   -7.6781   -2.6162 C.3       1 <0>        -0.1283
     15 C12         3.0624   -7.4869   -4.1475 C.3       1 <0>        -0.1294
     16 C13         1.7433   -6.7056   -4.3186 C.3       1 <0>        -0.1016
     17 C14         0.1699   -6.4405   -2.3756 C.3       1 <0>        -0.1393
     18 C15        -0.0454   -5.7446   -1.0563 C.2       1 <0>         0.5137
     19 O2          0.8224   -5.0320   -0.5979 O.2       1 <0>        -0.5364
     20 N3         -1.2022   -5.9142   -0.3858 N.am      1 <0>        -0.7258
     21 C16        -1.4114   -5.2377    0.8967 C.3       1 <0>         0.1592
     22 C17        -0.8061   -6.0793    2.0219 C.3       1 <0>        -0.0936
     23 C18        -1.4822   -7.4514    2.0528 C.3       1 <0>        -0.1063
     24 C19        -2.9822   -7.2755    2.2979 C.3       1 <0>        -0.0870
     25 C20        -3.2007   -6.5690    3.6373 C.3       1 <0>        -0.1080
     26 C21        -2.5246   -5.1968    3.6064 C.3       1 <0>        -0.0882
     27 C22        -1.0246   -5.3728    3.3613 C.3       1 <0>        -0.1065
     28 C23        -3.1299   -4.3552    2.4811 C.3       1 <0>        -0.1050
     29 C24        -2.9114   -5.0617    1.1417 C.3       1 <0>        -0.0932
     30 C25        -3.5875   -6.4339    1.1726 C.3       1 <0>        -0.1092
     31 H1         -0.1100    1.5590   -7.4476 H         1 <0>         0.1382
     32 H2         -1.5232    2.7448   -5.7808 H         1 <0>         0.1384
     33 H3         -2.6483    1.4470   -4.0163 H         1 <0>         0.1592
     34 H4          0.1252   -0.9092   -7.2666 H         1 <0>         0.1375
     35 H5         -1.9503   -2.9455   -5.0699 H         1 <0>         0.0847
     36 H6         -0.7650   -2.9470   -6.3979 H         1 <0>         0.0842
     37 H7          0.5479   -2.1314   -4.0341 H         1 <0>         0.4012
     38 H8          2.4113   -4.1319   -3.6261 H         1 <0>         0.0933
     39 H9          1.2623   -3.9519   -2.2786 H         1 <0>         0.1131
     40 H10         3.4404   -5.5692   -2.1053 H         1 <0>         0.0659
     41 H11         2.3148   -6.4589   -1.0324 H         1 <0>         0.0781
     42 H12         4.2366   -7.8303   -2.3344 H         1 <0>         0.0639
     43 H13         2.5762   -8.5086   -2.2757 H         1 <0>         0.0631
     44 H14         3.9015   -6.9081   -4.5336 H         1 <0>         0.0622
     45 H15         3.0014   -8.4529   -4.6487 H         1 <0>         0.0625
     46 H16         0.9251   -7.3952   -4.5260 H         1 <0>         0.0687
     47 H17         1.8392   -5.9844   -5.1303 H         1 <0>         0.0644
     48 H18        -0.6504   -6.1994   -3.0516 H         1 <0>         0.1087
     49 H19         0.2047   -7.5183   -2.2164 H         1 <0>         0.0929
     50 H20        -1.8962   -6.4841   -0.7524 H         1 <0>         0.3980
     51 H21        -0.9297   -4.2601    0.8747 H         1 <0>         0.0860
     52 H22         0.2625   -6.2046    1.8474 H         1 <0>         0.0740
     53 H23        -1.3265   -7.9548    1.0986 H         1 <0>         0.0604
     54 H24        -1.0510   -8.0510    2.8545 H         1 <0>         0.0618
     55 H25        -3.4639   -8.2530    2.3199 H         1 <0>         0.0700
     56 H26        -4.2693   -6.4436    3.8118 H         1 <0>         0.0620
     57 H27        -2.7695   -7.1685    4.4389 H         1 <0>         0.0622
     58 H28        -2.6802   -4.6935    4.5606 H         1 <0>         0.0716
     59 H29        -0.5934   -5.9723    4.1630 H         1 <0>         0.0648
     60 H30        -0.5429   -4.3952    3.3393 H         1 <0>         0.0636
     61 H31        -4.1985   -4.2299    2.6557 H         1 <0>         0.0675
     62 H32        -2.6482   -3.3777    2.4591 H         1 <0>         0.0646
     63 H33        -3.3426   -4.4622    0.3401 H         1 <0>         0.0751
     64 H34        -3.4318   -6.9372    0.2184 H         1 <0>         0.0591
     65 H35        -4.6561   -6.3085    1.3472 H         1 <0>         0.0669
@<TRIPOS>BOND
     1    1    6 ar
     2    1    2 ar
     3    1   31 1
     4    2    3 ar
     5    2   32 1
     6    3    4 ar
     7    3   33 1
     8    4    5 ar
     9    5    6 ar
    10    5    7 1
    11    6   34 1
    12    7    8 1
    13    7   35 1
    14    7   36 1
    15    8    9 am
    16    8   37 1
    17    9   10 2
    18    9   11 1
    19   11   12 1
    20   11   38 1
    21   11   39 1
    22   12   16 1
    23   12   13 1
    24   12   17 1
    25   13   14 1
    26   13   40 1
    27   13   41 1
    28   14   15 1
    29   14   42 1
    30   14   43 1
    31   15   16 1
    32   15   44 1
    33   15   45 1
    34   16   46 1
    35   16   47 1
    36   17   18 1
    37   17   48 1
    38   17   49 1
    39   18   19 2
    40   18   20 am
    41   20   21 1
    42   20   50 1
    43   21   29 1
    44   21   22 1
    45   21   51 1
    46   22   27 1
    47   22   23 1
    48   22   52 1
    49   23   24 1
    50   23   53 1
    51   23   54 1
    52   24   30 1
    53   24   25 1
    54   24   55 1
    55   25   26 1
    56   25   56 1
    57   25   57 1
    58   26   27 1
    59   26   28 1
    60   26   58 1
    61   27   59 1
    62   27   60 1
    63   28   29 1
    64   28   61 1
    65   28   62 1
    66   29   30 1
    67   29   63 1
    68   30   64 1
    69   30   65 1
@<TRIPOS>MOLECULE
CHEMBL240053
   36    38     0     0     0
SMALL
USER_CHARGES

@<TRIPOS>ATOM
      1 C1          0.1918    1.3296    0.8768 C.ar      1 <0>        -0.1162
      2 C2          1.2056    2.0750    0.3034 C.ar      1 <0>        -0.1456
      3 C3          2.2304    1.4453   -0.3785 C.ar      1 <0>        -0.1455
      4 C4          2.2445    0.0667   -0.4885 C.ar      1 <0>         0.0680
      5 C5          1.2262   -0.6848    0.0878 C.ar      1 <0>         0.1328
      6 C6          0.1993   -0.0478    0.7710 C.ar      1 <0>        -0.1325
      7 N1          1.2362   -2.0804   -0.0214 N.2       1 <0>        -0.5717
      8 C7          0.0704   -2.7822    0.0894 C.2       1 <0>         0.4753
      9 N2         -1.1698   -2.3121    0.1154 N.2       1 <0>        -0.7278
     10 C8         -2.2384   -3.0531    0.2245 C.2       1 <0>         0.5226
     11 O1         -3.3582   -2.5804    0.2439 O.2       1 <0>        -0.5405
     12 C9         -1.9846   -4.5524    0.3252 C.3       1 <0>        -0.1093
     13 S1         -0.1449   -4.5517    0.2259 S.3       1 <0>        -0.2535
     14 C10        -2.6023   -5.3043   -0.8555 C.3       1 <0>        -0.0487
     15 C11        -4.0922   -4.9694   -0.9503 C.3       1 <0>        -0.1160
     16 C12        -4.7098   -5.7213   -2.1309 C.3       1 <0>        -0.1173
     17 C13        -4.5379   -7.2273   -1.9227 C.3       1 <0>        -0.1186
     18 C14        -3.0480   -7.5622   -1.8279 C.3       1 <0>        -0.1165
     19 C15        -2.4304   -6.8103   -0.6472 C.3       1 <0>        -0.1127
     20 F1          3.2456   -0.5487   -1.1550 F         1 <0>        -0.1431
     21 H1         -0.6049    1.8247    1.4121 H         1 <0>         0.1146
     22 H2          1.1966    3.1516    0.3881 H         1 <0>         0.1171
     23 H3          3.0204    2.0304   -0.8258 H         1 <0>         0.1230
     24 H4         -0.5930   -0.6286    1.2197 H         1 <0>         0.1455
     25 H5         -2.3357   -4.9527    1.2763 H         1 <0>         0.1184
     26 H6         -2.1034   -5.0058   -1.7775 H         1 <0>         0.0745
     27 H7         -4.5910   -5.2680   -0.0283 H         1 <0>         0.0594
     28 H8         -4.2147   -3.8965   -1.0986 H         1 <0>         0.0870
     29 H9         -5.7713   -5.4827   -2.1984 H         1 <0>         0.0590
     30 H10        -4.2110   -5.4228   -3.0529 H         1 <0>         0.0584
     31 H11        -5.0368   -7.5259   -1.0007 H         1 <0>         0.0592
     32 H12        -4.9780   -7.7630   -2.7638 H         1 <0>         0.0557
     33 H13        -2.9255   -8.6351   -1.6795 H         1 <0>         0.0583
     34 H14        -2.5492   -7.2637   -2.7499 H         1 <0>         0.0609
     35 H15        -1.3689   -7.0489   -0.5797 H         1 <0>         0.0659
     36 H16        -2.9292   -7.1089    0.2748 H         1 <0>         0.0600
@<TRIPOS>BOND
     1    1    6 ar
     2    1    2 ar
     3    1   21 1
     4    2    3 ar
     5    2   22 1
     6    3    4 ar
     7    3   23 1
     8    4    5 ar
     9    4   20 1
    10    5    6 ar
    11    5    7 1
    12    6   24 1
    13    7    8 1
    14    8   13 1
    15    8    9 2
    16    9   10 1
    17   10   11 2
    18   10   12 1
    19   12   13 1
    20   12   14 1
    21   12   25 1
    22   14   19 1
    23   14   15 1
    24   14   26 1
    25   15   16 1
    26   15   27 1
    27   15   28 1
    28   16   17 1
    29   16   29 1
    30   16   30 1
    31   17   18 1
    32   17   31 1
    33   17   32 1
    34   18   19 1
    35   18   33 1
    36   18   34 1
    37   19   35 1
    38   19   36 1
@<TRIPOS>MOLECULE
CHEMBL240053__1
   36    38     0     0     0
SMALL
USER_CHARGES

@<TRIPOS>ATOM
      1 C1          0.1918    1.3296    0.8768 C.ar      1 <0>        -0.1164
      2 C2          1.2055    2.0750    0.3034 C.ar      1 <0>        -0.1458
      3 C3          2.2304    1.4453   -0.3785 C.ar      1 <0>        -0.1456
      4 C4          2.2445    0.0667   -0.4885 C.ar      1 <0>         0.0676
      5 C5          1.2262   -0.6848    0.0878 C.ar      1 <0>         0.1333
      6 C6          0.1993   -0.0478    0.7710 C.ar      1 <0>        -0.1324
      7 N1          1.2362   -2.0804   -0.0214 N.2       1 <0>        -0.5724
      8 C7          0.0704   -2.7822    0.0894 C.2       1 <0>         0.4750
      9 N2         -1.1698   -2.3121    0.1154 N.2       1 <0>        -0.7273
     10 C8         -2.2384   -3.0531    0.2245 C.2       1 <0>         0.5245
     11 O1         -3.3582   -2.5804    0.2439 O.2       1 <0>        -0.5468
     12 C9         -1.9846   -4.5524    0.3252 C.3       1 <0>        -0.1128
     13 S1         -0.1449   -4.5517    0.2259 S.3       1 <0>        -0.2449
     14 C10        -2.4775   -5.1142    1.6602 C.3       1 <0>        -0.0477
     15 C11        -1.7425   -4.4196    2.8083 C.3       1 <0>        -0.1218
     16 C12        -2.2353   -4.9814    4.1434 C.3       1 <0>        -0.1146
     17 C13        -1.9592   -6.4853    4.1969 C.3       1 <0>        -0.1181
     18 C14        -2.6942   -7.1800    3.0488 C.3       1 <0>        -0.1155
     19 C15        -2.2013   -6.6182    1.7137 C.3       1 <0>        -0.1145
     20 F1          3.2456   -0.5487   -1.1550 F         1 <0>        -0.1432
     21 H1         -0.6049    1.8248    1.4121 H         1 <0>         0.1143
     22 H2          1.1966    3.1516    0.3880 H         1 <0>         0.1168
     23 H3          3.0204    2.0304   -0.8258 H         1 <0>         0.1228
     24 H4         -0.5930   -0.6285    1.2197 H         1 <0>         0.1456
     25 H5         -2.4247   -5.0881   -0.5160 H         1 <0>         0.1169
     26 H6         -3.5489   -4.9379    1.7552 H         1 <0>         0.0829
     27 H7         -0.6710   -4.5959    2.7133 H         1 <0>         0.0799
     28 H8         -1.9392   -3.3482    2.7702 H         1 <0>         0.0594
     29 H9         -1.7117   -4.4865    4.9613 H         1 <0>         0.0588
     30 H10        -3.3068   -4.8051    4.2384 H         1 <0>         0.0576
     31 H11        -0.8878   -6.6616    4.1019 H         1 <0>         0.0622
     32 H12        -2.3103   -6.8856    5.1480 H         1 <0>         0.0560
     33 H13        -2.4975   -8.2514    3.0869 H         1 <0>         0.0584
     34 H14        -3.7656   -7.0037    3.1438 H         1 <0>         0.0593
     35 H15        -2.7249   -7.1130    0.8958 H         1 <0>         0.0592
     36 H16        -1.1299   -6.7945    1.6187 H         1 <0>         0.0693
@<TRIPOS>BOND
     1    1    6 ar
     2    1    2 ar
     3    1   21 1
     4    2    3 ar
     5    2   22 1
     6    3    4 ar
     7    3   23 1
     8    4    5 ar
     9    4   20 1
    10    5    6 ar
    11    5    7 1
    12    6   24 1
    13    7    8 1
    14    8   13 1
    15    8    9 2
    16    9   10 1
    17   10   11 2
    18   10   12 1
    19   12   13 1
    20   12   14 1
    21   12   25 1
    22   14   19 1
    23   14   15 1
    24   14   26 1
    25   15   16 1
    26   15   27 1
    27   15   28 1
    28   16   17 1
    29   16   29 1
    30   16   30 1
    31   17   18 1
    32   17   31 1
    33   17   32 1
    34   18   19 1
    35   18   33 1
    36   18   34 1
    37   19   35 1
    38   19   36 1
@<TRIPOS>MOLECULE
CHEMBL1095785
   52    56     0     0     0
SMALL
USER_CHARGES

@<TRIPOS>ATOM
      1 C1         -0.0167    1.3788    0.0096 C.ar      1 <0>         0.0323
      2 C2          1.1946    2.0581    0.0017 C.ar      1 <0>        -0.1680
      3 C3          2.3728    1.3394   -0.0134 C.ar      1 <0>         0.1415
      4 N1          2.3606    0.0197   -0.0204 N.ar      1 <0>        -0.5029
      5 C4          1.2269   -0.6641   -0.0137 C.ar      1 <0>         0.4761
      6 C5          0.0021   -0.0041    0.0020 C.ar      1 <0>        -0.1752
      7 N2          1.2605   -2.0536   -0.0219 N.pl3     1 <0>        -0.5834
      8 C6          2.4789   -2.8836   -0.0316 C.3       1 <0>         0.0810
      9 C7          2.0399   -4.2396    0.5753 C.3       1 <0>        -0.1275
     10 C8          0.6087   -4.3914   -0.0042 C.3       1 <0>        -0.1257
     11 C9          0.0869   -2.9392   -0.0159 C.3       1 <0>         0.1158
     12 H1         -0.5142   -2.7521    0.8739 H         1 <0>         0.1218
     13 C10        -0.7388   -2.7041   -1.2545 C.2       1 <0>         0.4968
     14 O1         -0.3876   -1.8775   -2.0696 O.2       1 <0>        -0.5266
     15 N3         -1.8675   -3.4124   -1.4564 N.am      1 <0>        -0.7086
     16 C11        -2.6702   -3.1839   -2.6604 C.3       1 <0>         0.1572
     17 C12        -3.6233   -2.0109   -2.4229 C.3       1 <0>        -0.0914
     18 C13        -4.5477   -2.3348   -1.2475 C.3       1 <0>        -0.1068
     19 C14        -5.3574   -3.5931   -1.5672 C.3       1 <0>        -0.0883
     20 C15        -6.1957   -3.3544   -2.8246 C.3       1 <0>        -0.1106
     21 C16        -5.2713   -3.0305   -3.9999 C.3       1 <0>        -0.0899
     22 C17        -4.4617   -1.7722   -3.6803 C.3       1 <0>        -0.1077
     23 C18        -4.3181   -4.2035   -4.2375 C.3       1 <0>        -0.1072
     24 C19        -3.4798   -4.4422   -2.9800 C.3       1 <0>        -0.0929
     25 C20        -4.4042   -4.7661   -1.8047 C.3       1 <0>        -0.1101
     26 H2         -0.9522    1.9182    0.0259 H         1 <0>         0.1721
     27 H3          1.2145    3.1379    0.0070 H         1 <0>         0.1805
     28 H4          3.3170    1.8637   -0.0200 H         1 <0>         0.2065
     29 H5         -0.9214   -0.5640    0.0078 H         1 <0>         0.1646
     30 H6          2.8352   -3.0224   -1.0523 H         1 <0>         0.0946
     31 H7          3.2543   -2.4262    0.5829 H         1 <0>         0.0890
     32 H8          2.6871   -5.0478    0.2348 H         1 <0>         0.1078
     33 H9          2.0175   -4.1914    1.6640 H         1 <0>         0.0928
     34 H10         0.6428   -4.8010   -1.0138 H         1 <0>         0.0948
     35 H11        -0.0063   -5.0144    0.6453 H         1 <0>         0.1105
     36 H12        -2.1484   -4.0735   -0.8045 H         1 <0>         0.4038
     37 H13        -2.0117   -2.9532   -3.4978 H         1 <0>         0.0906
     38 H14        -3.0466   -1.1144   -2.1952 H         1 <0>         0.0699
     39 H15        -3.9505   -2.5048   -0.3517 H         1 <0>         0.0565
     40 H16        -5.2268   -1.4991   -1.0783 H         1 <0>         0.0662
     41 H17        -6.0159   -3.8238   -0.7298 H         1 <0>         0.0740
     42 H18        -6.7724   -4.2508   -3.0523 H         1 <0>         0.0661
     43 H19        -6.8747   -2.5187   -2.6554 H         1 <0>         0.0652
     44 H20        -5.8685   -2.8605   -4.8958 H         1 <0>         0.0764
     45 H21        -5.1407   -0.9365   -3.5111 H         1 <0>         0.0690
     46 H22        -3.8031   -1.5415   -4.5177 H         1 <0>         0.0647
     47 H23        -4.8949   -5.1000   -4.4652 H         1 <0>         0.0728
     48 H24        -3.6596   -3.9728   -5.0748 H         1 <0>         0.0663
     49 H25        -2.8008   -5.2779   -3.1493 H         1 <0>         0.0775
     50 H26        -3.8070   -4.9361   -0.9089 H         1 <0>         0.0568
     51 H27        -4.9810   -5.6625   -2.0324 H         1 <0>         0.0726
     52 H28         3.2030   -0.4611   -0.0310 H         1 <0>         0.4387
@<TRIPOS>BOND
     1    1    6 ar
     2    1    2 ar
     3    1   26 1
     4    2    3 ar
     5    2   27 1
     6    3    4 ar
     7    3   28 1
     8    4    5 ar
     9    4   52 1
    10    5    6 ar
    11    5    7 1
    12    6   29 1
    13    7   11 1
    14    7    8 1
    15    8    9 1
    16    8   30 1
    17    8   31 1
    18    9   10 1
    19    9   32 1
    20    9   33 1
    21   10   11 1
    22   10   34 1
    23   10   35 1
    24   11   12 1
    25   11   13 1
    26   13   14 2
    27   13   15 am
    28   15   16 1
    29   15   36 1
    30   16   24 1
    31   16   17 1
    32   16   37 1
    33   17   22 1
    34   17   18 1
    35   17   38 1
    36   18   19 1
    37   18   39 1
    38   18   40 1
    39   19   25 1
    40   19   20 1
    41   19   41 1
    42   20   21 1
    43   20   42 1
    44   20   43 1
    45   21   22 1
    46   21   23 1
    47   21   44 1
    48   22   45 1
    49   22   46 1
    50   23   24 1
    51   23   47 1
    52   23   48 1
    53   24   25 1
    54   24   49 1
    55   25   50 1
    56   25   51 1
@<TRIPOS>MOLECULE
CHEMBL1095785__1
   51    55     0     0     0
SMALL
USER_CHARGES

@<TRIPOS>ATOM
      1 C1         -0.0167    1.3788    0.0096 C.ar      1 <0>        -0.0363
      2 C2          1.1946    2.0581    0.0017 C.ar      1 <0>        -0.2345
      3 C3          2.3728    1.3394   -0.0134 C.ar      1 <0>         0.1459
      4 N1          2.3606    0.0197   -0.0204 N.ar      1 <0>        -0.5419
      5 C4          1.2269   -0.6641   -0.0132 C.ar      1 <0>         0.4357
      6 C5          0.0021   -0.0041    0.0020 C.ar      1 <0>        -0.2173
      7 N2          1.2605   -2.0537   -0.0210 N.pl3     1 <0>        -0.5978
      8 C6          2.4748   -2.8843    0.0738 C.3       1 <0>         0.1197
      9 C7          1.9841   -4.2411    0.6377 C.3       1 <0>        -0.1333
     10 C8          0.6086   -4.3911   -0.0643 C.3       1 <0>        -0.1228
     11 C9          0.0905   -2.9385   -0.1187 C.3       1 <0>         0.1303
     12 H1         -0.5856   -2.7526    0.7158 H         1 <0>         0.0970
     13 C10        -0.6243   -2.7008   -1.4239 C.2       1 <0>         0.4963
     14 O1         -0.2033   -1.8730   -2.2039 O.2       1 <0>        -0.5155
     15 N3         -1.7315   -3.4081   -1.7245 N.am      1 <0>        -0.7232
     16 C11        -2.4264   -3.1770   -2.9933 C.3       1 <0>         0.1596
     17 C12        -3.3961   -2.0038   -2.8374 C.3       1 <0>        -0.0942
     18 C13        -4.4193   -2.3293   -1.7475 C.3       1 <0>        -0.1058
     19 C14        -5.1986   -3.5865   -2.1386 C.3       1 <0>        -0.0870
     20 C15        -5.9243   -3.3452   -3.4637 C.3       1 <0>        -0.1082
     21 C16        -4.9011   -3.0197   -4.5536 C.3       1 <0>        -0.0883
     22 C17        -4.1218   -1.7625   -4.1626 C.3       1 <0>        -0.1068
     23 C18        -3.9314   -4.1929   -4.7095 C.3       1 <0>        -0.1056
     24 C19        -3.2057   -4.4343   -3.3844 C.3       1 <0>        -0.0924
     25 C20        -4.2289   -4.7597   -2.2944 C.3       1 <0>        -0.1087
     26 H2         -0.9522    1.9182    0.0259 H         1 <0>         0.1294
     27 H3          1.2145    3.1379    0.0070 H         1 <0>         0.1302
     28 H4          3.3170    1.8637   -0.0200 H         1 <0>         0.1544
     29 H5         -0.9214   -0.5640    0.0078 H         1 <0>         0.1174
     30 H6          2.9185   -3.0215   -0.9123 H         1 <0>         0.0628
     31 H7          3.1940   -2.4284    0.7542 H         1 <0>         0.0823
     32 H8          2.6581   -5.0491    0.3533 H         1 <0>         0.0895
     33 H9          1.8672   -4.1948    1.7205 H         1 <0>         0.0806
     34 H10         0.7302   -4.7989   -1.0678 H         1 <0>         0.0829
     35 H11        -0.0607   -5.0149    0.5282 H         1 <0>         0.0928
     36 H12        -2.0683   -4.0702   -1.1007 H         1 <0>         0.3979
     37 H13        -1.6974   -2.9452   -3.7698 H         1 <0>         0.0862
     38 H14        -2.8409   -1.1081   -2.5588 H         1 <0>         0.0731
     39 H15        -3.9023   -2.5012   -0.8034 H         1 <0>         0.0595
     40 H16        -5.1101   -1.4935   -1.6364 H         1 <0>         0.0626
     41 H17        -5.9276   -3.8184   -1.3621 H         1 <0>         0.0707
     42 H18        -6.4795   -4.2409   -3.7423 H         1 <0>         0.0626
     43 H19        -6.6151   -2.5094   -3.3526 H         1 <0>         0.0626
     44 H20        -5.4181   -2.8478   -5.4977 H         1 <0>         0.0723
     45 H21        -4.8126   -0.9267   -4.0515 H         1 <0>         0.0656
     46 H22        -3.3928   -1.5306   -4.9391 H         1 <0>         0.0638
     47 H23        -4.4866   -5.0886   -4.9881 H         1 <0>         0.0685
     48 H24        -3.2024   -3.9611   -5.4860 H         1 <0>         0.0650
     49 H25        -2.5149   -5.2701   -3.4954 H         1 <0>         0.0758
     50 H26        -3.7119   -4.9317   -1.3504 H         1 <0>         0.0588
     51 H27        -4.7841   -5.6554   -2.5730 H         1 <0>         0.0679
@<TRIPOS>BOND
     1    1    6 ar
     2    1    2 ar
     3    1   26 1
     4    2    3 ar
     5    2   27 1
     6    3    4 ar
     7    3   28 1
     8    4    5 ar
     9    5    6 ar
    10    5    7 1
    11    6   29 1
    12    7   11 1
    13    7    8 1
    14    8    9 1
    15    8   30 1
    16    8   31 1
    17    9   10 1
    18    9   32 1
    19    9   33 1
    20   10   11 1
    21   10   34 1
    22   10   35 1
    23   11   12 1
    24   11   13 1
    25   13   14 2
    26   13   15 am
    27   15   16 1
    28   15   36 1
    29   16   24 1
    30   16   17 1
    31   16   37 1
    32   17   22 1
    33   17   18 1
    34   17   38 1
    35   18   19 1
    36   18   39 1
    37   18   40 1
    38   19   25 1
    39   19   20 1
    40   19   41 1
    41   20   21 1
    42   20   42 1
    43   20   43 1
    44   21   22 1
    45   21   23 1
    46   21   44 1
    47   22   45 1
    48   22   46 1
    49   23   24 1
    50   23   47 1
    51   23   48 1
    52   24   25 1
    53   24   49 1
    54   25   50 1
    55   25   51 1
@<TRIPOS>MOLECULE
CHEMBL392866
   40    43     0     0     0
SMALL
USER_CHARGES

@<TRIPOS>ATOM
      1 C1          0.0760    1.5279   -0.2472 C.3       1 <0>        -0.1345
      2 C2          1.5856    1.8780   -0.1703 C.3       1 <0>        -0.1342
      3 C3          2.1113    0.7789    0.7865 C.3       1 <0>         0.1018
      4 N1          1.3411   -0.4279    0.4345 N.am      1 <0>        -0.6189
      5 C4          0.0753   -0.0142   -0.1886 C.3       1 <0>         0.0850
      6 C5          1.7328   -1.6997    0.6479 C.2       1 <0>         0.5384
      7 O1          2.8448   -1.9282    1.0746 O.2       1 <0>        -0.5367
      8 C6          0.7891   -2.8378    0.3562 C.3       1 <0>        -0.0638
      9 C7         -0.4765   -2.6803    1.2015 C.3       1 <0>        -0.1093
     10 C8         -1.4346   -3.8358    0.9053 C.3       1 <0>        -0.0835
     11 C9         -0.7545   -5.1628    1.2477 C.3       1 <0>        -0.1104
     12 C10         0.5111   -5.3203    0.4024 C.3       1 <0>        -0.0867
     13 C11         1.4692   -4.1648    0.6986 C.3       1 <0>        -0.0872
     14 C12         0.1383   -5.3062   -1.0814 C.3       1 <0>        -0.1104
     15 C13        -0.5418   -3.9792   -1.4238 C.3       1 <0>        -0.0833
     16 C14        -1.8074   -3.8217   -0.5785 C.3       1 <0>        -0.1092
     17 C15         0.4163   -2.8237   -1.1277 C.3       1 <0>        -0.1136
     18 H1         -0.4609    1.9464    0.6041 H         1 <0>         0.0780
     19 H2         -0.3538    1.8783   -1.1857 H         1 <0>         0.0840
     20 H3          2.0553    1.7997   -1.1508 H         1 <0>         0.0765
     21 H4          1.7353    2.8704    0.2549 H         1 <0>         0.0857
     22 H5          3.1757    0.6108    0.6227 H         1 <0>         0.0789
     23 H6          1.9257    1.0583    1.8236 H         1 <0>         0.0680
     24 H7         -0.7648   -0.3620    0.4126 H         1 <0>         0.0782
     25 H8          0.0072   -0.4235   -1.1965 H         1 <0>         0.0788
     26 H9         -0.2109   -2.6904    2.2586 H         1 <0>         0.0660
     27 H10        -0.9610   -1.7349    0.9575 H         1 <0>         0.0751
     28 H11        -2.3362   -3.7236    1.5075 H         1 <0>         0.0742
     29 H12        -0.4889   -5.1729    2.3048 H         1 <0>         0.0629
     30 H13        -1.4371   -5.9860    1.0367 H         1 <0>         0.0647
     31 H14         0.9956   -6.2657    0.6464 H         1 <0>         0.0744
     32 H15         2.3708   -4.2770    0.0964 H         1 <0>         0.0689
     33 H16         1.7348   -4.1749    1.7557 H         1 <0>         0.0685
     34 H17         1.0399   -5.4184   -1.6836 H         1 <0>         0.0629
     35 H18        -0.5443   -6.1294   -1.2924 H         1 <0>         0.0646
     36 H19        -0.8074   -3.9691   -2.4809 H         1 <0>         0.0742
     37 H20        -2.4900   -4.6449   -0.7895 H         1 <0>         0.0656
     38 H21        -2.2919   -2.8763   -0.8224 H         1 <0>         0.0626
     39 H22        -0.0682   -1.8783   -1.3716 H         1 <0>         0.0778
     40 H23         1.3179   -2.9359   -1.7298 H         1 <0>         0.0661
@<TRIPOS>BOND
     1    1    5 1
     2    1    2 1
     3    1   18 1
     4    1   19 1
     5    2    3 1
     6    2   20 1
     7    2   21 1
     8    3    4 1
     9    3   22 1
    10    3   23 1
    11    4    5 1
    12    4    6 am
    13    5   24 1
    14    5   25 1
    15    6    7 2
    16    6    8 1
    17    8   13 1
    18    8   17 1
    19    8    9 1
    20    9   10 1
    21    9   26 1
    22    9   27 1
    23   10   16 1
    24   10   11 1
    25   10   28 1
    26   11   12 1
    27   11   29 1
    28   11   30 1
    29   12   13 1
    30   12   14 1
    31   12   31 1
    32   13   32 1
    33   13   33 1
    34   14   15 1
    35   14   34 1
    36   14   35 1
    37   15   16 1
    38   15   17 1
    39   15   36 1
    40   16   37 1
    41   16   38 1
    42   17   39 1
    43   17   40 1
@<TRIPOS>MOLECULE
CHEMBL258388
   37    39     0     0     0
SMALL
USER_CHARGES

@<TRIPOS>ATOM
      1 C1         -2.5957   -1.1336    0.0553 C.3       1 <0>         0.0642
      2 N1         -1.1311   -1.1445    0.0219 N.pl3     1 <0>        -0.4559
      3 C2         -0.3303   -1.2728   -1.0815 C.2       1 <0>         0.2016
      4 N2          0.9166   -1.2318   -0.6636 N.2       1 <0>        -0.2453
      5 N3          0.9468   -1.0880    0.6133 N.2       1 <0>        -0.2457
      6 C3         -0.2790   -1.0226    1.0869 C.2       1 <0>         0.2017
      7 C4         -0.6643   -0.8532    2.5042 C.ar      1 <0>         0.0300
      8 C5         -1.6612    0.0586    2.8554 C.ar      1 <0>        -0.1017
      9 C6         -2.0159    0.2119    4.1796 C.ar      1 <0>        -0.0844
     10 C7         -1.3858   -0.5358    5.1588 C.ar      1 <0>        -0.1025
     11 C8         -0.3971   -1.4411    4.8175 C.ar      1 <0>        -0.0694
     12 C9         -0.0369   -1.6082    3.4960 C.ar      1 <0>        -0.1439
     13 C10         1.0358   -2.5997    3.1253 C.3       1 <0>         0.5029
     14 F1          1.5093   -3.2287    4.2817 F         1 <0>        -0.1790
     15 F2          0.5039   -3.5592    2.2571 F         1 <0>        -0.1769
     16 F3          2.0898   -1.9317    2.4928 F         1 <0>        -0.1473
     17 C11        -0.7822   -1.4283   -2.4806 C.ar      1 <0>         0.0297
     18 C12        -1.7673   -0.5848   -2.9969 C.ar      1 <0>        -0.1001
     19 C13        -2.1846   -0.7351   -4.3030 C.ar      1 <0>        -0.0846
     20 C14        -1.6288   -1.7195   -5.1011 C.ar      1 <0>        -0.1022
     21 C15        -0.6521   -2.5588   -4.5956 C.ar      1 <0>        -0.0698
     22 C16        -0.2218   -2.4152   -3.2925 C.ar      1 <0>        -0.1438
     23 C17         0.8471   -3.3260   -2.7455 C.3       1 <0>         0.5027
     24 F4          1.2483   -4.2242   -3.7402 F         1 <0>        -0.1788
     25 F5          1.9455   -2.5626   -2.3360 F         1 <0>        -0.1477
     26 F6          0.3396   -4.0367   -1.6526 F         1 <0>        -0.1772
     27 H1         -2.9561   -0.1236   -0.1400 H         1 <0>         0.0896
     28 H2         -2.9816   -1.8108   -0.7067 H         1 <0>         0.0971
     29 H3         -2.9392   -1.4584    1.0375 H         1 <0>         0.0985
     30 H4         -2.1534    0.6429    2.0922 H         1 <0>         0.1356
     31 H5         -2.7868    0.9172    4.4527 H         1 <0>         0.1421
     32 H6         -1.6670   -0.4118    6.1942 H         1 <0>         0.1432
     33 H7          0.0908   -2.0216    5.5865 H         1 <0>         0.1484
     34 H8         -2.2021    0.1837   -2.3749 H         1 <0>         0.1355
     35 H9         -2.9469   -0.0834   -4.7035 H         1 <0>         0.1421
     36 H10        -1.9592   -1.8334   -6.1230 H         1 <0>         0.1431
     37 H11        -0.2224   -3.3251   -5.2237 H         1 <0>         0.1483
@<TRIPOS>BOND
     1    1    2 1
     2    1   27 1
     3    1   28 1
     4    1   29 1
     5    2    6 1
     6    2    3 1
     7    3    4 2
     8    3   17 1
     9    4    5 1
    10    5    6 2
    11    6    7 1
    12    7   12 ar
    13    7    8 ar
    14    8    9 ar
    15    8   30 1
    16    9   10 ar
    17    9   31 1
    18   10   11 ar
    19   10   32 1
    20   11   12 ar
    21   11   33 1
    22   12   13 1
    23   13   14 1
    24   13   15 1
    25   13   16 1
    26   17   22 ar
    27   17   18 ar
    28   18   19 ar
    29   18   34 1
    30   19   20 ar
    31   19   35 1
    32   20   21 ar
    33   20   36 1
    34   21   22 ar
    35   21   37 1
    36   22   23 1
    37   23   24 1
    38   23   25 1
    39   23   26 1
@<TRIPOS>MOLECULE
CHEMBL1095786
   60    64     0     0     0
SMALL
USER_CHARGES

@<TRIPOS>ATOM
      1 C1          0.2384    1.6238   -0.1195 C.3       1 <0>        -0.1404
      2 C2          1.7549    1.9181   -0.1816 C.3       1 <0>        -0.1358
      3 C3          2.3817    0.6347    0.4190 C.3       1 <0>         0.0028
      4 H1          2.3500    0.6645    1.5081 H         1 <0>         0.1669
      5 N1          1.5065   -0.4466   -0.1015 N.4       1 <0>        -0.3793
      6 C4          0.1290    0.0893   -0.0496 C.3       1 <0>        -0.0111
      7 C5          1.6177   -1.6408    0.7468 C.3       1 <0>        -0.0009
      8 C6          0.8191   -2.7865    0.1219 C.3       1 <0>        -0.1119
      9 C7          0.8276   -3.9920    1.0668 C.3       1 <0>        -0.1486
     10 C8          0.0939   -5.1585    0.3998 C.3       1 <0>         0.0580
     11 O1          0.7211   -5.4632   -0.8475 O.3       1 <0>        -0.3726
     12 C9          0.7011   -4.3881   -1.7887 C.3       1 <0>         0.0605
     13 C10         1.4593   -3.1907   -1.2097 C.3       1 <0>        -0.1639
     14 C11         3.7976    0.4575   -0.0655 C.2       1 <0>         0.5082
     15 O2          4.0990   -0.5233   -0.7121 O.2       1 <0>        -0.5229
     16 N2          4.7291    1.3888    0.2198 N.am      1 <0>        -0.6936
     17 C12         6.1055    1.2165   -0.2512 C.3       1 <0>         0.1553
     18 C13         6.8799    0.3489    0.7431 C.3       1 <0>        -0.0930
     19 C14         6.8912    1.0298    2.1132 C.3       1 <0>        -0.1073
     20 C15         7.5656    2.3982    1.9972 C.3       1 <0>        -0.0890
     21 C16         9.0032    2.2182    1.5053 C.3       1 <0>        -0.1114
     22 C17         8.9919    1.5374    0.1351 C.3       1 <0>        -0.0906
     23 C18         8.3175    0.1689    0.2512 C.3       1 <0>        -0.1082
     24 C19         8.2175    2.4049   -0.8591 C.3       1 <0>        -0.1073
     25 C20         6.7800    2.5849   -0.3672 C.3       1 <0>        -0.0924
     26 C21         6.7912    3.2658    1.0029 C.3       1 <0>        -0.1105
     27 H2         -0.1984    2.0752    0.7713 H         1 <0>         0.1101
     28 H3         -0.2565    1.9979   -1.0157 H         1 <0>         0.1109
     29 H4          2.0785    2.0592   -1.2128 H         1 <0>         0.1041
     30 H5          2.0039    2.7891    0.4246 H         1 <0>         0.1251
     31 H6         -0.3497   -0.2067    0.8838 H         1 <0>         0.1357
     32 H7         -0.4457   -0.2810   -0.8985 H         1 <0>         0.1354
     33 H8          2.6651   -1.9311    0.8300 H         1 <0>         0.1338
     34 H9          1.2219   -1.4203    1.7381 H         1 <0>         0.1312
     35 H10        -0.2077   -2.4637   -0.0503 H         1 <0>         0.0944
     36 H11         1.8569   -4.2821    1.2779 H         1 <0>         0.0847
     37 H12         0.3241   -3.7292    1.9971 H         1 <0>         0.0860
     38 H13         0.1339   -6.0324    1.0499 H         1 <0>         0.1062
     39 H14        -0.9460   -4.8819    0.2258 H         1 <0>         0.0567
     40 H15         1.1786   -4.7071   -2.7152 H         1 <0>         0.1044
     41 H16        -0.3308   -4.1015   -1.9914 H         1 <0>         0.0557
     42 H17         1.4075   -2.3549   -1.9074 H         1 <0>         0.0677
     43 H18         2.5013   -3.4646   -1.0446 H         1 <0>         0.0914
     44 H19         4.4881    2.1733    0.7370 H         1 <0>         0.4074
     45 H20         6.0975    0.7314   -1.2273 H         1 <0>         0.0963
     46 H21         6.3995   -0.6260    0.8257 H         1 <0>         0.0728
     47 H22         5.8671    1.1580    2.4636 H         1 <0>         0.0549
     48 H23         7.4429    0.4117    2.8215 H         1 <0>         0.0685
     49 H24         7.5737    2.8832    2.9733 H         1 <0>         0.0750
     50 H25         9.4837    3.1931    1.4226 H         1 <0>         0.0670
     51 H26         9.5549    1.6001    2.2136 H         1 <0>         0.0664
     52 H27        10.0160    1.4091   -0.2153 H         1 <0>         0.0784
     53 H28         8.8692   -0.4491    0.9595 H         1 <0>         0.0712
     54 H29         8.3095   -0.3161   -0.7249 H         1 <0>         0.0666
     55 H30         8.6980    3.3798   -0.9418 H         1 <0>         0.0746
     56 H31         8.2095    1.9199   -1.8352 H         1 <0>         0.0679
     57 H32         6.2283    3.2030   -1.0756 H         1 <0>         0.0788
     58 H33         5.7671    3.3940    1.3533 H         1 <0>         0.0551
     59 H34         7.2717    4.2406    0.9202 H         1 <0>         0.0746
     60 H35         1.7575   -0.6696   -1.0531 H         1 <0>         0.4303
@<TRIPOS>BOND
     1    1    6 1
     2    1    2 1
     3    1   27 1
     4    1   28 1
     5    2    3 1
     6    2   29 1
     7    2   30 1
     8    3    4 1
     9    3    5 1
    10    3   14 1
    11    5    6 1
    12    5    7 1
    13    5   60 1
    14    6   31 1
    15    6   32 1
    16    7    8 1
    17    7   33 1
    18    7   34 1
    19    8   13 1
    20    8    9 1
    21    8   35 1
    22    9   10 1
    23    9   36 1
    24    9   37 1
    25   10   11 1
    26   10   38 1
    27   10   39 1
    28   11   12 1
    29   12   13 1
    30   12   40 1
    31   12   41 1
    32   13   42 1
    33   13   43 1
    34   14   15 2
    35   14   16 am
    36   16   17 1
    37   16   44 1
    38   17   25 1
    39   17   18 1
    40   17   45 1
    41   18   23 1
    42   18   19 1
    43   18   46 1
    44   19   20 1
    45   19   47 1
    46   19   48 1
    47   20   26 1
    48   20   21 1
    49   20   49 1
    50   21   22 1
    51   21   50 1
    52   21   51 1
    53   22   23 1
    54   22   24 1
    55   22   52 1
    56   23   53 1
    57   23   54 1
    58   24   25 1
    59   24   55 1
    60   24   56 1
    61   25   26 1
    62   25   57 1
    63   26   58 1
    64   26   59 1
@<TRIPOS>MOLECULE
CHEMBL258975
   47    49     0     0     0
SMALL
USER_CHARGES

@<TRIPOS>ATOM
      1 C1         -0.2076    1.4576    1.6063 C.ar      1 <0>        -0.0378
      2 C2          0.9506    2.1438    1.2929 C.ar      1 <0>        -0.1267
      3 C3          2.1104    1.4475    1.0023 C.ar      1 <0>         0.0567
      4 C4          2.1107    0.0644    1.0258 C.ar      1 <0>        -0.6624
      5 C5          0.9514   -0.6217    1.3400 C.ar      1 <0>         0.0561
      6 C6         -0.2079    0.0756    1.6300 C.ar      1 <0>        -0.1266
      7 Cl1         0.9508   -2.3575    1.3693 Cl        1 <0>        -0.0089
      8 S1          3.5872   -0.8230    0.6552 S.o2      1 <0>         2.4775
      9 O1          3.1414   -2.0820    0.1700 O.2       1 <0>        -0.9014
     10 O2          4.3358    0.0508   -0.1785 O.2       1 <0>        -0.9038
     11 C7          4.4209   -1.0288    2.2531 C.3       1 <0>        -0.5581
     12 C8          5.7100   -1.7834    2.0535 C.ar      1 <0>        -0.1516
     13 C9          5.7294   -3.1654    2.1239 C.ar      1 <0>        -0.0037
     14 C10         6.9504   -3.8224    1.9319 C.ar      1 <0>        -0.1819
     15 C11         8.0927   -3.0616    1.6786 C.ar      1 <0>         0.1416
     16 N1          8.0232   -1.7480    1.6216 N.ar      1 <0>        -0.4747
     17 C12         6.8852   -1.1023    1.7925 C.ar      1 <0>         0.1429
     18 C13         7.0288   -5.2973    1.9967 C.2       1 <0>         0.5590
     19 O3          6.1344   -5.9746    1.5289 O.2       1 <0>        -0.5182
     20 N2          8.0919   -5.8909    2.5746 N.am      1 <0>        -0.5978
     21 C14         8.2042   -7.3307    2.5054 C.3       1 <0>         0.1170
     22 C15         7.4840   -7.9669    3.7198 C.3       1 <0>        -0.1345
     23 C16         8.2467   -7.7197    4.9530 C.3       1 <0>        -0.1200
     24 C17         8.3817   -6.2459    5.3237 C.3       1 <0>        -0.1172
     25 C18         9.5574   -5.6510    4.5887 C.3       1 <0>        -0.1319
     26 C19         9.0965   -5.0438    3.2468 C.3       1 <0>         0.0963
     27 Cl2         3.5647    2.3095    0.6075 Cl        1 <0>        -0.0102
     28 H1         -1.1116    2.0016    1.8372 H         1 <0>         0.1535
     29 H2          0.9502    3.2236    1.2746 H         1 <0>         0.1524
     30 H3         -1.1131   -0.4600    1.8753 H         1 <0>         0.1523
     31 H4          4.6357   -0.0490    2.6797 H         1 <0>         0.1522
     32 H5          3.7747   -1.5865    2.9309 H         1 <0>         0.1500
     33 H6          4.8257   -3.7226    2.3223 H         1 <0>         0.1534
     34 H7          9.0418   -3.5545    1.5284 H         1 <0>         0.1712
     35 H8          6.8721   -0.0240    1.7326 H         1 <0>         0.1714
     36 H9          7.7446   -7.6867    1.5834 H         1 <0>         0.0861
     37 H10         9.2568   -7.6136    2.5185 H         1 <0>         0.0800
     38 H11         6.4892   -7.5323    3.8175 H         1 <0>         0.0667
     39 H12         7.3916   -9.0415    3.5620 H         1 <0>         0.0751
     40 H13         7.7539   -8.2395    5.7747 H         1 <0>         0.0588
     41 H14         9.2455   -8.1391    4.8322 H         1 <0>         0.0606
     42 H15         7.4715   -5.7156    5.0436 H         1 <0>         0.0624
     43 H16         8.5403   -6.1542    6.3982 H         1 <0>         0.0654
     44 H17        10.0100   -4.8716    5.2016 H         1 <0>         0.0791
     45 H18        10.2947   -6.4301    4.3954 H         1 <0>         0.0716
     46 H19         9.9594   -4.9298    2.5907 H         1 <0>         0.0733
     47 H20         8.6633   -4.0611    3.4330 H         1 <0>         0.0850
@<TRIPOS>BOND
     1    1    6 ar
     2    1    2 ar
     3    1   28 1
     4    2    3 ar
     5    2   29 1
     6    3    4 ar
     7    3   27 1
     8    4    5 ar
     9    4    8 1
    10    5    6 ar
    11    5    7 1
    12    6   30 1
    13    8    9 2
    14    8   10 2
    15    8   11 1
    16   11   12 1
    17   11   31 1
    18   11   32 1
    19   12   17 ar
    20   12   13 ar
    21   13   14 ar
    22   13   33 1
    23   14   15 ar
    24   14   18 1
    25   15   16 ar
    26   15   34 1
    27   16   17 ar
    28   17   35 1
    29   18   19 2
    30   18   20 am
    31   20   26 1
    32   20   21 1
    33   21   22 1
    34   21   36 1
    35   21   37 1
    36   22   23 1
    37   22   38 1
    38   22   39 1
    39   23   24 1
    40   23   40 1
    41   23   41 1
    42   24   25 1
    43   24   42 1
    44   24   43 1
    45   25   26 1
    46   25   44 1
    47   25   45 1
    48   26   46 1
    49   26   47 1
@<TRIPOS>MOLECULE
CHEMBL410137
   50    52     0     0     0
SMALL
USER_CHARGES

@<TRIPOS>ATOM
      1 C1          0.3660    1.2375   -1.3275 C.ar      1 <0>        -0.0374
      2 C2          1.5205    1.9675   -1.1162 C.ar      1 <0>        -0.1261
      3 C3          2.7215    1.3157   -0.8994 C.ar      1 <0>         0.0567
      4 C4          2.7667   -0.0668   -0.8936 C.ar      1 <0>        -0.6625
      5 C5          1.6108   -0.7969   -1.1047 C.ar      1 <0>         0.0566
      6 C6          0.4105   -0.1440   -1.3219 C.ar      1 <0>        -0.1265
      7 Cl1         1.6666   -2.5320   -1.0983 Cl        1 <0>        -0.0116
      8 S1          4.2959   -0.8976   -0.6182 S.o2      1 <0>         2.4775
      9 O1          4.1456   -2.1563   -1.2603 O.2       1 <0>        -0.9044
     10 O2          5.2905    0.0213   -1.0491 O.2       1 <0>        -0.9026
     11 C7          4.3881   -1.1204    1.1797 C.3       1 <0>        -0.5577
     12 C8          5.6704   -1.8289    1.5330 C.ar      1 <0>        -0.1530
     13 C9          5.7131   -3.2111    1.5892 C.ar      1 <0>        -0.0296
     14 C10         6.9267   -3.8244    1.9217 C.ar      1 <0>        -0.1779
     15 C11         8.0385   -3.0218    2.1817 C.ar      1 <0>         0.1659
     16 N1          7.9475   -1.7100    2.1158 N.ar      1 <0>        -0.4724
     17 C12         6.8185   -1.1048    1.7989 C.ar      1 <0>         0.1432
     18 C13         7.0288   -5.2973    1.9967 C.2       1 <0>         0.5659
     19 O3          7.9735   -5.8678    1.4872 O.2       1 <0>        -0.5186
     20 N2          6.0744   -6.0076    2.6300 N.am      1 <0>        -0.5977
     21 C14         6.2111   -7.4626    2.7844 C.3       1 <0>         0.1167
     22 C15         7.3573   -7.7557    3.7440 C.3       1 <0>        -0.1406
     23 C16         6.9216   -7.3988    5.1752 C.3       1 <0>        -0.1245
     24 C17         6.9917   -5.8877    5.3648 C.3       1 <0>        -0.1223
     25 C18         5.5842   -5.2987    5.5716 C.3       1 <0>        -0.1176
     26 C19         4.6144   -5.9142    4.5628 C.3       1 <0>        -0.1494
     27 C20         4.9020   -5.3419    3.1728 C.3       1 <0>         0.0915
     28 Cl2         4.1716    2.2328   -0.6351 Cl        1 <0>        -0.0092
     29 H1         -0.5720    1.7467   -1.4926 H         1 <0>         0.1537
     30 H2          1.4851    3.0469   -1.1207 H         1 <0>         0.1526
     31 H3         -0.4920   -0.7139   -1.4868 H         1 <0>         0.1522
     32 H4          4.3647   -0.1463    1.6683 H         1 <0>         0.1527
     33 H5          3.5394   -1.7160    1.5160 H         1 <0>         0.1493
     34 H6          4.8326   -3.8013    1.3822 H         1 <0>         0.1513
     35 H7          8.9815   -3.4808    2.4395 H         1 <0>         0.1714
     36 H8          6.7891   -0.0262    1.7514 H         1 <0>         0.1709
     37 H9          5.2853   -7.8752    3.1854 H         1 <0>         0.0882
     38 H10         6.4228   -7.9138    1.8150 H         1 <0>         0.0770
     39 H11         7.6124   -8.8143    3.6943 H         1 <0>         0.0746
     40 H12         8.2257   -7.1575    3.4678 H         1 <0>         0.0773
     41 H13         5.8989   -7.7386    5.3391 H         1 <0>         0.0703
     42 H14         7.5854   -7.8859    5.8894 H         1 <0>         0.0617
     43 H15         7.6063   -5.6635    6.2366 H         1 <0>         0.0580
     44 H16         7.4438   -5.4358    4.4820 H         1 <0>         0.0604
     45 H17         5.2437   -5.5195    6.5832 H         1 <0>         0.0640
     46 H18         5.6187   -4.2186    5.4290 H         1 <0>         0.0602
     47 H19         4.7454   -6.9961    4.5461 H         1 <0>         0.0868
     48 H20         3.5905   -5.6762    4.8511 H         1 <0>         0.0761
     49 H21         5.0906   -4.2710    3.2492 H         1 <0>         0.0886
     50 H22         4.0455   -5.5187    2.5222 H         1 <0>         0.0705
@<TRIPOS>BOND
     1    1    6 ar
     2    1    2 ar
     3    1   29 1
     4    2    3 ar
     5    2   30 1
     6    3    4 ar
     7    3   28 1
     8    4    5 ar
     9    4    8 1
    10    5    6 ar
    11    5    7 1
    12    6   31 1
    13    8    9 2
    14    8   10 2
    15    8   11 1
    16   11   12 1
    17   11   32 1
    18   11   33 1
    19   12   17 ar
    20   12   13 ar
    21   13   14 ar
    22   13   34 1
    23   14   15 ar
    24   14   18 1
    25   15   16 ar
    26   15   35 1
    27   16   17 ar
    28   17   36 1
    29   18   19 2
    30   18   20 am
    31   20   27 1
    32   20   21 1
    33   21   22 1
    34   21   37 1
    35   21   38 1
    36   22   23 1
    37   22   39 1
    38   22   40 1
    39   23   24 1
    40   23   41 1
    41   23   42 1
    42   24   25 1
    43   24   43 1
    44   24   44 1
    45   25   26 1
    46   25   45 1
    47   25   46 1
    48   26   27 1
    49   26   47 1
    50   26   48 1
    51   27   49 1
    52   27   50 1
