@<TRIPOS>MOLECULE
3FRJ-A49
 63 66 0 0 0
SMALL
SF_CHARGES


@<TRIPOS>ATOM
1    O        57.1950   20.1160   36.2450  O.2        1 SUBUNIT     -0.5188
2    C        58.2160   20.8010   36.2770  C.2        1 SUBUNIT      0.6586
3    N        59.3770   20.2780   36.0440  N.am       1 SUBUNIT     -0.6673
4    C        58.1660   22.2540   36.7020  C.3        1 SUBUNIT      0.0079
5    C        59.2820   22.7800   37.5660  C.3        1 SUBUNIT     -0.0550
6    C        59.2390   23.1320   36.0720  C.3        1 SUBUNIT     -0.0550
7    C        56.8350   22.9540   36.6890  C.3        1 SUBUNIT      0.1531
8    N        55.8860   22.3040   37.6130  N.4        1 SUBUNIT     -0.3282
9    C        56.3290   22.4580   39.0600  C.3        1 SUBUNIT      0.1564
10   C        55.4050   21.5740   39.8900  C.3        1 SUBUNIT     -0.0800
11   C        54.5880   22.9870   37.4150  C.3        1 SUBUNIT      0.1564
12   C        53.5290   22.2980   38.2300  C.3        1 SUBUNIT     -0.0800
13   C        54.0110   22.1900   39.7100  C.3        1 SUBUNIT      0.2009
14   N        52.9150   21.5410   40.3940  N.am       1 SUBUNIT     -0.5337
15   C        53.0190   20.0620   40.6680  C.3        1 SUBUNIT      0.1996
16   C        52.4630   19.3090   39.4500  C.3        1 SUBUNIT     -0.0723
17   C        51.6250   19.4380   40.6940  C.3        1 SUBUNIT     -0.0723
18   C        52.3750   22.3910   41.3980  C.2        1 SUBUNIT      0.6733
19   O        51.7910   21.9030   42.3650  O.2        1 SUBUNIT     -0.5466
20   C        52.2460   23.8730   41.2080  C.2        1 SUBUNIT     -0.0378
21   C        52.9240   24.8110   41.9710  C.2        1 SUBUNIT     -0.1063
22   C        52.6730   26.1780   41.8010  C.2        1 SUBUNIT     -0.1054
23   C        51.2960   24.2710   40.2450  C.2        1 SUBUNIT     -0.1063
24   C        51.0700   25.6070   40.0220  C.2        1 SUBUNIT     -0.1054
25   C        51.7470   26.5500   40.7970  C.2        1 SUBUNIT     -0.0571
26   C        51.4450   27.9990   40.5240  C.3        1 SUBUNIT      0.2599
27   C        51.1960   28.7570   41.8220  C.3        1 SUBUNIT     -0.1262
28   O        50.2980   28.1090   39.6560  O.3        1 SUBUNIT     -0.5720
29   C        52.6110   28.5910   39.7540  C.3        1 SUBUNIT      0.7301
30   F        52.2250   29.8180   39.5700  F          1 SUBUNIT     -0.2738
31   F        52.7430   27.9570   38.6110  F          1 SUBUNIT     -0.2738
32   F        53.7740   28.5060   40.3860  F          1 SUBUNIT     -0.2738
33   H        60.2042   20.8533   36.0741  H          1 SUBUNIT      0.3220
34   H        59.4539   19.2955   35.8324  H          1 SUBUNIT      0.3220
35   H        59.0749   23.5498   38.3167  H          1 SUBUNIT      0.0450
36   H        60.0474   22.0953   37.9460  H          1 SUBUNIT      0.0450
37   H        59.9702   22.6970   35.3827  H          1 SUBUNIT      0.0450
38   H        58.9977   24.1515   35.7534  H          1 SUBUNIT      0.0450
39   H        56.9708   23.9960   36.9970  H          1 SUBUNIT      0.0309
40   H        56.4196   22.9234   35.6763  H          1 SUBUNIT      0.0309
41   H        55.8261   21.3187   37.4088  H          1 SUBUNIT      0.3172
42   H        57.3682   22.1322   39.1739  H          1 SUBUNIT      0.0331
43   H        56.2370   23.5029   39.3744  H          1 SUBUNIT      0.0331
44   H        55.4238   20.5436   39.5200  H          1 SUBUNIT      0.0489
45   H        55.7021   21.5895   40.9438  H          1 SUBUNIT      0.0489
46   H        54.6767   24.0309   37.7335  H          1 SUBUNIT      0.0331
47   H        54.3184   22.9502   36.3543  H          1 SUBUNIT      0.0331
48   H        52.6030   22.8802   38.1795  H          1 SUBUNIT      0.0489
49   H        53.3550   21.2981   37.8191  H          1 SUBUNIT      0.0489
50   H        54.1818   23.1564   40.1957  H          1 SUBUNIT      0.0326
51   H        53.9096   20.0137   41.3033  H          1 SUBUNIT      0.0337
52   H        52.1850   19.8601   38.5455  H          1 SUBUNIT      0.0545
53   H        52.8792   18.3353   39.1713  H          1 SUBUNIT      0.0545
54   H        51.4331   18.5565   41.3146  H          1 SUBUNIT      0.0545
55   H        50.7389   20.0813   40.6889  H          1 SUBUNIT      0.0545
56   H        53.6466   24.4814   42.6970  H          1 SUBUNIT      0.1153
57   H        53.1674   26.9126   42.4123  H          1 SUBUNIT      0.1157
58   H        50.7432   23.5410   39.6800  H          1 SUBUNIT      0.1153
59   H        50.3781   25.9146   39.2575  H          1 SUBUNIT      0.1157
60   H        50.3468   28.3325   42.3676  H          1 SUBUNIT      0.0596
61   H        50.9762   29.8114   41.6247  H          1 SUBUNIT      0.0596
62   H        52.0727   28.7128   42.4766  H          1 SUBUNIT      0.0596
63   H        50.0297   27.2289   39.3822  H          1 SUBUNIT      0.3944
@<TRIPOS>BOND
     1    1    2 2
     2    2    3 1
     3    2    4 1
     4    4    5 1
     5    4    6 1
     6    4    7 1
     7    5    6 1
     8    7    8 1
     9    8    9 1
    10    8   11 1
    11    9   10 1
    12   10   13 1
    13   11   12 1
    14   12   13 1
    15   13   14 1
    16   14   15 1
    17   14   18 1
    18   15   16 1
    19   15   17 1
    20   16   17 1
    21   18   19 2
    22   18   20 1
    23   20   21 2
    24   20   23 1
    25   21   22 1
    26   22   25 2
    27   23   24 2
    28   24   25 1
    29   25   26 1
    30   26   27 1
    31   26   28 1
    32   26   29 1
    33   29   30 1
    34   29   31 1
    35   29   32 1
    36    3   33 1
    37    3   34 1
    38    5   35 1
    39    5   36 1
    40    6   37 1
    41    6   38 1
    42    7   39 1
    43    7   40 1
    44    8   41 1
    45    9   42 1
    46    9   43 1
    47   10   44 1
    48   10   45 1
    49   11   46 1
    50   11   47 1
    51   12   48 1
    52   12   49 1
    53   13   50 1
    54   15   51 1
    55   16   52 1
    56   16   53 1
    57   17   54 1
    58   17   55 1
    59   21   56 1
    60   22   57 1
    61   23   58 1
    62   24   59 1
    63   27   60 1
    64   27   61 1
    65   27   62 1
    66   28   63 1
