@<TRIPOS>MOLECULE
3CQW-CQW
 30 33 0 0 0
SMALL
SF_CHARGES


@<TRIPOS>ATOM
1    C         3.5050    3.6640   15.7790  C.2        1 SUBUNIT      0.3778
2    C         4.6600    5.6530   16.1330  C.2        1 SUBUNIT      0.4548
3    C         4.6550    2.8970   16.0700  C.2        1 SUBUNIT     -0.0741
4    C         8.1540    3.3920   19.3700  C.2        1 SUBUNIT      0.2284
5    N         2.4620    2.7910   15.5040  N.pl3      1 SUBUNIT     -0.3284
6    C         8.4480    4.4160   18.3160  C.3        1 SUBUNIT     -0.0699
7    Cl        5.1890    0.0340   16.0180  Cl         1 SUBUNIT     -0.1092
8    C         4.2380    1.4870   15.8800  C.2        1 SUBUNIT     -0.0029
9    C         2.9290    1.5050   15.5760  C.2        1 SUBUNIT     -0.0132
10   N         3.5360    4.9980   15.8130  N.2        1 SUBUNIT     -0.5352
11   C         5.8100    3.6280   16.4240  C.2        1 SUBUNIT      0.3835
12   N         5.7690    4.9660   16.3990  N.2        1 SUBUNIT     -0.5378
13   N         7.0580    3.0390   16.7200  N.pl3      1 SUBUNIT     -0.5294
14   C         7.1640    1.8790   17.6360  C.3        1 SUBUNIT      0.1647
15   C         7.5980    2.2150   19.0420  C.2        1 SUBUNIT      0.0205
16   N         7.6210    1.4130   20.1620  N.pl3      1 SUBUNIT     -0.3331
17   C         8.1940    2.0980   21.1470  C.2        1 SUBUNIT      0.2622
18   N         8.5560    3.3120   20.6860  N.2        1 SUBUNIT     -0.5200
19   C         8.2690    3.8790   16.8780  C.3        1 SUBUNIT      0.1402
20   H         4.6696    6.7281   16.1756  H          1 SUBUNIT      0.0451
21   H         1.5137    3.0543   15.2862  H          1 SUBUNIT      0.3077
22   H         7.7702    5.2629   18.4658  H          1 SUBUNIT      0.0409
23   H         9.4832    4.7491   18.4445  H          1 SUBUNIT      0.0409
24   H         2.3354    0.6225   15.4128  H          1 SUBUNIT      0.0930
25   H         6.1808    1.3994   17.6845  H          1 SUBUNIT      0.0269
26   H         7.8909    1.1802   17.2090  H          1 SUBUNIT      0.0269
27   H         7.6789    0.4069   20.1830  H          1 SUBUNIT      0.3122
28   H         8.3420    1.7356   22.1493  H          1 SUBUNIT      0.0666
29   H         8.1874    4.7244   16.1869  H          1 SUBUNIT      0.0304
30   H         9.1399    3.2714   16.6110  H          1 SUBUNIT      0.0304
@<TRIPOS>BOND
     1    1    3 2
     2    1    5 1
     3    1   10 1
     4    2   10 2
     5    2   12 1
     6    3    8 1
     7    3   11 1
     8    4    6 1
     9    4   15 2
    10    4   18 1
    11    5    9 1
    12    6   19 1
    13    7    8 1
    14    8    9 2
    15   11   12 2
    16   11   13 1
    17   13   14 1
    18   13   19 1
    19   14   15 1
    20   15   16 1
    21   16   17 1
    22   17   18 2
    23    2   20 1
    24    5   21 1
    25    6   22 1
    26    6   23 1
    27    9   24 1
    28   14   25 1
    29   14   26 1
    30   16   27 1
    31   17   28 1
    32   19   29 1
    33   19   30 1
