@<TRIPOS>MOLECULE
CHEMBL45583
   48    50     0     0     0
SMALL
USER_CHARGES

@<TRIPOS>ATOM
      1 C1         -0.0225    1.8097    0.0120 C.3       1 <0>        -0.6502
      2 S1          0.0021   -0.0041    0.0020 S.o2      1 <0>         2.4983
      3 O1          0.8352   -0.4880    1.0465 O.2       1 <0>        -0.9351
      4 O2         -1.3147   -0.5105   -0.1678 O.2       1 <0>        -0.9357
      5 C2          0.8454   -0.4373   -1.4831 C.ar      1 <0>        -0.6558
      6 C3          0.1315   -0.6121   -2.6550 C.ar      1 <0>        -0.0199
      7 C4          0.7869   -0.9510   -3.8213 C.ar      1 <0>        -0.1254
      8 C5          2.1707   -1.1172   -3.8169 C.ar      1 <0>         0.0177
      9 C6          2.8848   -0.9398   -2.6333 C.ar      1 <0>        -0.1117
     10 C7          2.2196   -0.5958   -1.4740 C.ar      1 <0>        -0.0205
     11 C8          2.8806   -1.4819   -5.0671 C.ar      1 <0>        -0.1319
     12 C9          2.4368   -2.5487   -5.8497 C.ar      1 <0>         0.0249
     13 C10         3.1336   -2.8496   -7.0088 C.ar      1 <0>        -0.2762
     14 C11         4.2370   -2.0922   -7.3532 C.ar      1 <0>         0.2078
     15 N1          4.6377   -1.0882   -6.5965 N.ar      1 <0>        -0.5313
     16 C12         4.0035   -0.7582   -5.4849 C.ar      1 <0>         0.3725
     17 O3          4.4472    0.2851   -4.7409 O.3       1 <0>        -0.2901
     18 C13         5.5979    0.9823   -5.2224 C.3       1 <0>         0.0413
     19 C14         5.9465    2.1181   -4.2583 C.3       1 <0>         0.1347
     20 C15         4.7445    3.0737   -4.1109 C.3       1 <0>        -0.1453
     21 C16         5.3872    4.4792   -4.0070 C.3       1 <0>        -0.1238
     22 C17         6.5684    4.3895   -5.0049 C.3       1 <0>        -0.1248
     23 C18         7.1061    2.9547   -4.8267 C.3       1 <0>        -0.1115
     24 O4          6.3075    1.5837   -2.9831 O.3       1 <0>        -0.5498
     25 C19         2.6925   -3.9929   -7.8860 C.3       1 <0>         0.5217
     26 F1          1.7796   -3.5254   -8.8374 F         1 <0>        -0.1725
     27 F2          3.8050   -4.5383   -8.5357 F         1 <0>        -0.1726
     28 F3          2.0835   -4.9763   -7.0991 F         1 <0>        -0.1734
     29 H1          1.0001    2.1870    0.0043 H         1 <0>         0.1320
     30 H2         -0.5497    2.1708   -0.8711 H         1 <0>         0.1317
     31 H3         -0.5327    2.1613    0.9088 H         1 <0>         0.1343
     32 H4         -0.9408   -0.4834   -2.6572 H         1 <0>         0.1466
     33 H5          0.2285   -1.0875   -4.7356 H         1 <0>         0.1353
     34 H6          3.9572   -1.0674   -2.6242 H         1 <0>         0.1347
     35 H7          2.7724   -0.4538   -0.5572 H         1 <0>         0.1469
     36 H8          1.5716   -3.1259   -5.5588 H         1 <0>         0.1596
     37 H9          4.7807   -2.3262   -8.2566 H         1 <0>         0.1776
     38 H10         6.4389    0.2922   -5.2900 H         1 <0>         0.0813
     39 H11         5.3864    1.3950   -6.2087 H         1 <0>         0.0817
     40 H12         4.0993    3.0132   -4.9873 H         1 <0>         0.0735
     41 H13         4.1827    2.8433   -3.2058 H         1 <0>         0.0751
     42 H14         4.6806    5.2506   -4.3130 H         1 <0>         0.0695
     43 H15         5.7491    4.6646   -2.9957 H         1 <0>         0.0722
     44 H16         6.2177    4.5415   -6.0257 H         1 <0>         0.0691
     45 H17         7.3375    5.1193   -4.7521 H         1 <0>         0.0735
     46 H18         7.9440    2.9538   -4.1294 H         1 <0>         0.0871
     47 H19         7.4206    2.5515   -5.7894 H         1 <0>         0.0775
     48 H20         5.6130    1.0546   -2.5674 H         1 <0>         0.3790
@<TRIPOS>BOND
     1    1    2 1
     2    1   29 1
     3    1   30 1
     4    1   31 1
     5    2    3 2
     6    2    4 2
     7    2    5 1
     8    5   10 ar
     9    5    6 ar
    10    6    7 ar
    11    6   32 1
    12    7    8 ar
    13    7   33 1
    14    8    9 ar
    15    8   11 1
    16    9   10 ar
    17    9   34 1
    18   10   35 1
    19   11   16 ar
    20   11   12 ar
    21   12   13 ar
    22   12   36 1
    23   13   14 ar
    24   13   25 1
    25   14   15 ar
    26   14   37 1
    27   15   16 ar
    28   16   17 1
    29   17   18 1
    30   18   19 1
    31   18   38 1
    32   18   39 1
    33   19   23 1
    34   19   20 1
    35   19   24 1
    36   20   21 1
    37   20   40 1
    38   20   41 1
    39   21   22 1
    40   21   42 1
    41   21   43 1
    42   22   23 1
    43   22   44 1
    44   22   45 1
    45   23   46 1
    46   23   47 1
    47   24   48 1
    48   25   26 1
    49   25   27 1
    50   25   28 1
@<TRIPOS>MOLECULE
CHEMBL278336
   40    42     0     0     0
SMALL
USER_CHARGES

@<TRIPOS>ATOM
      1 C1         -0.0225    1.8097    0.0120 C.3       1 <0>        -0.6501
      2 S1          0.0021   -0.0041    0.0020 S.o2      1 <0>         2.4987
      3 O1          0.8352   -0.4880    1.0465 O.2       1 <0>        -0.9348
      4 O2         -1.3147   -0.5105   -0.1678 O.2       1 <0>        -0.9347
      5 C2          0.8454   -0.4373   -1.4831 C.ar      1 <0>        -0.6531
      6 C3          0.1293   -0.6119   -2.6552 C.ar      1 <0>        -0.0203
      7 C4          0.7806   -0.9508   -3.8215 C.ar      1 <0>        -0.1125
      8 C5          2.1717   -1.1182   -3.8188 C.ar      1 <0>        -0.0032
      9 C6          2.8882   -0.9391   -2.6281 C.ar      1 <0>        -0.1161
     10 C7          2.2209   -0.5956   -1.4723 C.ar      1 <0>        -0.0214
     11 C8          2.8735   -1.4792   -5.0546 C.2       1 <0>         0.0111
     12 C9          2.9620   -0.6871   -6.1710 C.2       1 <0>        -0.0944
     13 C10         3.7312   -1.3401   -7.2291 C.2       1 <0>         0.4003
     14 O3          3.9732   -0.8791   -8.3252 O.2       1 <0>        -0.4302
     15 C11         4.1720   -2.6917   -6.7145 C.3       1 <0>        -0.1733
     16 C12         3.6112   -2.7741   -5.2857 C.3       1 <0>        -0.0955
     17 C13         2.3751    0.6141   -6.2857 C.1       1 <0>        -0.1094
     18 C14         1.8939    1.6808   -6.3797 C.1       1 <0>        -0.0983
     19 C15         1.3070    2.9820   -6.4944 C.ar      1 <0>         0.0095
     20 C16         0.5918    3.5268   -5.4240 C.ar      1 <0>        -0.0936
     21 C17         0.0299    4.7806   -5.5418 C.ar      1 <0>        -0.1186
     22 C18         0.1726    5.4992   -6.7159 C.ar      1 <0>        -0.1074
     23 C19         0.8789    4.9663   -7.7801 C.ar      1 <0>        -0.1183
     24 C20         1.4514    3.7161   -7.6752 C.ar      1 <0>        -0.0930
     25 H1          1.0001    2.1870    0.0043 H         1 <0>         0.1321
     26 H2         -0.5497    2.1708   -0.8711 H         1 <0>         0.1321
     27 H3         -0.5327    2.1613    0.9088 H         1 <0>         0.1352
     28 H4         -0.9429   -0.4824   -2.6554 H         1 <0>         0.1478
     29 H5          0.2204   -1.0872   -4.7347 H         1 <0>         0.1364
     30 H6          3.9607   -1.0662   -2.6170 H         1 <0>         0.1396
     31 H7          2.7720   -0.4531   -0.5545 H         1 <0>         0.1487
     32 H8          3.7577   -3.4868   -7.3344 H         1 <0>         0.1168
     33 H9          5.2601   -2.7533   -6.6949 H         1 <0>         0.1163
     34 H10         4.4237   -2.8770   -4.5664 H         1 <0>         0.1062
     35 H11         2.9254   -3.6172   -5.2016 H         1 <0>         0.1063
     36 H12         0.4793    2.9670   -4.5073 H         1 <0>         0.1269
     37 H13        -0.5233    5.2027   -4.7158 H         1 <0>         0.1299
     38 H14        -0.2697    6.4806   -6.8023 H         1 <0>         0.1276
     39 H15         0.9857    5.5328   -8.6933 H         1 <0>         0.1297
     40 H16         2.0063    3.3034   -8.5048 H         1 <0>         0.1268
@<TRIPOS>BOND
     1    1    2 1
     2    1   25 1
     3    1   26 1
     4    1   27 1
     5    2    3 2
     6    2    4 2
     7    2    5 1
     8    5   10 ar
     9    5    6 ar
    10    6    7 ar
    11    6   28 1
    12    7    8 ar
    13    7   29 1
    14    8    9 ar
    15    8   11 1
    16    9   10 ar
    17    9   30 1
    18   10   31 1
    19   11   16 1
    20   11   12 2
    21   12   13 1
    22   12   17 1
    23   13   14 2
    24   13   15 1
    25   15   16 1
    26   15   32 1
    27   15   33 1
    28   16   34 1
    29   16   35 1
    30   17   18 3
    31   18   19 1
    32   19   24 ar
    33   19   20 ar
    34   20   21 ar
    35   20   36 1
    36   21   22 ar
    37   21   37 1
    38   22   23 ar
    39   22   38 1
    40   23   24 ar
    41   23   39 1
    42   24   40 1
@<TRIPOS>MOLECULE
CHEMBL47540
   48    50     0     0     0
SMALL
USER_CHARGES

@<TRIPOS>ATOM
      1 C1         -0.0187    1.5258    0.0104 C.3       1 <0>        -0.1790
      2 C2          0.0021   -0.0041    0.0020 C.3       1 <0>         0.1298
      3 C3         -1.4374   -0.5525    0.0845 C.3       1 <0>        -0.1505
      4 C4         -1.3137   -1.8111    0.9787 C.3       1 <0>        -0.1207
      5 C5         -0.2707   -1.3766    2.0381 C.3       1 <0>        -0.1400
      6 C6          0.7439   -0.5280    1.2442 C.3       1 <0>         0.0948
      7 H1          1.0891    0.3076    1.8530 H         1 <0>         0.1035
      8 O1          1.8534   -1.3363    0.8470 O.3       1 <0>        -0.2553
      9 C7          2.9266   -1.3587    1.6757 C.ar      1 <0>         0.3700
     10 C8          4.0480   -2.1270    1.3402 C.ar      1 <0>        -0.1326
     11 C9          5.1418   -2.1365    2.2063 C.ar      1 <0>         0.0244
     12 C10         5.0700   -1.3815    3.3663 C.ar      1 <0>        -0.2804
     13 C11         3.9289   -0.6485    3.6291 C.ar      1 <0>         0.2074
     14 N1          2.9088   -0.6512    2.7915 N.ar      1 <0>        -0.5355
     15 C12         6.2262   -1.3608    4.3326 C.3       1 <0>         0.5219
     16 F1          7.1000   -0.3227    3.9920 F         1 <0>        -0.1732
     17 F2          5.7455   -1.1587    5.6308 F         1 <0>        -0.1735
     18 F3          6.9065   -2.5817    4.2720 F         1 <0>        -0.1740
     19 C13         4.0725   -2.9177    0.0856 C.ar      1 <0>         0.0197
     20 C14         3.0076   -3.7587   -0.2321 C.ar      1 <0>        -0.1022
     21 C15         3.0358   -4.4921   -1.4009 C.ar      1 <0>        -0.0195
     22 C16         4.1184   -4.3937   -2.2563 C.ar      1 <0>        -0.6558
     23 C17         5.1784   -3.5609   -1.9458 C.ar      1 <0>        -0.0219
     24 C18         5.1580   -2.8181   -0.7828 C.ar      1 <0>        -0.1254
     25 S1          4.1476   -5.3330   -3.7467 S.o2      1 <0>         2.4989
     26 O2          5.5272   -5.5000   -4.0431 O.2       1 <0>        -0.9371
     27 O3          3.3220   -6.4589   -3.4819 O.2       1 <0>        -0.9369
     28 C19         3.3670   -4.2638   -4.9870 C.3       1 <0>        -0.6496
     29 O4          0.6403   -0.4781   -1.1854 O.3       1 <0>        -0.5395
     30 H2          1.0039    1.9031    0.0027 H         1 <0>         0.0653
     31 H3         -0.5459    1.8868   -0.8726 H         1 <0>         0.0678
     32 H4         -0.5289    1.8773    0.9072 H         1 <0>         0.0710
     33 H5         -2.0990    0.1802    0.5465 H         1 <0>         0.0788
     34 H6         -1.7999   -0.8233   -0.9072 H         1 <0>         0.0786
     35 H7         -2.2683   -2.0456    1.4499 H         1 <0>         0.0731
     36 H8         -0.9476   -2.6604    0.4018 H         1 <0>         0.0741
     37 H9         -0.7438   -0.7769    2.8157 H         1 <0>         0.0849
     38 H10         0.2183   -2.2487    2.4721 H         1 <0>         0.0761
     39 H11         6.0227   -2.7183    1.9785 H         1 <0>         0.1583
     40 H12         3.8722   -0.0602    4.5331 H         1 <0>         0.1760
     41 H13         2.1620   -3.8366    0.4352 H         1 <0>         0.1326
     42 H14         2.2112   -5.1444   -1.6479 H         1 <0>         0.1443
     43 H15         6.0212   -3.4882   -2.6172 H         1 <0>         0.1454
     44 H16         5.9838   -2.1643   -0.5439 H         1 <0>         0.1339
     45 H17         3.9379   -3.3401   -5.0813 H         1 <0>         0.1318
     46 H18         3.3459   -4.7777   -5.9480 H         1 <0>         0.1332
     47 H19         2.3483   -4.0313   -4.6768 H         1 <0>         0.1321
     48 H20         0.2126   -0.1902   -2.0035 H         1 <0>         0.3753
@<TRIPOS>BOND
     1    1    2 1
     2    1   30 1
     3    1   31 1
     4    1   32 1
     5    2    6 1
     6    2    3 1
     7    2   29 1
     8    3    4 1
     9    3   33 1
    10    3   34 1
    11    4    5 1
    12    4   35 1
    13    4   36 1
    14    5    6 1
    15    5   37 1
    16    5   38 1
    17    6    7 1
    18    6    8 1
    19    8    9 1
    20    9   14 ar
    21    9   10 ar
    22   10   11 ar
    23   10   19 1
    24   11   12 ar
    25   11   39 1
    26   12   13 ar
    27   12   15 1
    28   13   14 ar
    29   13   40 1
    30   15   16 1
    31   15   17 1
    32   15   18 1
    33   19   24 ar
    34   19   20 ar
    35   20   21 ar
    36   20   41 1
    37   21   22 ar
    38   21   42 1
    39   22   23 ar
    40   22   25 1
    41   23   24 ar
    42   23   43 1
    43   24   44 1
    44   25   26 2
    45   25   27 2
    46   25   28 1
    47   28   45 1
    48   28   46 1
    49   28   47 1
    50   29   48 1
@<TRIPOS>MOLECULE
CHEMBL157730
   51    54     0     0     0
SMALL
USER_CHARGES

@<TRIPOS>ATOM
      1 C1         -0.3027    2.2322   -0.3992 C.3       1 <0>        -0.6500
      2 S1         -0.5489    0.4354   -0.4401 S.o2      1 <0>         2.4980
      3 O1          0.1468   -0.1785    0.6362 O.2       1 <0>        -0.9344
      4 O2         -1.9159    0.1342   -0.6848 O.2       1 <0>        -0.9338
      5 C2          0.2968   -0.1046   -1.8884 C.ar      1 <0>        -0.6497
      6 C3         -0.3413   -0.0615   -3.1152 C.ar      1 <0>        -0.0212
      7 C4          0.3158   -0.4831   -4.2530 C.ar      1 <0>        -0.1149
      8 C5          1.6259   -0.9529   -4.1645 C.ar      1 <0>        -0.0076
      9 C6          2.2640   -0.9935   -2.9251 C.ar      1 <0>        -0.1035
     10 C7          1.5982   -0.5647   -1.7951 C.ar      1 <0>        -0.0196
     11 C8          2.3368   -1.4074   -5.3823 C.2       1 <0>        -0.0319
     12 C9          1.8976   -2.5545   -6.0781 C.2       1 <0>         0.0959
     13 N1          2.5203   -2.9574   -7.1505 N.2       1 <0>        -0.2013
     14 N2          3.6352   -2.2715   -7.6424 N.am      1 <0>        -0.3960
     15 C10         4.0953   -1.1706   -7.0157 C.2       1 <0>         0.4878
     16 O3          5.0692   -0.5766   -7.4507 O.2       1 <0>        -0.5067
     17 C11         3.4382   -0.7065   -5.8541 C.2       1 <0>         0.0529
     18 O4          3.8793    0.4031   -5.2078 O.3       1 <0>        -0.2203
     19 C12         3.7601    1.5999   -5.8406 C.ar      1 <0>         0.1140
     20 C13         3.0968    1.6794   -7.0567 C.ar      1 <0>        -0.1528
     21 C14         2.9760    2.8966   -7.6985 C.ar      1 <0>        -0.1129
     22 C15         3.5168    4.0370   -7.1290 C.ar      1 <0>         0.0739
     23 C16         4.1794    3.9592   -5.9157 C.ar      1 <0>        -0.1138
     24 C17         4.2965    2.7445   -5.2685 C.ar      1 <0>        -0.1071
     25 F1          3.3982    5.2267   -7.7581 F         1 <0>        -0.1361
     26 C18         4.3096   -2.7543   -8.8499 C.3       1 <0>         0.1660
     27 C19         5.3918   -3.7298   -8.4649 C.ar      1 <0>        -0.1230
     28 C20         6.6712   -3.2755   -8.2049 C.ar      1 <0>        -0.0923
     29 C21         7.6639   -4.1703   -7.8518 C.ar      1 <0>        -0.1248
     30 C22         7.3771   -5.5194   -7.7582 C.ar      1 <0>        -0.1069
     31 C23         6.0975   -5.9735   -8.0173 C.ar      1 <0>        -0.1257
     32 C24         5.1037   -5.0782   -8.3662 C.ar      1 <0>        -0.0925
     33 H1          0.7636    2.4539   -0.4434 H         1 <0>         0.1324
     34 H2         -0.8041    2.6872   -1.2534 H         1 <0>         0.1325
     35 H3         -0.7197    2.6351    0.5238 H         1 <0>         0.1351
     36 H4         -1.3559    0.3025   -3.1824 H         1 <0>         0.1477
     37 H5         -0.1836   -0.4496   -5.2100 H         1 <0>         0.1387
     38 H6          3.2784   -1.3566   -2.8504 H         1 <0>         0.1372
     39 H7          2.0925   -0.5921   -0.8353 H         1 <0>         0.1503
     40 H8          1.0392   -3.1028   -5.7191 H         1 <0>         0.2055
     41 H9          2.6754    0.7900   -7.5015 H         1 <0>         0.1246
     42 H10         2.4597    2.9588   -8.6451 H         1 <0>         0.1412
     43 H11         4.6013    4.8495   -5.4731 H         1 <0>         0.1482
     44 H12         4.8092    2.6850   -4.3198 H         1 <0>         0.1458
     45 H13         3.5860   -3.2509   -9.4963 H         1 <0>         0.1094
     46 H14         4.7523   -1.9113   -9.3805 H         1 <0>         0.1121
     47 H15         6.8954   -2.2216   -8.2781 H         1 <0>         0.1290
     48 H16         8.6637   -3.8155   -7.6493 H         1 <0>         0.1247
     49 H17         8.1529   -6.2185   -7.4829 H         1 <0>         0.1243
     50 H18         5.8734   -7.0275   -7.9444 H         1 <0>         0.1254
     51 H19         4.1031   -5.4325   -8.5651 H         1 <0>         0.1264
@<TRIPOS>BOND
     1    1    2 1
     2    1   33 1
     3    1   34 1
     4    1   35 1
     5    2    3 2
     6    2    4 2
     7    2    5 1
     8    5   10 ar
     9    5    6 ar
    10    6    7 ar
    11    6   36 1
    12    7    8 ar
    13    7   37 1
    14    8    9 ar
    15    8   11 1
    16    9   10 ar
    17    9   38 1
    18   10   39 1
    19   11   17 2
    20   11   12 1
    21   12   13 2
    22   12   40 1
    23   13   14 1
    24   14   15 am
    25   14   26 1
    26   15   16 2
    27   15   17 1
    28   17   18 1
    29   18   19 1
    30   19   24 ar
    31   19   20 ar
    32   20   21 ar
    33   20   41 1
    34   21   22 ar
    35   21   42 1
    36   22   23 ar
    37   22   25 1
    38   23   24 ar
    39   23   43 1
    40   24   44 1
    41   26   27 1
    42   26   45 1
    43   26   46 1
    44   27   32 ar
    45   27   28 ar
    46   28   29 ar
    47   28   47 1
    48   29   30 ar
    49   29   48 1
    50   30   31 ar
    51   30   49 1
    52   31   32 ar
    53   31   50 1
    54   32   51 1
@<TRIPOS>MOLECULE
CHEMBL373434
   61    64     0     0     0
SMALL
USER_CHARGES

@<TRIPOS>ATOM
      1 C1         -0.0977    2.3538    0.0522 C.3       1 <0>         0.0220
      2 O1          0.0877    0.9374    0.0163 O.3       1 <0>        -0.2963
      3 C2         -1.0336    0.1680    0.0062 C.ar      1 <0>         0.1890
      4 C3         -2.2847    0.7652    0.0246 C.ar      1 <0>        -0.2641
      5 C4         -3.4283   -0.0190    0.0138 C.ar      1 <0>         0.2084
      6 C5         -3.3227   -1.4013   -0.0149 C.ar      1 <0>        -0.3232
      7 C6         -2.0731   -2.0015   -0.0333 C.ar      1 <0>         0.1896
      8 C7         -0.9261   -1.2170   -0.0284 C.ar      1 <0>        -0.0063
      9 O2          0.3019   -1.8049   -0.0521 O.3       1 <0>        -0.3088
     10 C8          0.8968   -2.1160    1.2094 C.3       1 <0>         0.0330
     11 O3         -1.9699   -3.3573   -0.0610 O.3       1 <0>        -0.2974
     12 C9         -3.1902   -4.1007   -0.0696 C.3       1 <0>         0.0227
     13 O4         -4.6546    0.5682    0.0319 O.3       1 <0>        -0.2999
     14 C10        -5.7897   -0.2997    0.0193 C.3       1 <0>         0.1447
     15 C11        -7.0518    0.5235    0.0424 C.2       1 <0>         0.0823
     16 C12        -7.1140    1.9171    0.0660 C.2       1 <0>        -0.2160
     17 C13        -8.4320    2.2777    0.0810 C.2       1 <0>         0.1348
     18 N1         -9.1677    1.1272    0.0670 N.pl3     1 <0>        -0.3310
     19 N2         -8.2726    0.0501    0.0380 N.2       1 <0>        -0.2650
     20 C14       -10.5658    1.0400    0.0751 C.ar      1 <0>         0.2048
     21 C15       -11.3183    1.8495   -0.7656 C.ar      1 <0>        -0.1353
     22 C16       -12.6965    1.7612   -0.7552 C.ar      1 <0>        -0.0064
     23 C17       -13.3272    0.8682    0.0915 C.ar      1 <0>        -0.6610
     24 C18       -12.5807    0.0607    0.9298 C.ar      1 <0>        -0.0052
     25 C19       -11.2019    0.1398    0.9197 C.ar      1 <0>        -0.1278
     26 S1        -15.0858    0.7593    0.1025 S.o2      1 <0>         2.5009
     27 O5        -15.4115    0.2839    1.4014 O.2       1 <0>        -0.9332
     28 O6        -15.5309    2.0362   -0.3342 O.2       1 <0>        -0.9330
     29 C20       -15.4828   -0.4998   -1.1414 C.3       1 <0>        -0.6498
     30 C21        -8.9633    3.6580    0.1084 C.ar      1 <0>        -0.0472
     31 C22       -10.2252    3.9125    0.6465 C.ar      1 <0>        -0.1063
     32 C23       -10.7149    5.2022    0.6695 C.ar      1 <0>        -0.1148
     33 C24        -9.9576    6.2419    0.1599 C.ar      1 <0>        -0.1023
     34 C25        -8.7058    5.9962   -0.3755 C.ar      1 <0>        -0.1166
     35 C26        -8.2022    4.7118   -0.3987 C.ar      1 <0>        -0.0851
     36 H1          0.8741    2.8475    0.0568 H         1 <0>         0.1051
     37 H2         -0.6612    2.6689   -0.8260 H         1 <0>         0.0609
     38 H3         -0.6475    2.6256    0.9533 H         1 <0>         0.0598
     39 H4         -2.3686    1.8417    0.0477 H         1 <0>         0.1455
     40 H5         -4.2143   -2.0107   -0.0225 H         1 <0>         0.1417
     41 H6          0.2524   -2.8056    1.7547 H         1 <0>         0.0431
     42 H7          1.8702   -2.5791    1.0477 H         1 <0>         0.0922
     43 H8          1.0214   -1.2007    1.7879 H         1 <0>         0.0438
     44 H9         -2.9659   -5.1671   -0.0921 H         1 <0>         0.1058
     45 H10        -3.7633   -3.8689    0.8281 H         1 <0>         0.0577
     46 H11        -3.7724   -3.8332   -0.9514 H         1 <0>         0.0589
     47 H12        -5.7705   -0.9100   -0.8836 H         1 <0>         0.0901
     48 H13        -5.7620   -0.9469    0.8959 H         1 <0>         0.0897
     49 H14        -6.2702    2.5913    0.0717 H         1 <0>         0.1640
     50 H15       -10.8263    2.5477   -1.4266 H         1 <0>         0.1420
     51 H16       -13.2823    2.3905   -1.4088 H         1 <0>         0.1546
     52 H17       -13.0762   -0.6358    1.5900 H         1 <0>         0.1543
     53 H18       -10.6192   -0.4942    1.5715 H         1 <0>         0.1440
     54 H19       -15.0186   -1.4456   -0.8620 H         1 <0>         0.1328
     55 H20       -16.5638   -0.6280   -1.1965 H         1 <0>         0.1356
     56 H21       -15.1046   -0.1825   -2.1132 H         1 <0>         0.1327
     57 H22       -10.8176    3.1016    1.0439 H         1 <0>         0.1236
     58 H23       -11.6915    5.4005    1.0857 H         1 <0>         0.1301
     59 H24       -10.3455    7.2496    0.1799 H         1 <0>         0.1289
     60 H25        -8.1197    6.8120   -0.7720 H         1 <0>         0.1314
     61 H26        -7.2230    4.5219   -0.8128 H         1 <0>         0.1316
@<TRIPOS>BOND
     1    1    2 1
     2    1   36 1
     3    1   37 1
     4    1   38 1
     5    2    3 1
     6    3    8 ar
     7    3    4 ar
     8    4    5 ar
     9    4   39 1
    10    5    6 ar
    11    5   13 1
    12    6    7 ar
    13    6   40 1
    14    7    8 ar
    15    7   11 1
    16    8    9 1
    17    9   10 1
    18   10   41 1
    19   10   42 1
    20   10   43 1
    21   11   12 1
    22   12   44 1
    23   12   45 1
    24   12   46 1
    25   13   14 1
    26   14   15 1
    27   14   47 1
    28   14   48 1
    29   15   19 2
    30   15   16 1
    31   16   17 2
    32   16   49 1
    33   17   18 1
    34   17   30 1
    35   18   19 1
    36   18   20 1
    37   20   25 ar
    38   20   21 ar
    39   21   22 ar
    40   21   50 1
    41   22   23 ar
    42   22   51 1
    43   23   24 ar
    44   23   26 1
    45   24   25 ar
    46   24   52 1
    47   25   53 1
    48   26   27 2
    49   26   28 2
    50   26   29 1
    51   29   54 1
    52   29   55 1
    53   29   56 1
    54   30   35 ar
    55   30   31 ar
    56   31   32 ar
    57   31   57 1
    58   32   33 ar
    59   32   58 1
    60   33   34 ar
    61   33   59 1
    62   34   35 ar
    63   34   60 1
    64   35   61 1
@<TRIPOS>MOLECULE
CHEMBL282015
   60    65     0     0     0
SMALL
USER_CHARGES

@<TRIPOS>ATOM
      1 C1         -0.0182    1.5027    0.0102 C.3       1 <0>        -0.1083
      2 C2          0.0021   -0.0042    0.0020 C.2       1 <0>         0.1150
      3 C3          0.0074   -0.7679   -1.0995 C.2       1 <0>        -0.1567
      4 C4          0.0293   -2.1662   -0.6567 C.ar      1 <0>        -0.0379
      5 C5          0.0428   -3.3917   -1.3243 C.ar      1 <0>        -0.1023
      6 C6          0.0625   -4.5656   -0.5961 C.ar      1 <0>         0.1122
      7 C7          0.0688   -4.5275    0.7953 C.ar      1 <0>        -0.1730
      8 C8          0.0551   -3.3226    1.4635 C.ar      1 <0>        -0.0855
      9 C9          0.0357   -2.1316    0.7482 C.ar      1 <0>         0.0753
     10 N1          0.0240   -0.7990    1.1223 N.am      1 <0>        -0.5043
     11 C10         0.0297   -0.3494    2.3928 C.2       1 <0>         0.6016
     12 O1         -1.0174   -0.0751    2.9450 O.2       1 <0>        -0.4256
     13 C11         1.3084   -0.1902    3.1139 C.ar      1 <0>        -0.1643
     14 C12         2.5190   -0.3985    2.4491 C.ar      1 <0>        -0.0443
     15 C13         3.7097   -0.2483    3.1279 C.ar      1 <0>        -0.1207
     16 C14         3.7070    0.1084    4.4664 C.ar      1 <0>         0.0042
     17 C15         2.5096    0.3160    5.1314 C.ar      1 <0>        -0.1216
     18 C16         1.3125    0.1750    4.4621 C.ar      1 <0>        -0.0374
     19 Cl1         5.2103    0.2955    5.3141 Cl        1 <0>        -0.0507
     20 O2          0.0753   -5.7626   -1.2410 O.3       1 <0>        -0.3148
     21 C17         0.0954   -6.9375   -0.4278 C.3       1 <0>         0.0270
     22 C18        -0.0069   -0.2812   -2.5257 C.3       1 <0>         0.0433
     23 C19         1.4090   -0.0991   -3.0085 C.2       1 <0>         0.0757
     24 N2          2.1795   -0.9712   -3.6043 N.2       1 <0>        -0.5015
     25 C20         3.4141   -0.6618   -3.9746 C.2       1 <0>         0.1102
     26 C21         3.8328    0.6129   -3.6995 C.2       1 <0>        -0.2272
     27 S1          2.3725    1.2773   -2.9160 S.3       1 <0>         0.1042
     28 C22         4.2957   -1.6443   -4.6505 C.ar      1 <0>        -0.0260
     29 C23         5.5992   -1.2724   -5.0188 C.ar      1 <0>        -0.0998
     30 C24         6.4261   -2.1533   -5.6386 C.ar      1 <0>        -0.1067
     31 C25         5.9805   -3.4575   -5.9198 C.ar      1 <0>        -0.0471
     32 C26         6.8170   -4.3876   -6.5597 C.ar      1 <0>        -0.1098
     33 C27         6.3573   -5.6425   -6.8180 C.ar      1 <0>        -0.1126
     34 C28         5.0656   -6.0223   -6.4577 C.ar      1 <0>        -0.1187
     35 C29         4.2267   -5.1489   -5.8369 C.ar      1 <0>        -0.0997
     36 C30         4.6667   -3.8438   -5.5526 C.ar      1 <0>        -0.0549
     37 C31         3.8297   -2.9201   -4.9077 C.ar      1 <0>        -0.0633
     38 H1          1.0044    1.8799    0.0025 H         1 <0>         0.0869
     39 H2         -0.5453    1.8638   -0.8729 H         1 <0>         0.0953
     40 H3         -0.5284    1.8543    0.9070 H         1 <0>         0.0736
     41 H4          0.0376   -3.4222   -2.4038 H         1 <0>         0.1374
     42 H5          0.0842   -5.4504    1.3560 H         1 <0>         0.1354
     43 H6          0.0595   -3.3039    2.5434 H         1 <0>         0.1222
     44 H7          2.5224   -0.6770    1.4056 H         1 <0>         0.1397
     45 H8          4.6464   -0.4095    2.6151 H         1 <0>         0.1445
     46 H9          2.5140    0.5936    6.1751 H         1 <0>         0.1471
     47 H10         0.3798    0.3418    4.9804 H         1 <0>         0.1484
     48 H11         0.9887   -6.9318    0.1968 H         1 <0>         0.0547
     49 H12        -0.7911   -6.9558    0.2062 H         1 <0>         0.0551
     50 H13         0.1040   -7.8210   -1.0660 H         1 <0>         0.1007
     51 H14        -0.5139   -1.0132   -3.1543 H         1 <0>         0.1105
     52 H15        -0.5343    0.6712   -2.5793 H         1 <0>         0.1018
     53 H16         4.7820    1.0861   -3.9032 H         1 <0>         0.1959
     54 H17         5.9482   -0.2727   -4.8065 H         1 <0>         0.1246
     55 H18         7.4256   -1.8524   -5.9160 H         1 <0>         0.1302
     56 H19         7.8202   -4.1079   -6.8457 H         1 <0>         0.1271
     57 H20         7.0031   -6.3546   -7.3100 H         1 <0>         0.1234
     58 H21         4.7255   -7.0241   -6.6745 H         1 <0>         0.1239
     59 H22         3.2281   -5.4565   -5.5639 H         1 <0>         0.1287
     60 H23         2.8283   -3.2025   -4.6182 H         1 <0>         0.1389
@<TRIPOS>BOND
     1    1    2 1
     2    1   38 1
     3    1   39 1
     4    1   40 1
     5    2   10 1
     6    2    3 2
     7    3    4 1
     8    3   22 1
     9    4    9 ar
    10    4    5 ar
    11    5    6 ar
    12    5   41 1
    13    6    7 ar
    14    6   20 1
    15    7    8 ar
    16    7   42 1
    17    8    9 ar
    18    8   43 1
    19    9   10 1
    20   10   11 am
    21   11   12 2
    22   11   13 1
    23   13   18 ar
    24   13   14 ar
    25   14   15 ar
    26   14   44 1
    27   15   16 ar
    28   15   45 1
    29   16   17 ar
    30   16   19 1
    31   17   18 ar
    32   17   46 1
    33   18   47 1
    34   20   21 1
    35   21   48 1
    36   21   49 1
    37   21   50 1
    38   22   23 1
    39   22   51 1
    40   22   52 1
    41   23   27 1
    42   23   24 2
    43   24   25 1
    44   25   26 2
    45   25   28 1
    46   26   27 1
    47   26   53 1
    48   28   37 ar
    49   28   29 ar
    50   29   30 ar
    51   29   54 1
    52   30   31 ar
    53   30   55 1
    54   31   36 ar
    55   31   32 ar
    56   32   33 ar
    57   32   56 1
    58   33   34 ar
    59   33   57 1
    60   34   35 ar
    61   34   58 1
    62   35   36 ar
    63   35   59 1
    64   36   37 ar
    65   37   60 1
@<TRIPOS>MOLECULE
CHEMBL12594
   53    54     0     0     0
SMALL
USER_CHARGES

@<TRIPOS>ATOM
      1 C1         -0.7412    1.5212   -0.4908 C.3       1 <0>        -0.1492
      2 C2         -0.5416    0.0107   -0.3516 C.3       1 <0>        -0.0208
      3 C3          0.0380   -0.3020    1.0294 C.3       1 <0>        -0.1420
      4 C4         -1.8877   -0.6985   -0.5123 C.3       1 <0>        -0.1433
      5 C5          0.4100   -0.4705   -1.4165 C.ar      1 <0>        -0.0927
      6 C6          0.9495    0.4254   -2.3117 C.ar      1 <0>        -0.0960
      7 C7          1.8332   -0.0229   -3.3002 C.ar      1 <0>        -0.0785
      8 C8          2.1637   -1.3811   -3.3731 C.ar      1 <0>        -0.0879
      9 C9          1.6187   -2.2688   -2.4731 C.ar      1 <0>        -0.0923
     10 C10         0.7459   -1.8176   -1.4896 C.ar      1 <0>         0.1296
     11 O1          0.2155   -2.6961   -0.6012 O.3       1 <0>        -0.4847
     12 C11         1.9735   -3.7314   -2.5504 C.3       1 <0>        -0.0214
     13 C12         2.9484   -3.9592   -3.7074 C.3       1 <0>        -0.1483
     14 C13         2.6286   -4.1672   -1.2382 C.3       1 <0>        -0.1422
     15 C14         0.7039   -4.5526   -2.7840 C.3       1 <0>        -0.1425
     16 C15         2.4119    0.9294   -4.2590 C.2       1 <0>         0.0048
     17 C16         2.7446    2.1741   -3.8566 C.2       1 <0>        -0.1860
     18 C17         2.7273    2.6989   -2.4361 C.3       1 <0>        -0.0982
     19 C18         3.1946    4.1581   -2.5692 C.3       1 <0>         0.1053
     20 N1          3.4428    4.3793   -3.9953 N.am      1 <0>        -0.4834
     21 C19         3.1967    3.2724   -4.7065 C.2       1 <0>         0.5535
     22 O2          3.3300    3.1921   -5.9137 O.2       1 <0>        -0.5184
     23 O3          3.8905    5.6031   -4.5492 O.3       1 <0>        -0.1191
     24 C20         5.3127    5.7232   -4.6202 C.3       1 <0>        -0.0072
     25 H1          0.2178    2.0265   -0.3764 H         1 <0>         0.0583
     26 H2         -1.1541    1.7440   -1.4747 H         1 <0>         0.0585
     27 H3         -1.4294    1.8693    0.2794 H         1 <0>         0.0617
     28 H4         -0.6503    0.0460    1.7996 H         1 <0>         0.0550
     29 H5          0.1802   -1.3782    1.1286 H         1 <0>         0.0751
     30 H6          0.9970    0.2032    1.1438 H         1 <0>         0.0515
     31 H7         -2.3007   -0.4758   -1.4961 H         1 <0>         0.0549
     32 H8         -1.7456   -1.7747   -0.4131 H         1 <0>         0.0582
     33 H9         -2.5760   -0.3505    0.2580 H         1 <0>         0.0616
     34 H10         0.6911    1.4723   -2.2515 H         1 <0>         0.1384
     35 H11         2.8448   -1.7320   -4.1343 H         1 <0>         0.1350
     36 H12        -0.6191   -3.0908   -0.8888 H         1 <0>         0.3838
     37 H13         3.8529   -3.3742   -3.5410 H         1 <0>         0.0589
     38 H14         3.2051   -5.0171   -3.7633 H         1 <0>         0.0605
     39 H15         2.4817   -3.6488   -4.6422 H         1 <0>         0.0589
     40 H16         1.9341   -4.0049   -0.4139 H         1 <0>         0.0754
     41 H17         2.8853   -5.2251   -1.2941 H         1 <0>         0.0548
     42 H18         3.5331   -3.5822   -1.0718 H         1 <0>         0.0511
     43 H19         0.2372   -4.2421   -3.7188 H         1 <0>         0.0550
     44 H20         0.9606   -5.6105   -2.8398 H         1 <0>         0.0615
     45 H21         0.0094   -4.3903   -1.9597 H         1 <0>         0.0578
     46 H22         2.5708    0.6331   -5.2853 H         1 <0>         0.1416
     47 H23         1.7183    2.6571   -2.0260 H         1 <0>         0.1017
     48 H24         3.4180    2.1324   -1.8115 H         1 <0>         0.1012
     49 H25         2.4166    4.8345   -2.2150 H         1 <0>         0.0875
     50 H26         4.1121    4.3111   -2.0010 H         1 <0>         0.0799
     51 H27         5.7340    5.6508   -3.6176 H         1 <0>         0.0545
     52 H28         5.7143    4.9229   -5.2418 H         1 <0>         0.0565
     53 H29         5.5746    6.6876   -5.0556 H         1 <0>         0.1119
@<TRIPOS>BOND
     1    1    2 1
     2    1   25 1
     3    1   26 1
     4    1   27 1
     5    2    3 1
     6    2    4 1
     7    2    5 1
     8    3   28 1
     9    3   29 1
    10    3   30 1
    11    4   31 1
    12    4   32 1
    13    4   33 1
    14    5   10 ar
    15    5    6 ar
    16    6    7 ar
    17    6   34 1
    18    7    8 ar
    19    7   16 1
    20    8    9 ar
    21    8   35 1
    22    9   10 ar
    23    9   12 1
    24   10   11 1
    25   11   36 1
    26   12   13 1
    27   12   14 1
    28   12   15 1
    29   13   37 1
    30   13   38 1
    31   13   39 1
    32   14   40 1
    33   14   41 1
    34   14   42 1
    35   15   43 1
    36   15   44 1
    37   15   45 1
    38   16   17 2
    39   16   46 1
    40   17   21 1
    41   17   18 1
    42   18   19 1
    43   18   47 1
    44   18   48 1
    45   19   20 1
    46   19   49 1
    47   19   50 1
    48   20   21 am
    49   20   23 1
    50   21   22 2
    51   23   24 1
    52   24   51 1
    53   24   52 1
    54   24   53 1
@<TRIPOS>MOLECULE
CHEMBL307602
   46    48     0     0     0
SMALL
USER_CHARGES

@<TRIPOS>ATOM
      1 C1         -0.1469    1.3317    0.3515 C.3       1 <0>        -0.1539
      2 C2         -0.0102   -0.1769    0.1362 C.3       1 <0>         0.1355
      3 C3          0.7816   -0.4513   -1.1209 C.2       1 <0>        -0.0870
      4 C4          1.8800   -1.1437   -0.7406 C.2       1 <0>         0.0106
      5 C5          1.8365   -1.3316    0.7114 C.2       1 <0>         0.4848
      6 O1          2.6789   -1.9157    1.3652 O.2       1 <0>        -0.4355
      7 O2          0.7260   -0.7618    1.2146 O.3       1 <0>        -0.2988
      8 O3          2.8608   -1.5915   -1.5687 O.3       1 <0>        -0.2832
      9 C6          4.1607   -1.0219   -1.4021 C.3       1 <0>         0.0837
     10 C7          4.3137    0.2191   -2.3056 C.3       1 <0>        -0.1464
     11 C8          5.7832    0.1566   -2.7912 C.3       1 <0>        -0.1230
     12 C9          6.0072   -1.3606   -3.0081 C.3       1 <0>        -0.1232
     13 C10         5.2375   -2.0262   -1.8487 C.3       1 <0>        -0.1220
     14 C11         0.4276   -0.0453   -2.4902 C.ar      1 <0>         0.0238
     15 C12         0.4167    1.3085   -2.8412 C.ar      1 <0>        -0.1222
     16 C13         0.0838    1.6810   -4.1264 C.ar      1 <0>        -0.0203
     17 C14        -0.2389    0.7192   -5.0679 C.ar      1 <0>        -0.6536
     18 C15        -0.2304   -0.6225   -4.7283 C.ar      1 <0>        -0.0186
     19 C16         0.1059   -1.0114   -3.4488 C.ar      1 <0>        -0.1087
     20 S1         -0.6635    1.2055   -6.7074 S.o2      1 <0>         2.4982
     21 O4         -1.4919    0.1582   -7.1932 O.2       1 <0>        -0.9344
     22 O5         -1.1693    2.5267   -6.5742 O.2       1 <0>        -0.9348
     23 C17         0.9102    1.2269   -7.6095 C.3       1 <0>        -0.6500
     24 C18        -1.3949   -0.8200    0.0365 C.3       1 <0>        -0.1522
     25 H1          0.8442    1.7800    0.4211 H         1 <0>         0.0704
     26 H2         -0.6863    1.7710   -0.4876 H         1 <0>         0.0887
     27 H3         -0.6959    1.5187    1.2744 H         1 <0>         0.0863
     28 H4          4.3166   -0.7466   -0.3590 H         1 <0>         0.0738
     29 H5          3.6294    0.1613   -3.1521 H         1 <0>         0.0797
     30 H6          4.1392    1.1308   -1.7343 H         1 <0>         0.0690
     31 H7          5.9044    0.7026   -3.7268 H         1 <0>         0.0730
     32 H8          6.4590    0.5416   -2.0276 H         1 <0>         0.0712
     33 H9          5.5965   -1.6734   -3.9681 H         1 <0>         0.0701
     34 H10         7.0686   -1.6017   -2.9495 H         1 <0>         0.0726
     35 H11         5.9164   -2.2378   -1.0226 H         1 <0>         0.0802
     36 H12         4.7685   -2.9481   -2.1926 H         1 <0>         0.0824
     37 H13         0.6679    2.0601   -2.1075 H         1 <0>         0.1383
     38 H14         0.0745    2.7260   -4.3990 H         1 <0>         0.1485
     39 H15        -0.4838   -1.3670   -5.4685 H         1 <0>         0.1485
     40 H16         0.1164   -2.0590   -3.1865 H         1 <0>         0.1378
     41 H17         1.3557    0.2324   -7.5866 H         1 <0>         0.1323
     42 H18         0.7321    1.5215   -8.6438 H         1 <0>         0.1349
     43 H19         1.5883    1.9398   -7.1404 H         1 <0>         0.1320
     44 H20        -1.9327   -0.3949   -0.8110 H         1 <0>         0.0866
     45 H21        -1.2868   -1.8954   -0.1042 H         1 <0>         0.0710
     46 H22        -1.9517   -0.6277    0.9536 H         1 <0>         0.0838
@<TRIPOS>BOND
     1    1    2 1
     2    1   25 1
     3    1   26 1
     4    1   27 1
     5    2    7 1
     6    2    3 1
     7    2   24 1
     8    3    4 2
     9    3   14 1
    10    4    5 1
    11    4    8 1
    12    5    6 2
    13    5    7 1
    14    8    9 1
    15    9   13 1
    16    9   10 1
    17    9   28 1
    18   10   11 1
    19   10   29 1
    20   10   30 1
    21   11   12 1
    22   11   31 1
    23   11   32 1
    24   12   13 1
    25   12   33 1
    26   12   34 1
    27   13   35 1
    28   13   36 1
    29   14   19 ar
    30   14   15 ar
    31   15   16 ar
    32   15   37 1
    33   16   17 ar
    34   16   38 1
    35   17   18 ar
    36   17   20 1
    37   18   19 ar
    38   18   39 1
    39   19   40 1
    40   20   21 2
    41   20   22 2
    42   20   23 1
    43   23   41 1
    44   23   42 1
    45   23   43 1
    46   24   44 1
    47   24   45 1
    48   24   46 1
@<TRIPOS>MOLECULE
CHEMBL90087
   46    48     0     0     0
SMALL
USER_CHARGES

@<TRIPOS>ATOM
      1 C1         -0.0205    1.5021   -0.0393 C.3       1 <0>        -0.1124
      2 C2          0.0005   -0.0048   -0.0346 C.ar      1 <0>        -0.0966
      3 C3          0.0008   -0.6997   -1.2296 C.ar      1 <0>        -0.1191
      4 C4          0.0200   -2.0819   -1.2253 C.ar      1 <0>        -0.1094
      5 C5          0.0393   -2.7692   -0.0261 C.ar      1 <0>        -0.0717
      6 C6          0.0399   -2.0742    1.1689 C.ar      1 <0>        -0.1137
      7 C7          0.0250   -0.6919    1.1646 C.ar      1 <0>        -0.1191
      8 C8          0.0592   -4.2760   -0.0214 C.3       1 <0>        -0.0377
      9 C9          1.4865   -4.7596   -0.0320 C.ar      1 <0>        -0.0901
     10 C10         2.0933   -5.0746   -1.2092 C.ar      1 <0>        -0.0988
     11 C11         3.4122   -5.5228   -1.2392 C.ar      1 <0>        -0.1082
     12 C12         4.1322   -5.6591   -0.0920 C.ar      1 <0>        -0.0060
     13 C13         3.5395   -5.3435    1.1426 C.ar      1 <0>        -0.0095
     14 C14         2.1993   -4.8819    1.1724 C.ar      1 <0>        -0.0629
     15 C15         1.6064   -4.5610    2.4062 C.ar      1 <0>        -0.0791
     16 C16         2.3244   -4.6911    3.5536 C.ar      1 <0>        -0.1909
     17 C17         3.6485   -5.1404    3.5261 C.ar      1 <0>         0.1068
     18 C18         4.2517   -5.4718    2.3465 C.ar      1 <0>        -0.1311
     19 O1          4.3403   -5.2597    4.6896 O.3       1 <0>        -0.3198
     20 C19         3.6524   -4.9098    5.8922 C.3       1 <0>         0.0298
     21 C20         5.5572   -6.1464   -0.1455 C.3       1 <0>        -0.1389
     22 C21         6.3685   -5.2482   -1.0814 C.3       1 <0>        -0.1144
     23 C22         5.5848   -7.5627   -0.6595 C.2       1 <0>         0.5027
     24 O2          6.5503   -7.9652   -1.2859 O.co2     1 <0>        -0.6951
     25 O3          4.6417   -8.3062   -0.4490 O.co2     1 <0>        -0.6877
     26 H1          1.0020    1.8796   -0.0533 H         1 <0>         0.0679
     27 H2         -0.5504    1.8554   -0.9239 H         1 <0>         0.0635
     28 H3         -0.5281    1.8612    0.8559 H         1 <0>         0.0631
     29 H4         -0.0143   -0.1627   -2.1666 H         1 <0>         0.1188
     30 H5          0.0195   -2.6248   -2.1589 H         1 <0>         0.1214
     31 H6          0.0546   -2.6112    2.1058 H         1 <0>         0.1219
     32 H7          0.0292   -0.1489    2.0981 H         1 <0>         0.1179
     33 H8         -0.4422   -4.6432    0.8740 H         1 <0>         0.0791
     34 H9         -0.4573   -4.6490   -0.9058 H         1 <0>         0.0812
     35 H10         1.5440   -4.9760   -2.1338 H         1 <0>         0.1154
     36 H11         3.8700   -5.7660   -2.1866 H         1 <0>         0.1185
     37 H12         0.5849   -4.2122    2.4424 H         1 <0>         0.1269
     38 H13         1.8657   -4.4437    4.4995 H         1 <0>         0.1231
     39 H14         5.2744   -5.8187    2.3381 H         1 <0>         0.1355
     40 H15         3.3410   -3.8664    5.8423 H         1 <0>         0.0507
     41 H16         2.7746   -5.5458    6.0069 H         1 <0>         0.0518
     42 H17         4.3167   -5.0503    6.7449 H         1 <0>         0.0950
     43 H18         5.9900   -6.1142    0.8544 H         1 <0>         0.0760
     44 H19         5.9358   -5.2804   -2.0813 H         1 <0>         0.0478
     45 H20         6.3485   -4.2238   -0.7096 H         1 <0>         0.0355
     46 H21         7.3992   -5.6007   -1.1201 H         1 <0>         0.0618
@<TRIPOS>BOND
     1    1    2 1
     2    1   26 1
     3    1   27 1
     4    1   28 1
     5    2    7 ar
     6    2    3 ar
     7    3    4 ar
     8    3   29 1
     9    4    5 ar
    10    4   30 1
    11    5    6 ar
    12    5    8 1
    13    6    7 ar
    14    6   31 1
    15    7   32 1
    16    8    9 1
    17    8   33 1
    18    8   34 1
    19    9   14 ar
    20    9   10 ar
    21   10   11 ar
    22   10   35 1
    23   11   12 ar
    24   11   36 1
    25   12   13 ar
    26   12   21 1
    27   13   18 ar
    28   13   14 ar
    29   14   15 ar
    30   15   16 ar
    31   15   37 1
    32   16   17 ar
    33   16   38 1
    34   17   18 ar
    35   17   19 1
    36   18   39 1
    37   19   20 1
    38   20   40 1
    39   20   41 1
    40   20   42 1
    41   21   22 1
    42   21   23 1
    43   21   43 1
    44   22   44 1
    45   22   45 1
    46   22   46 1
    47   23   24 2
    48   23   25 1
@<TRIPOS>MOLECULE
CHEMBL90087__1
   46    48     0     0     0
SMALL
USER_CHARGES

@<TRIPOS>ATOM
      1 C1         -0.0916    1.4009   -1.0121 C.3       1 <0>        -0.1126
      2 C2         -0.0533   -0.0832   -0.7530 C.ar      1 <0>        -0.0951
      3 C3         -0.1139   -0.9713   -1.8106 C.ar      1 <0>        -0.1180
      4 C4         -0.0788   -2.3326   -1.5729 C.ar      1 <0>        -0.1077
      5 C5          0.0173   -2.8058   -0.2776 C.ar      1 <0>        -0.0747
      6 C6          0.0788   -1.9177    0.7799 C.ar      1 <0>        -0.1140
      7 C7          0.0480   -0.5564    0.5419 C.ar      1 <0>        -0.1194
      8 C8          0.0546   -4.2899   -0.0184 C.3       1 <0>        -0.0360
      9 C9          1.4843   -4.7662   -0.0305 C.ar      1 <0>        -0.0887
     10 C10         2.0259   -5.2760   -1.1707 C.ar      1 <0>        -0.1049
     11 C11         3.3459   -5.7209   -1.2014 C.ar      1 <0>        -0.0838
     12 C12         4.1322   -5.6591   -0.0920 C.ar      1 <0>        -0.0317
     13 C13         3.6080   -5.1389    1.1037 C.ar      1 <0>        -0.0125
     14 C14         2.2666   -4.6809    1.1333 C.ar      1 <0>        -0.0680
     15 C15         1.7420   -4.1556    2.3273 C.ar      1 <0>        -0.0777
     16 C16         2.5263   -4.0877    3.4361 C.ar      1 <0>        -0.1934
     17 C17         3.8517   -4.5332    3.4077 C.ar      1 <0>         0.1086
     18 C18         4.3897   -5.0596    2.2680 C.ar      1 <0>        -0.1363
     19 O1          4.6106   -4.4519    4.5319 O.3       1 <0>        -0.3190
     20 C19         3.9891   -3.9034    5.6959 C.3       1 <0>         0.0298
     21 C20         5.5572   -6.1464   -0.1455 C.3       1 <0>        -0.1347
     22 C21         5.5853   -7.5843   -0.6674 C.3       1 <0>        -0.1192
     23 C22         6.3563   -5.2617   -1.0674 C.2       1 <0>         0.5045
     24 O2          7.4966   -4.9463   -0.7728 O.co2     1 <0>        -0.6969
     25 O3          5.8626   -4.8615   -2.1078 O.co2     1 <0>        -0.6863
     26 H1          0.9240    1.7719   -1.1499 H         1 <0>         0.0691
     27 H2         -0.6755    1.5978   -1.9112 H         1 <0>         0.0636
     28 H3         -0.5509    1.9063   -0.1626 H         1 <0>         0.0628
     29 H4         -0.1890   -0.6016   -2.8225 H         1 <0>         0.1194
     30 H5         -0.1268   -3.0264   -2.3991 H         1 <0>         0.1214
     31 H6          0.1535   -2.2874    1.7919 H         1 <0>         0.1209
     32 H7          0.0998    0.1376    1.3679 H         1 <0>         0.1179
     33 H8         -0.3902   -4.5001    0.9542 H         1 <0>         0.0778
     34 H9         -0.5077   -4.8086   -0.7949 H         1 <0>         0.0804
     35 H10         1.4231   -5.3369   -2.0648 H         1 <0>         0.1154
     36 H11         3.7511   -6.1212   -2.1190 H         1 <0>         0.1301
     37 H12         0.7205   -3.8071    2.3636 H         1 <0>         0.1268
     38 H13         2.1201   -3.6836    4.3515 H         1 <0>         0.1228
     39 H14         5.4141   -5.4014    2.2587 H         1 <0>         0.1383
     40 H15         3.6636   -2.8842    5.4879 H         1 <0>         0.0514
     41 H16         3.1267   -4.5119    5.9682 H         1 <0>         0.0509
     42 H17         4.7030   -3.8959    6.5196 H         1 <0>         0.0951
     43 H18         5.9900   -6.1142    0.8544 H         1 <0>         0.0739
     44 H19         5.1525   -7.6165   -1.6673 H         1 <0>         0.0547
     45 H20         6.6160   -7.9368   -0.7061 H         1 <0>         0.0525
     46 H21         5.0073   -8.2242   -0.0006 H         1 <0>         0.0426
@<TRIPOS>BOND
     1    1    2 1
     2    1   26 1
     3    1   27 1
     4    1   28 1
     5    2    7 ar
     6    2    3 ar
     7    3    4 ar
     8    3   29 1
     9    4    5 ar
    10    4   30 1
    11    5    6 ar
    12    5    8 1
    13    6    7 ar
    14    6   31 1
    15    7   32 1
    16    8    9 1
    17    8   33 1
    18    8   34 1
    19    9   14 ar
    20    9   10 ar
    21   10   11 ar
    22   10   35 1
    23   11   12 ar
    24   11   36 1
    25   12   13 ar
    26   12   21 1
    27   13   18 ar
    28   13   14 ar
    29   14   15 ar
    30   15   16 ar
    31   15   37 1
    32   16   17 ar
    33   16   38 1
    34   17   18 ar
    35   17   19 1
    36   18   39 1
    37   19   20 1
    38   20   40 1
    39   20   41 1
    40   20   42 1
    41   21   22 1
    42   21   23 1
    43   21   43 1
    44   22   44 1
    45   22   45 1
    46   22   46 1
    47   23   24 2
    48   23   25 1
@<TRIPOS>MOLECULE
CHEMBL71916
   43    45     0     0     0
SMALL
USER_CHARGES

@<TRIPOS>ATOM
      1 C1         -0.1664    1.3907    0.2441 C.3       1 <0>        -0.1539
      2 C2         -0.0368   -0.1230    0.0627 C.3       1 <0>         0.1355
      3 C3          0.7813   -0.4290   -1.1699 C.2       1 <0>        -0.0868
      4 C4          1.8652   -1.1217   -0.7504 C.2       1 <0>         0.0091
      5 C5          1.7869   -1.2794    0.7037 C.2       1 <0>         0.4847
      6 O1          2.6094   -1.8564    1.3885 O.2       1 <0>        -0.4352
      7 O2          0.6697   -0.6912    1.1695 O.3       1 <0>        -0.2987
      8 O3          2.8611   -1.5936   -1.5464 O.3       1 <0>        -0.2775
      9 C6          4.1612   -1.0298   -1.3620 C.3       1 <0>         0.0598
     10 C7          4.6044   -0.1137   -2.5149 C.3       1 <0>        -0.1538
     11 C8          6.0031   -0.7354   -2.3667 C.3       1 <0>        -0.1398
     12 C9          5.3050   -1.9712   -1.7747 C.3       1 <0>        -0.1318
     13 C10         0.4621   -0.0484   -2.5550 C.ar      1 <0>         0.0236
     14 C11         0.4704    1.2979   -2.9337 C.ar      1 <0>        -0.1217
     15 C12         0.1701    1.6465   -4.2335 C.ar      1 <0>        -0.0203
     16 C13        -0.1390    0.6682   -5.1624 C.ar      1 <0>        -0.6536
     17 C14        -0.1493   -0.6663   -4.7955 C.ar      1 <0>        -0.0189
     18 C15         0.1545   -1.0314   -3.5010 C.ar      1 <0>        -0.1090
     19 S1         -0.5219    1.1240   -6.8208 S.o2      1 <0>         2.4982
     20 O4         -1.3476    0.0734   -7.3042 O.2       1 <0>        -0.9344
     21 O5         -1.0197    2.4516   -6.7262 O.2       1 <0>        -0.9348
     22 C16         1.0721    1.1146   -7.6867 C.3       1 <0>        -0.6499
     23 C17        -1.4240   -0.7575   -0.0559 C.3       1 <0>        -0.1523
     24 H1          0.8264    1.8329    0.3275 H         1 <0>         0.0705
     25 H2         -0.6829    1.8168   -0.6159 H         1 <0>         0.0888
     26 H3         -0.7349    1.6007    1.1501 H         1 <0>         0.0863
     27 H4          4.2945   -0.5872   -0.3749 H         1 <0>         0.0943
     28 H5          4.1228   -0.3438   -3.4653 H         1 <0>         0.0925
     29 H6          4.5698    0.9473   -2.2676 H         1 <0>         0.0728
     30 H7          6.4985   -0.9278   -3.3184 H         1 <0>         0.0811
     31 H8          6.6407   -0.2112   -1.6549 H         1 <0>         0.0863
     32 H9          5.8360   -2.4097   -0.9298 H         1 <0>         0.0798
     33 H10         5.0150   -2.7090   -2.5227 H         1 <0>         0.0949
     34 H11         0.7110    2.0625   -2.2099 H         1 <0>         0.1384
     35 H12         0.1757    2.6857   -4.5274 H         1 <0>         0.1486
     36 H13        -0.3918   -1.4239   -5.5260 H         1 <0>         0.1486
     37 H14         0.1504   -2.0735   -3.2172 H         1 <0>         0.1379
     38 H15         1.5088    0.1174   -7.6333 H         1 <0>         0.1323
     39 H16         0.9202    1.3893   -8.7306 H         1 <0>         0.1349
     40 H17         1.7452    1.8317   -7.2166 H         1 <0>         0.1321
     41 H18        -1.9388   -0.3458   -0.9240 H         1 <0>         0.0866
     42 H19        -1.3213   -1.8364   -0.1722 H         1 <0>         0.0710
     43 H20        -2.0001   -0.5423    0.8440 H         1 <0>         0.0839
@<TRIPOS>BOND
     1    1    2 1
     2    1   24 1
     3    1   25 1
     4    1   26 1
     5    2    7 1
     6    2    3 1
     7    2   23 1
     8    3    4 2
     9    3   13 1
    10    4    5 1
    11    4    8 1
    12    5    6 2
    13    5    7 1
    14    8    9 1
    15    9   12 1
    16    9   10 1
    17    9   27 1
    18   10   11 1
    19   10   28 1
    20   10   29 1
    21   11   12 1
    22   11   30 1
    23   11   31 1
    24   12   32 1
    25   12   33 1
    26   13   18 ar
    27   13   14 ar
    28   14   15 ar
    29   14   34 1
    30   15   16 ar
    31   15   35 1
    32   16   17 ar
    33   16   19 1
    34   17   18 ar
    35   17   36 1
    36   18   37 1
    37   19   20 2
    38   19   21 2
    39   19   22 1
    40   22   38 1
    41   22   39 1
    42   22   40 1
    43   23   41 1
    44   23   42 1
    45   23   43 1
@<TRIPOS>MOLECULE
CHEMBL17069
   41    44     0     0     0
SMALL
USER_CHARGES

@<TRIPOS>ATOM
      1 C1          0.8301    0.0057    1.1307 C.3       1 <0>        -0.6499
      2 S1          0.0459   -1.3843    0.2683 S.o2      1 <0>         2.4980
      3 O1          0.3558   -2.6055    0.9253 O.2       1 <0>        -0.9345
      4 O2         -1.2976   -1.0600   -0.0621 O.2       1 <0>        -0.9350
      5 C2          0.8785   -1.4835   -1.2814 C.ar      1 <0>        -0.6507
      6 C3          0.4034   -0.7665   -2.3655 C.ar      1 <0>        -0.0195
      7 C4          1.0502   -0.8389   -3.5814 C.ar      1 <0>        -0.1171
      8 C5          2.1879   -1.6388   -3.7171 C.ar      1 <0>         0.0467
      9 C6          2.6618   -2.3600   -2.6180 C.ar      1 <0>        -0.1020
     10 C7          2.0077   -2.2737   -1.4069 C.ar      1 <0>        -0.0180
     11 C8          2.8849   -1.7219   -5.0144 C.2       1 <0>        -0.1436
     12 C9          4.2468   -1.6091   -5.3045 C.2       1 <0>         0.1645
     13 N1          4.6371   -1.7203   -6.5586 N.2       1 <0>        -0.4590
     14 C10         3.7725   -1.9345   -7.5376 C.2       1 <0>         0.1522
     15 S2          2.2221   -2.0028   -6.6513 S.3       1 <0>         0.0731
     16 C11         4.0243   -2.0839   -8.9860 C.ar      1 <0>        -0.0150
     17 C12         2.9608   -2.3011   -9.8639 C.ar      1 <0>        -0.0802
     18 C13         3.2026   -2.4392  -11.2148 C.ar      1 <0>        -0.1132
     19 C14         4.4960   -2.3630  -11.7014 C.ar      1 <0>        -0.0838
     20 C15         5.5550   -2.1485  -10.8381 C.ar      1 <0>        -0.1129
     21 C16         5.3269   -2.0027   -9.4838 C.ar      1 <0>         0.0035
     22 Cl1         6.6563   -1.7258   -8.4021 Cl        1 <0>        -0.0275
     23 C17         5.2287   -1.3698   -4.2286 C.2       1 <0>        -0.0984
     24 C18         6.4680   -1.9269   -4.0509 C.2       1 <0>        -0.1166
     25 C19         7.2148   -1.5442   -2.9578 C.2       1 <0>        -0.1582
     26 C20         6.7030   -0.6312   -2.0937 C.2       1 <0>        -0.1681
     27 S3          5.1139   -0.2733   -2.8242 S.3       1 <0>         0.0710
     28 H1          1.8934   -0.1982    1.2566 H         1 <0>         0.1327
     29 H2          0.7016    0.9158    0.5449 H         1 <0>         0.1326
     30 H3          0.3665    0.1346    2.1087 H         1 <0>         0.1345
     31 H4         -0.4762   -0.1489   -2.2592 H         1 <0>         0.1492
     32 H5          0.6781   -0.2791   -4.4267 H         1 <0>         0.1366
     33 H6          3.5405   -2.9803   -2.7157 H         1 <0>         0.1357
     34 H7          2.3752   -2.8273   -0.5555 H         1 <0>         0.1491
     35 H8          1.9509   -2.3612   -9.4861 H         1 <0>         0.1359
     36 H9          2.3805   -2.6076  -11.8946 H         1 <0>         0.1402
     37 H10         4.6792   -2.4719  -12.7602 H         1 <0>         0.1404
     38 H11         6.5619   -2.0905  -11.2244 H         1 <0>         0.1430
     39 H12         6.8517   -2.6518   -4.7535 H         1 <0>         0.1364
     40 H13         8.1950   -1.9658   -2.7906 H         1 <0>         0.1382
     41 H14         7.1451   -0.2231   -1.1968 H         1 <0>         0.1896
@<TRIPOS>BOND
     1    1    2 1
     2    1   28 1
     3    1   29 1
     4    1   30 1
     5    2    3 2
     6    2    4 2
     7    2    5 1
     8    5   10 ar
     9    5    6 ar
    10    6    7 ar
    11    6   31 1
    12    7    8 ar
    13    7   32 1
    14    8    9 ar
    15    8   11 1
    16    9   10 ar
    17    9   33 1
    18   10   34 1
    19   11   15 1
    20   11   12 2
    21   12   13 1
    22   12   23 1
    23   13   14 2
    24   14   15 1
    25   14   16 1
    26   16   21 ar
    27   16   17 ar
    28   17   18 ar
    29   17   35 1
    30   18   19 ar
    31   18   36 1
    32   19   20 ar
    33   19   37 1
    34   20   21 ar
    35   20   38 1
    36   21   22 1
    37   23   27 1
    38   23   24 2
    39   24   25 1
    40   24   39 1
    41   25   26 2
    42   25   40 1
    43   26   27 1
    44   26   41 1
@<TRIPOS>MOLECULE
CHEMBL560088
   50    53     0     0     0
SMALL
USER_CHARGES

@<TRIPOS>ATOM
      1 C1         -0.0225    1.8097    0.0120 C.3       1 <0>        -0.6509
      2 S1          0.0021   -0.0041    0.0020 S.o2      1 <0>         2.4976
      3 O1          0.8352   -0.4880    1.0465 O.2       1 <0>        -0.9347
      4 O2         -1.3147   -0.5105   -0.1678 O.2       1 <0>        -0.9352
      5 C2          0.8454   -0.4373   -1.4831 C.ar      1 <0>        -0.6564
      6 C3          0.1314   -0.6121   -2.6550 C.ar      1 <0>        -0.0171
      7 C4          0.7866   -0.9510   -3.8213 C.ar      1 <0>        -0.1293
      8 C5          2.1707   -1.1172   -3.8170 C.ar      1 <0>         0.0156
      9 C6          2.8850   -0.9398   -2.6330 C.ar      1 <0>        -0.1168
     10 C7          2.2196   -0.5958   -1.4740 C.ar      1 <0>        -0.0194
     11 C8          2.8803   -1.4817   -5.0665 C.ar      1 <0>        -0.1673
     12 C9          2.4440   -2.5467   -5.8556 C.ar      1 <0>         0.1752
     13 N1          3.1055   -2.8382   -6.9631 N.ar      1 <0>        -0.5122
     14 C10         4.1639   -2.1419   -7.3297 C.ar      1 <0>         0.3400
     15 N2          4.6166   -1.1288   -6.6213 N.ar      1 <0>        -0.4846
     16 C11         4.0106   -0.7598   -5.4950 C.ar      1 <0>         0.2405
     17 C12         4.5192    0.3848   -4.7045 C.ar      1 <0>        -0.0733
     18 C13         3.6293    1.2141   -4.0219 C.ar      1 <0>        -0.0577
     19 C14         4.1077    2.2787   -3.2872 C.ar      1 <0>        -0.1599
     20 C15         5.4702    2.5254   -3.2268 C.ar      1 <0>         0.1219
     21 C16         6.3583    1.7042   -3.9033 C.ar      1 <0>        -0.1591
     22 C17         5.8900    0.6334   -4.6356 C.ar      1 <0>        -0.0376
     23 F1          5.9340    3.5700   -2.5065 F         1 <0>        -0.1336
     24 C18         4.8791   -2.5187   -8.6016 C.3       1 <0>        -0.0062
     25 C19         4.2815   -1.7592   -9.7579 C.ar      1 <0>        -0.1156
     26 C20         3.2903   -2.3381  -10.5269 C.ar      1 <0>        -0.0877
     27 C21         2.7420   -1.6421  -11.5881 C.ar      1 <0>        -0.1315
     28 C22         3.1835   -0.3651  -11.8824 C.ar      1 <0>        -0.0998
     29 C23         4.1738    0.2183  -11.1164 C.ar      1 <0>        -0.1502
     30 C24         4.7220   -0.4762  -10.0475 C.ar      1 <0>         0.1224
     31 O3          5.6926    0.0977   -9.2889 O.3       1 <0>        -0.4835
     32 H1          1.0001    2.1870    0.0043 H         1 <0>         0.1322
     33 H2         -0.5497    2.1708   -0.8711 H         1 <0>         0.1323
     34 H3         -0.5327    2.1613    0.9088 H         1 <0>         0.1346
     35 H4         -0.9409   -0.4833   -2.6571 H         1 <0>         0.1476
     36 H5          0.2281   -1.0875   -4.7356 H         1 <0>         0.1370
     37 H6          3.9574   -1.0673   -2.6238 H         1 <0>         0.1342
     38 H7          2.7724   -0.4541   -0.5570 H         1 <0>         0.1466
     39 H8          1.5789   -3.1248   -5.5660 H         1 <0>         0.1744
     40 H9          2.5674    1.0231   -4.0690 H         1 <0>         0.1371
     41 H10         3.4195    2.9214   -2.7583 H         1 <0>         0.1411
     42 H11         7.4191    1.9004   -3.8533 H         1 <0>         0.1430
     43 H12         6.5831   -0.0086   -5.1588 H         1 <0>         0.1424
     44 H13         5.9365   -2.2700   -8.5112 H         1 <0>         0.1019
     45 H14         4.7713   -3.5893   -8.7755 H         1 <0>         0.1021
     46 H15         2.9438   -3.3353  -10.2990 H         1 <0>         0.1304
     47 H16         1.9678   -2.0966  -12.1885 H         1 <0>         0.1267
     48 H17         2.7538    0.1765  -12.7122 H         1 <0>         0.1268
     49 H18         4.5182    1.2156  -11.3467 H         1 <0>         0.1288
     50 H19         6.5905   -0.0694   -9.6066 H         1 <0>         0.3873
@<TRIPOS>BOND
     1    1    2 1
     2    1   32 1
     3    1   33 1
     4    1   34 1
     5    2    3 2
     6    2    4 2
     7    2    5 1
     8    5   10 ar
     9    5    6 ar
    10    6    7 ar
    11    6   35 1
    12    7    8 ar
    13    7   36 1
    14    8    9 ar
    15    8   11 1
    16    9   10 ar
    17    9   37 1
    18   10   38 1
    19   11   16 ar
    20   11   12 ar
    21   12   13 ar
    22   12   39 1
    23   13   14 ar
    24   14   15 ar
    25   14   24 1
    26   15   16 ar
    27   16   17 1
    28   17   22 ar
    29   17   18 ar
    30   18   19 ar
    31   18   40 1
    32   19   20 ar
    33   19   41 1
    34   20   21 ar
    35   20   23 1
    36   21   22 ar
    37   21   42 1
    38   22   43 1
    39   24   25 1
    40   24   44 1
    41   24   45 1
    42   25   30 ar
    43   25   26 ar
    44   26   27 ar
    45   26   46 1
    46   27   28 ar
    47   27   47 1
    48   28   29 ar
    49   28   48 1
    50   29   30 ar
    51   29   49 1
    52   30   31 1
    53   31   50 1
@<TRIPOS>MOLECULE
CHEMBL90988
   45    48     0     0     0
SMALL
USER_CHARGES

@<TRIPOS>ATOM
      1 C1         -0.0225    1.8097    0.0120 C.3       1 <0>        -0.6500
      2 S1          0.0021   -0.0041    0.0020 S.o2      1 <0>         2.4985
      3 O1          0.8352   -0.4880    1.0465 O.2       1 <0>        -0.9345
      4 O2         -1.3147   -0.5105   -0.1678 O.2       1 <0>        -0.9345
      5 C2          0.8454   -0.4373   -1.4831 C.ar      1 <0>        -0.6530
      6 C3          0.1296   -0.6119   -2.6552 C.ar      1 <0>        -0.0198
      7 C4          0.7812   -0.9508   -3.8215 C.ar      1 <0>        -0.1138
      8 C5          2.1716   -1.1181   -3.8186 C.ar      1 <0>         0.0260
      9 C6          2.8879   -0.9392   -2.6286 C.ar      1 <0>        -0.1147
     10 C7          2.2207   -0.5956   -1.4724 C.ar      1 <0>        -0.0201
     11 C8          2.8741   -1.4795   -5.0556 C.2       1 <0>        -0.0093
     12 C9          3.0975   -0.8799   -6.2654 C.2       1 <0>        -0.1508
     13 C10         3.8798   -1.9716   -6.8539 C.2       1 <0>         0.4139
     14 O3          4.4410   -2.2034   -7.9049 O.2       1 <0>        -0.3976
     15 C11         3.6640   -2.6655   -5.5371 C.3       1 <0>        -0.0857
     16 C12         2.8693   -3.9797   -5.6222 C.3       1 <0>        -0.1081
     17 C13         3.9410   -5.0816   -5.4227 C.3       1 <0>        -0.1250
     18 C14         4.8824   -4.4573   -4.3623 C.3       1 <0>        -0.1230
     19 C15         4.9420   -2.9619   -4.7417 C.3       1 <0>        -0.1101
     20 C16         2.6849    0.4379   -6.8032 C.ar      1 <0>        -0.0421
     21 C17         1.3341    0.7202   -7.0042 C.ar      1 <0>        -0.1004
     22 C18         0.9560    1.9492   -7.5048 C.ar      1 <0>        -0.1182
     23 C19         1.9140    2.9003   -7.8075 C.ar      1 <0>        -0.1122
     24 C20         3.2555    2.6261   -7.6103 C.ar      1 <0>        -0.1171
     25 C21         3.6455    1.4028   -7.1049 C.ar      1 <0>        -0.0975
     26 H1          1.0001    2.1870    0.0043 H         1 <0>         0.1322
     27 H2         -0.5497    2.1708   -0.8711 H         1 <0>         0.1322
     28 H3         -0.5327    2.1613    0.9088 H         1 <0>         0.1350
     29 H4         -0.9427   -0.4824   -2.6556 H         1 <0>         0.1489
     30 H5          0.2212   -1.0873   -4.7348 H         1 <0>         0.1370
     31 H6          3.9603   -1.0666   -2.6176 H         1 <0>         0.1386
     32 H7          2.7720   -0.4532   -0.5547 H         1 <0>         0.1491
     33 H8          2.1219   -4.0260   -4.8301 H         1 <0>         0.0824
     34 H9          2.3976   -4.0782   -6.5999 H         1 <0>         0.0738
     35 H10         3.4871   -5.9976   -5.0445 H         1 <0>         0.0752
     36 H11         4.4780   -5.2707   -6.3522 H         1 <0>         0.0730
     37 H12         4.4660   -4.5809   -3.3626 H         1 <0>         0.0715
     38 H13         5.8742   -4.9057   -4.4216 H         1 <0>         0.0732
     39 H14         5.8198   -2.7670   -5.3578 H         1 <0>         0.0766
     40 H15         4.9729   -2.3485   -3.8412 H         1 <0>         0.0769
     41 H16         0.5855   -0.0218   -6.7689 H         1 <0>         0.1218
     42 H17        -0.0898    2.1689   -7.6609 H         1 <0>         0.1268
     43 H18         1.6133    3.8606   -8.1998 H         1 <0>         0.1253
     44 H19         3.9989    3.3724   -7.8488 H         1 <0>         0.1269
     45 H20         4.6928    1.1913   -6.9474 H         1 <0>         0.1227
@<TRIPOS>BOND
     1    1    2 1
     2    1   26 1
     3    1   27 1
     4    1   28 1
     5    2    3 2
     6    2    4 2
     7    2    5 1
     8    5   10 ar
     9    5    6 ar
    10    6    7 ar
    11    6   29 1
    12    7    8 ar
    13    7   30 1
    14    8    9 ar
    15    8   11 1
    16    9   10 ar
    17    9   31 1
    18   10   32 1
    19   11   15 1
    20   11   12 2
    21   12   13 1
    22   12   20 1
    23   13   14 2
    24   13   15 1
    25   15   19 1
    26   15   16 1
    27   16   17 1
    28   16   33 1
    29   16   34 1
    30   17   18 1
    31   17   35 1
    32   17   36 1
    33   18   19 1
    34   18   37 1
    35   18   38 1
    36   19   39 1
    37   19   40 1
    38   20   25 ar
    39   20   21 ar
    40   21   22 ar
    41   21   41 1
    42   22   23 ar
    43   22   42 1
    44   23   24 ar
    45   23   43 1
    46   24   25 ar
    47   24   44 1
    48   25   45 1
@<TRIPOS>MOLECULE
CHEMBL155658
   42    45     0     0     0
SMALL
USER_CHARGES

@<TRIPOS>ATOM
      1 C1         -0.0167    1.3786    0.0096 C.ar      1 <0>        -0.1205
      2 C2          1.1696    2.0891    0.0021 C.ar      1 <0>        -0.0988
      3 C3          2.3774    1.4193   -0.0130 C.ar      1 <0>        -0.1110
      4 C4          2.3995    0.0309   -0.0207 C.ar      1 <0>         0.1534
      5 C5          1.2066   -0.6797   -0.0132 C.ar      1 <0>        -0.1341
      6 C6          0.0021   -0.0041    0.0020 C.ar      1 <0>        -0.0977
      7 N1          3.6231   -0.6516   -0.0366 N.pl3     1 <0>        -0.3199
      8 C7          3.8865   -1.8316    0.5796 C.2       1 <0>         0.0946
      9 C8          5.1772   -2.1490    0.3352 C.2       1 <0>        -0.2066
     10 C9          5.7269   -1.1353   -0.4720 C.2       1 <0>         0.1200
     11 N2          4.7884   -0.2388   -0.6965 N.2       1 <0>        -0.2723
     12 C10         7.1184   -1.0878   -0.9850 C.ar      1 <0>        -0.0084
     13 C11         8.1661   -1.5824   -0.2106 C.ar      1 <0>        -0.0836
     14 C12         9.4585   -1.5364   -0.6923 C.ar      1 <0>        -0.1096
     15 C13         9.7150   -0.9997   -1.9423 C.ar      1 <0>        -0.0274
     16 C14         8.6776   -0.5070   -2.7154 C.ar      1 <0>        -0.1099
     17 C15         7.3811   -0.5538   -2.2450 C.ar      1 <0>        -0.0786
     18 Cl1        11.3431   -0.9436   -2.5423 Cl        1 <0>        -0.0663
     19 C16         5.8965   -3.3696    0.8519 C.3       1 <0>        -0.0431
     20 C17         4.8842   -4.4952    1.0769 C.3       1 <0>        -0.1246
     21 C18         4.3207   -4.4060    2.4928 C.3       1 <0>        -0.1213
     22 C19         3.5871   -3.0837    2.6971 C.3       1 <0>        -0.1131
     23 C20         2.9179   -2.6577    1.3873 C.3       1 <0>        -0.0687
     24 H1         -0.9598    1.9047    0.0260 H         1 <0>         0.1308
     25 H2          1.1517    3.1690    0.0077 H         1 <0>         0.1334
     26 H3          3.3035    1.9747   -0.0193 H         1 <0>         0.1330
     27 H4          1.2206   -1.7596   -0.0195 H         1 <0>         0.1333
     28 H5         -0.9261   -0.5562    0.0083 H         1 <0>         0.1343
     29 H6          7.9671   -2.0006    0.7650 H         1 <0>         0.1386
     30 H7         10.2711   -1.9195   -0.0929 H         1 <0>         0.1391
     31 H8          8.8827   -0.0893   -3.6900 H         1 <0>         0.1378
     32 H9          6.5719   -0.1733   -2.8506 H         1 <0>         0.1356
     33 H10         6.6404   -3.6897    0.1224 H         1 <0>         0.0745
     34 H11         6.3895   -3.1299    1.7940 H         1 <0>         0.0727
     35 H12         4.0715   -4.4012    0.3567 H         1 <0>         0.0679
     36 H13         5.3769   -5.4582    0.9428 H         1 <0>         0.0681
     37 H14         3.6269   -5.2308    2.6561 H         1 <0>         0.0641
     38 H15         5.1383   -4.4778    3.2101 H         1 <0>         0.0665
     39 H16         2.8276   -3.2057    3.4694 H         1 <0>         0.0726
     40 H17         4.2986   -2.3181    3.0066 H         1 <0>         0.0671
     41 H18         2.0301   -2.0652    1.6081 H         1 <0>         0.0819
     42 H19         2.6331   -3.5434    0.8193 H         1 <0>         0.0962
@<TRIPOS>BOND
     1    1    6 ar
     2    1    2 ar
     3    1   24 1
     4    2    3 ar
     5    2   25 1
     6    3    4 ar
     7    3   26 1
     8    4    5 ar
     9    4    7 1
    10    5    6 ar
    11    5   27 1
    12    6   28 1
    13    7   11 1
    14    7    8 1
    15    8   23 1
    16    8    9 2
    17    9   10 1
    18    9   19 1
    19   10   11 2
    20   10   12 1
    21   12   17 ar
    22   12   13 ar
    23   13   14 ar
    24   13   29 1
    25   14   15 ar
    26   14   30 1
    27   15   16 ar
    28   15   18 1
    29   16   17 ar
    30   16   31 1
    31   17   32 1
    32   19   20 1
    33   19   33 1
    34   19   34 1
    35   20   21 1
    36   20   35 1
    37   20   36 1
    38   21   22 1
    39   21   37 1
    40   21   38 1
    41   22   23 1
    42   22   39 1
    43   22   40 1
    44   23   41 1
    45   23   42 1
@<TRIPOS>MOLECULE
CHEMBL117911
   46    48     0     0     0
SMALL
USER_CHARGES

@<TRIPOS>ATOM
      1 C1          1.6860   -0.7628   -1.3938 C.3       1 <0>        -0.1351
      2 C2          1.6533   -2.0535   -0.5729 C.3       1 <0>        -0.0492
      3 C3          0.3534   -2.8476   -0.8427 C.3       1 <0>         0.0550
      4 O1         -0.5283   -2.3768    0.1903 O.3       1 <0>        -0.2954
      5 C4          0.2083   -1.9801    1.2648 C.ar      1 <0>         0.1279
      6 C5          1.5335   -1.7509    0.9086 C.ar      1 <0>        -0.1579
      7 C6          2.4525   -1.3301    1.8387 C.ar      1 <0>        -0.0323
      8 C7          2.0591   -1.1344    3.1674 C.ar      1 <0>        -0.1056
      9 C8          0.7302   -1.3709    3.5320 C.ar      1 <0>        -0.0650
     10 C9         -0.1816   -1.7888    2.5900 C.ar      1 <0>        -0.0926
     11 C10        -1.6117   -2.0408    2.9930 C.3       1 <0>        -0.0215
     12 C11        -1.7849   -1.7286    4.4807 C.3       1 <0>        -0.1462
     13 C12        -2.5388   -1.1423    2.1720 C.3       1 <0>        -0.1406
     14 C13        -1.9632   -3.5074    2.7354 C.3       1 <0>        -0.1399
     15 C14         3.0361   -0.6840    4.1726 C.2       1 <0>        -0.0949
     16 C15         3.8913    0.3146    3.8804 C.2       1 <0>        -0.0736
     17 C16         3.6400    1.1799    2.7243 C.2       1 <0>        -0.1348
     18 C17         4.4497    2.1595    2.1745 C.2       1 <0>        -0.1483
     19 C18         3.9893    2.8464    1.0750 C.2       1 <0>        -0.1610
     20 C19         2.7659    2.5454    0.5671 C.2       1 <0>        -0.2079
     21 S1          2.2133    1.2406    1.6525 S.3       1 <0>         0.1036
     22 C20         2.8880   -2.9110   -0.8578 C.3       1 <0>        -0.1367
     23 H1          2.5417   -0.1601   -1.0893 H         1 <0>         0.0636
     24 H2          1.7724   -1.0076   -2.4524 H         1 <0>         0.0627
     25 H3          0.7674   -0.2011   -1.2245 H         1 <0>         0.0594
     26 H4         -0.0461   -2.6106   -1.8288 H         1 <0>         0.1059
     27 H5          0.5277   -3.9189   -0.7428 H         1 <0>         0.0780
     28 H6          3.4764   -1.1509    1.5454 H         1 <0>         0.1224
     29 H7          0.4185   -1.2253    4.5558 H         1 <0>         0.1373
     30 H8         -1.5704   -0.6747    4.6582 H         1 <0>         0.0585
     31 H9         -2.8099   -1.9462    4.7808 H         1 <0>         0.0596
     32 H10        -1.0977   -2.3423    5.0632 H         1 <0>         0.0587
     33 H11        -2.4155   -1.3648    1.1121 H         1 <0>         0.0650
     34 H12        -3.5732   -1.3246    2.4635 H         1 <0>         0.0566
     35 H13        -2.2884   -0.0975    2.3555 H         1 <0>         0.0530
     36 H14        -1.3027   -4.1475    3.3203 H         1 <0>         0.0529
     37 H15        -2.9976   -3.6897    3.0269 H         1 <0>         0.0572
     38 H16        -1.8399   -3.7299    1.6755 H         1 <0>         0.0626
     39 H17         3.0670   -1.1544    5.1444 H         1 <0>         0.1348
     40 H18         4.7623    0.4777    4.4978 H         1 <0>         0.1398
     41 H19         5.4185    2.3790    2.5986 H         1 <0>         0.1320
     42 H20         4.5941    3.6172    0.6206 H         1 <0>         0.1279
     43 H21         2.2585    2.9817   -0.2806 H         1 <0>         0.1777
     44 H22         3.7861   -2.3567   -0.5855 H         1 <0>         0.0626
     45 H23         2.8359   -3.8288   -0.2720 H         1 <0>         0.0603
     46 H24         2.9215   -3.1586   -1.9188 H         1 <0>         0.0633
@<TRIPOS>BOND
     1    1    2 1
     2    1   23 1
     3    1   24 1
     4    1   25 1
     5    2    6 1
     6    2    3 1
     7    2   22 1
     8    3    4 1
     9    3   26 1
    10    3   27 1
    11    4    5 1
    12    5   10 ar
    13    5    6 ar
    14    6    7 ar
    15    7    8 ar
    16    7   28 1
    17    8    9 ar
    18    8   15 1
    19    9   10 ar
    20    9   29 1
    21   10   11 1
    22   11   12 1
    23   11   13 1
    24   11   14 1
    25   12   30 1
    26   12   31 1
    27   12   32 1
    28   13   33 1
    29   13   34 1
    30   13   35 1
    31   14   36 1
    32   14   37 1
    33   14   38 1
    34   15   16 2
    35   15   39 1
    36   16   17 1
    37   16   40 1
    38   17   21 1
    39   17   18 2
    40   18   19 1
    41   18   41 1
    42   19   20 2
    43   19   42 1
    44   20   21 1
    45   20   43 1
    46   22   44 1
    47   22   45 1
    48   22   46 1
@<TRIPOS>MOLECULE
CHEMBL262849
   29    30     0     0     0
SMALL
USER_CHARGES

@<TRIPOS>ATOM
      1 C1         -0.0225    1.8097    0.0120 C.3       1 <0>        -0.6498
      2 S1          0.0021   -0.0041    0.0020 S.o2      1 <0>         2.5005
      3 O1          0.8352   -0.4880    1.0465 O.2       1 <0>        -0.9349
      4 O2         -1.3147   -0.5105   -0.1678 O.2       1 <0>        -0.9347
      5 C2          0.8454   -0.4373   -1.4831 C.ar      1 <0>        -0.6544
      6 C3          0.1305   -0.6119   -2.6550 C.ar      1 <0>        -0.0213
      7 C4          0.7838   -0.9507   -3.8214 C.ar      1 <0>        -0.1149
      8 C5          2.1712   -1.1175   -3.8179 C.ar      1 <0>         0.0710
      9 C6          2.8865   -0.9395   -2.6307 C.ar      1 <0>        -0.1152
     10 C7          2.2201   -0.5957   -1.4731 C.ar      1 <0>        -0.0214
     11 C8          2.8566   -1.4696   -5.0249 C.1       1 <0>        -0.1220
     12 C9          3.4185   -1.7582   -6.0144 C.1       1 <0>        -0.0887
     13 C10         4.1039   -2.1104   -7.2215 C.ar      1 <0>        -0.0461
     14 C11         3.3958   -2.2858   -8.4182 C.ar      1 <0>        -0.0484
     15 C12         4.1056   -2.6257   -9.5557 C.ar      1 <0>        -0.1698
     16 C13         5.4784   -2.7802   -9.4770 C.ar      1 <0>         0.1118
     17 N1          6.1195   -2.6088   -8.3369 N.ar      1 <0>        -0.4809
     18 C14         5.4907   -2.2793   -7.2278 C.ar      1 <0>         0.1314
     19 H1          1.0001    2.1870    0.0043 H         1 <0>         0.1321
     20 H2         -0.5497    2.1708   -0.8711 H         1 <0>         0.1322
     21 H3         -0.5327    2.1613    0.9088 H         1 <0>         0.1347
     22 H4         -0.9418   -0.4830   -2.6561 H         1 <0>         0.1498
     23 H5          0.2245   -1.0870   -4.7352 H         1 <0>         0.1396
     24 H6          3.9589   -1.0668   -2.6206 H         1 <0>         0.1390
     25 H7          2.7720   -0.4538   -0.5557 H         1 <0>         0.1497
     26 H8          2.3238   -2.1593   -8.4513 H         1 <0>         0.1406
     27 H9          3.5934   -2.7694  -10.4956 H         1 <0>         0.1446
     28 H10         6.0344   -3.0459  -10.3640 H         1 <0>         0.1632
     29 H11         6.0510   -2.1432   -6.3146 H         1 <0>         0.1625
@<TRIPOS>BOND
     1    1    2 1
     2    1   19 1
     3    1   20 1
     4    1   21 1
     5    2    3 2
     6    2    4 2
     7    2    5 1
     8    5   10 ar
     9    5    6 ar
    10    6    7 ar
    11    6   22 1
    12    7    8 ar
    13    7   23 1
    14    8    9 ar
    15    8   11 1
    16    9   10 ar
    17    9   24 1
    18   10   25 1
    19   11   12 3
    20   12   13 1
    21   13   18 ar
    22   13   14 ar
    23   14   15 ar
    24   14   26 1
    25   15   16 ar
    26   15   27 1
    27   16   17 ar
    28   16   28 1
    29   17   18 ar
    30   18   29 1
@<TRIPOS>MOLECULE
CHEMBL597903
   53    57     0     0     0
SMALL
USER_CHARGES

@<TRIPOS>ATOM
      1 C1          1.6851    1.2463    0.9888 C.3       1 <0>        -0.6502
      2 S1          1.5865   -0.5547    0.7954 S.o2      1 <0>         2.4977
      3 O1          2.5951   -1.1862    1.5720 O.2       1 <0>        -0.9359
      4 O2          0.2340   -0.9826    0.8785 O.2       1 <0>        -0.9357
      5 C2          2.0517   -0.8566   -0.8770 C.ar      1 <0>        -0.6504
      6 C3          1.0872   -0.8701   -1.8687 C.ar      1 <0>        -0.0263
      7 C4          1.4455   -1.1060   -3.1802 C.ar      1 <0>        -0.1023
      8 C5          2.7828   -1.3306   -3.5052 C.ar      1 <0>         0.0117
      9 C6          3.7505   -1.3154   -2.5013 C.ar      1 <0>        -0.1086
     10 C7          3.3807   -1.0736   -1.1940 C.ar      1 <0>        -0.0240
     11 C8          3.1739   -1.5850   -4.9115 C.ar      1 <0>         0.2013
     12 C9          4.3145   -0.9409   -5.4382 C.ar      1 <0>        -0.0782
     13 C10         4.6833   -1.1817   -6.7647 C.ar      1 <0>         0.0316
     14 C11         3.8829   -2.0720   -7.5241 C.ar      1 <0>        -0.0850
     15 C12         4.1907   -2.3625   -8.8601 C.ar      1 <0>        -0.0942
     16 C13         3.4013   -3.2231   -9.5627 C.ar      1 <0>        -0.1103
     17 C14         2.2908   -3.8186   -8.9693 C.ar      1 <0>        -0.0960
     18 C15         1.9632   -3.5581   -7.6739 C.ar      1 <0>        -0.0914
     19 C16         2.7545   -2.6756   -6.9167 C.ar      1 <0>         0.1347
     20 N1          2.4526   -2.4116   -5.6415 N.ar      1 <0>        -0.4563
     21 C17         5.8707   -0.5279   -7.3576 C.ar      1 <0>        -0.0520
     22 C18         5.8852    0.8537   -7.5537 C.ar      1 <0>        -0.0894
     23 C19         6.9955    1.4572   -8.1071 C.ar      1 <0>        -0.1154
     24 C20         8.0929    0.6957   -8.4678 C.ar      1 <0>        -0.1094
     25 C21         8.0849   -0.6745   -8.2760 C.ar      1 <0>        -0.1169
     26 C22         6.9833   -1.2895   -7.7178 C.ar      1 <0>        -0.1005
     27 C23         5.1107   -0.0206   -4.5951 C.ar      1 <0>        -0.0389
     28 C24         6.4133   -0.3580   -4.2269 C.ar      1 <0>        -0.1001
     29 C25         7.1502    0.5039   -3.4410 C.ar      1 <0>        -0.1137
     30 C26         6.5997    1.7005   -3.0177 C.ar      1 <0>        -0.1123
     31 C27         5.3083    2.0407   -3.3790 C.ar      1 <0>        -0.1151
     32 C28         4.5635    1.1902   -4.1702 C.ar      1 <0>        -0.0995
     33 H1          2.7036    1.5782    0.7874 H         1 <0>         0.1319
     34 H2          1.0016    1.7250    0.2875 H         1 <0>         0.1319
     35 H3          1.4092    1.5179    2.0077 H         1 <0>         0.1337
     36 H4          0.0518   -0.6959   -1.6158 H         1 <0>         0.1462
     37 H5          0.6915   -1.1169   -3.9535 H         1 <0>         0.1376
     38 H6          4.7877   -1.4891   -2.7469 H         1 <0>         0.1361
     39 H7          4.1298   -1.0575   -0.4162 H         1 <0>         0.1451
     40 H8          5.0491   -1.9064   -9.3307 H         1 <0>         0.1323
     41 H9          3.6395   -3.4457  -10.5923 H         1 <0>         0.1311
     42 H10         1.6799   -4.4974   -9.5459 H         1 <0>         0.1339
     43 H11         1.0986   -4.0279   -7.2289 H         1 <0>         0.1391
     44 H12         5.0289    1.4492   -7.2732 H         1 <0>         0.1208
     45 H13         7.0080    2.5264   -8.2594 H         1 <0>         0.1255
     46 H14         8.9594    1.1728   -8.9013 H         1 <0>         0.1246
     47 H15         8.9446   -1.2634   -8.5600 H         1 <0>         0.1265
     48 H16         6.9802   -2.3585   -7.5641 H         1 <0>         0.1231
     49 H17         6.8439   -1.2922   -4.5562 H         1 <0>         0.1202
     50 H18         8.1587    0.2438   -3.1553 H         1 <0>         0.1247
     51 H19         7.1804    2.3717   -2.4023 H         1 <0>         0.1234
     52 H20         4.8839    2.9760   -3.0452 H         1 <0>         0.1240
     53 H21         3.5573    1.4592   -4.4559 H         1 <0>         0.1193
@<TRIPOS>BOND
     1    1    2 1
     2    1   33 1
     3    1   34 1
     4    1   35 1
     5    2    3 2
     6    2    4 2
     7    2    5 1
     8    5   10 ar
     9    5    6 ar
    10    6    7 ar
    11    6   36 1
    12    7    8 ar
    13    7   37 1
    14    8    9 ar
    15    8   11 1
    16    9   10 ar
    17    9   38 1
    18   10   39 1
    19   11   20 ar
    20   11   12 ar
    21   12   13 ar
    22   12   27 1
    23   13   14 ar
    24   13   21 1
    25   14   19 ar
    26   14   15 ar
    27   15   16 ar
    28   15   40 1
    29   16   17 ar
    30   16   41 1
    31   17   18 ar
    32   17   42 1
    33   18   19 ar
    34   18   43 1
    35   19   20 ar
    36   21   26 ar
    37   21   22 ar
    38   22   23 ar
    39   22   44 1
    40   23   24 ar
    41   23   45 1
    42   24   25 ar
    43   24   46 1
    44   25   26 ar
    45   25   47 1
    46   26   48 1
    47   27   32 ar
    48   27   28 ar
    49   28   29 ar
    50   28   49 1
    51   29   30 ar
    52   29   50 1
    53   30   31 ar
    54   30   51 1
    55   31   32 ar
    56   31   52 1
    57   32   53 1
@<TRIPOS>MOLECULE
CHEMBL110446
   43    46     0     0     0
SMALL
USER_CHARGES

@<TRIPOS>ATOM
      1 C1          0.7797    1.1345    0.7359 C.3       1 <0>        -0.6481
      2 S1          0.8505   -0.6691    0.5552 S.o2      1 <0>         2.4983
      3 O1          1.8374   -1.2095    1.4230 O.2       1 <0>        -0.9303
      4 O2         -0.4632   -1.2100    0.5262 O.2       1 <0>        -0.9307
      5 C2          1.4830   -0.9371   -1.0673 C.ar      1 <0>        -0.6489
      6 C3          0.6145   -1.0366   -2.1388 C.ar      1 <0>        -0.0039
      7 C4          1.1073   -1.2467   -3.4118 C.ar      1 <0>        -0.1265
      8 C5          2.4763   -1.3580   -3.6151 C.ar      1 <0>         0.1525
      9 C6          3.3458   -1.2576   -2.5374 C.ar      1 <0>        -0.1242
     10 C7          2.8473   -1.0419   -1.2675 C.ar      1 <0>        -0.0027
     11 N1          2.9793   -1.5716   -4.9055 N.pl3     1 <0>        -0.4116
     12 C8          2.6539   -2.6031   -5.7478 C.2       1 <0>         0.0412
     13 C9          3.3631   -2.4260   -6.8813 C.2       1 <0>        -0.0820
     14 N2          4.1052   -1.3207   -6.7480 N.2       1 <0>        -0.4273
     15 C10         3.8835   -0.7881   -5.5663 C.2       1 <0>         0.2811
     16 C11         4.5075    0.4448   -5.0414 C.ar      1 <0>        -0.0902
     17 C12         5.6871    0.9244   -5.5980 C.ar      1 <0>         0.0027
     18 C13         6.2384    2.1002   -5.0617 C.ar      1 <0>        -0.1036
     19 C14         7.4286    2.6458   -5.5725 C.ar      1 <0>        -0.0879
     20 C15         7.9336    3.7869   -5.0282 C.ar      1 <0>        -0.1129
     21 C16         7.2854    4.4216   -3.9705 C.ar      1 <0>        -0.0887
     22 C17         6.1313    3.9206   -3.4511 C.ar      1 <0>        -0.0967
     23 C18         5.5772    2.7445   -3.9854 C.ar      1 <0>         0.1352
     24 N3          4.4433    2.2352   -3.4916 N.ar      1 <0>        -0.4621
     25 C19         3.9095    1.1446   -3.9791 C.ar      1 <0>         0.1428
     26 C20         3.3266   -3.3219   -8.0925 C.3       1 <0>         0.5575
     27 F1          2.3314   -2.8789   -8.9704 F         1 <0>        -0.1699
     28 F2          4.5675   -3.2851   -8.7374 F         1 <0>        -0.1643
     29 F3          3.0468   -4.6335   -7.6941 F         1 <0>        -0.1706
     30 H1          1.7803    1.5509    0.6194 H         1 <0>         0.1351
     31 H2          0.1219    1.5506   -0.0271 H         1 <0>         0.1340
     32 H3          0.3944    1.3858    1.7241 H         1 <0>         0.1372
     33 H4         -0.4502   -0.9504   -1.9799 H         1 <0>         0.1590
     34 H5          0.4285   -1.3247   -4.2482 H         1 <0>         0.1477
     35 H6          4.4111   -1.3441   -2.6924 H         1 <0>         0.1438
     36 H7          3.5234   -0.9593   -0.4293 H         1 <0>         0.1582
     37 H8          1.9610   -3.4057   -5.5426 H         1 <0>         0.2007
     38 H9          6.1657    0.4089   -6.4175 H         1 <0>         0.1554
     39 H10         7.9399    2.1624   -6.3918 H         1 <0>         0.1364
     40 H11         8.8485    4.2054   -5.4210 H         1 <0>         0.1333
     41 H12         7.7059    5.3257   -3.5557 H         1 <0>         0.1347
     42 H13         5.6427    4.4253   -2.6307 H         1 <0>         0.1393
     43 H14         2.9904    0.7709   -3.5524 H         1 <0>         0.1571
@<TRIPOS>BOND
     1    1    2 1
     2    1   30 1
     3    1   31 1
     4    1   32 1
     5    2    3 2
     6    2    4 2
     7    2    5 1
     8    5   10 ar
     9    5    6 ar
    10    6    7 ar
    11    6   33 1
    12    7    8 ar
    13    7   34 1
    14    8    9 ar
    15    8   11 1
    16    9   10 ar
    17    9   35 1
    18   10   36 1
    19   11   15 1
    20   11   12 1
    21   12   13 2
    22   12   37 1
    23   13   14 1
    24   13   26 1
    25   14   15 2
    26   15   16 1
    27   16   25 ar
    28   16   17 ar
    29   17   18 ar
    30   17   38 1
    31   18   23 ar
    32   18   19 ar
    33   19   20 ar
    34   19   39 1
    35   20   21 ar
    36   20   40 1
    37   21   22 ar
    38   21   41 1
    39   22   23 ar
    40   22   42 1
    41   23   24 ar
    42   24   25 ar
    43   25   43 1
    44   26   27 1
    45   26   28 1
    46   26   29 1
@<TRIPOS>MOLECULE
CHEMBL597902
   45    48     0     0     0
SMALL
USER_CHARGES

@<TRIPOS>ATOM
      1 C1         -0.3970    2.4276   -0.6388 C.3       1 <0>        -0.6516
      2 S1         -0.3298    0.6273   -0.4267 S.o2      1 <0>         2.5007
      3 O1          0.4637    0.2972    0.7050 O.2       1 <0>        -0.9397
      4 O2         -1.6249    0.0663   -0.5919 O.2       1 <0>        -0.9414
      5 C2          0.5932    0.0426   -1.8090 C.ar      1 <0>        -0.6574
      6 C3         -0.0601   -0.2927   -2.9815 C.ar      1 <0>        -0.0320
      7 C4          0.6573   -0.7512   -4.0674 C.ar      1 <0>        -0.1036
      8 C5          2.0436   -0.8758   -3.9814 C.ar      1 <0>         0.0233
      9 C6          2.6965   -0.5358   -2.7970 C.ar      1 <0>        -0.1123
     10 C7          1.9688   -0.0739   -1.7194 C.ar      1 <0>        -0.0258
     11 C8          2.8196   -1.3679   -5.1436 C.ar      1 <0>         0.2036
     12 C9          4.1125   -0.8418   -5.3760 C.ar      1 <0>        -0.1099
     13 C10         4.8492   -1.3054   -6.4747 C.ar      1 <0>        -0.0148
     14 C11         4.2206   -2.3198   -7.3218 C.ar      1 <0>        -0.0889
     15 C12         4.8773   -2.8439   -8.4405 C.ar      1 <0>        -0.0665
     16 C13         4.2576   -3.7883   -9.2047 C.ar      1 <0>        -0.1326
     17 C14         2.9783   -4.2372   -8.8851 C.ar      1 <0>        -0.1012
     18 C15         2.3115   -3.7483   -7.8037 C.ar      1 <0>        -0.1026
     19 C16         2.9186   -2.7731   -6.9910 C.ar      1 <0>         0.1305
     20 N1          2.2874   -2.2825   -5.9220 N.ar      1 <0>        -0.4812
     21 C17         6.1988   -0.7930   -6.7647 C.2       1 <0>         0.5340
     22 O3          7.1812   -1.3714   -6.3208 O.co2     1 <0>        -0.6679
     23 O4          6.3378    0.2113   -7.4494 O.co2     1 <0>        -0.6674
     24 C18         4.6784    0.1833   -4.4726 C.ar      1 <0>        -0.0221
     25 C19         4.0845    1.4434   -4.3828 C.ar      1 <0>        -0.0996
     26 C20         4.6171    2.3948   -3.5377 C.ar      1 <0>        -0.1231
     27 C21         5.7377    2.1026   -2.7806 C.ar      1 <0>        -0.1228
     28 C22         6.3313    0.8555   -2.8649 C.ar      1 <0>        -0.1174
     29 C23         5.8054   -0.1069   -3.7016 C.ar      1 <0>        -0.0916
     30 H1          0.6158    2.8306   -0.6470 H         1 <0>         0.1327
     31 H2         -0.8898    2.6642   -1.5819 H         1 <0>         0.1314
     32 H3         -0.9573    2.8699    0.1849 H         1 <0>         0.1300
     33 H4         -1.1337   -0.1958   -3.0468 H         1 <0>         0.1420
     34 H5          0.1461   -1.0134   -4.9819 H         1 <0>         0.1385
     35 H6          3.7699   -0.6306   -2.7244 H         1 <0>         0.1444
     36 H7          2.4737    0.1936   -0.8030 H         1 <0>         0.1428
     37 H8          5.8690   -2.5022   -8.6977 H         1 <0>         0.1330
     38 H9          4.7647   -4.1927  -10.0682 H         1 <0>         0.1258
     39 H10         2.5075   -4.9854   -9.5056 H         1 <0>         0.1260
     40 H11         1.3199   -4.1073   -7.5706 H         1 <0>         0.1315
     41 H12         3.2102    1.6729   -4.9738 H         1 <0>         0.1158
     42 H13         4.1586    3.3701   -3.4673 H         1 <0>         0.1189
     43 H14         6.1512    2.8513   -2.1211 H         1 <0>         0.1184
     44 H15         7.2060    0.6339   -2.2714 H         1 <0>         0.1220
     45 H16         6.2672   -1.0813   -3.7635 H         1 <0>         0.1281
@<TRIPOS>BOND
     1    1    2 1
     2    1   30 1
     3    1   31 1
     4    1   32 1
     5    2    3 2
     6    2    4 2
     7    2    5 1
     8    5   10 ar
     9    5    6 ar
    10    6    7 ar
    11    6   33 1
    12    7    8 ar
    13    7   34 1
    14    8    9 ar
    15    8   11 1
    16    9   10 ar
    17    9   35 1
    18   10   36 1
    19   11   20 ar
    20   11   12 ar
    21   12   13 ar
    22   12   24 1
    23   13   14 ar
    24   13   21 1
    25   14   19 ar
    26   14   15 ar
    27   15   16 ar
    28   15   37 1
    29   16   17 ar
    30   16   38 1
    31   17   18 ar
    32   17   39 1
    33   18   19 ar
    34   18   40 1
    35   19   20 ar
    36   21   22 2
    37   21   23 1
    38   24   29 ar
    39   24   25 ar
    40   25   26 ar
    41   25   41 1
    42   26   27 ar
    43   26   42 1
    44   27   28 ar
    45   27   43 1
    46   28   29 ar
    47   28   44 1
    48   29   45 1
@<TRIPOS>MOLECULE
CHEMBL144728
   36    38     0     0     0
SMALL
USER_CHARGES

@<TRIPOS>ATOM
      1 C1          0.0105    1.8089    0.0312 C.3       1 <0>        -0.6363
      2 S1          0.0238   -0.0049    0.0145 S.o2      1 <0>         2.5314
      3 O1          0.8583   -0.4979    1.0536 O.2       1 <0>        -1.0219
      4 O2         -1.2968   -0.5025   -0.1517 O.2       1 <0>        -1.0219
      5 N1          0.8081   -0.4118   -1.3862 N.2       1 <0>        -1.0749
      6 C2          0.9949   -1.7506   -1.7151 C.ar      1 <0>         0.3511
      7 C3          0.5185   -2.7466   -0.8713 C.ar      1 <0>        -0.2514
      8 C4          0.6996   -4.0766   -1.1901 C.ar      1 <0>         0.0091
      9 C5          1.3646   -4.4311   -2.3668 C.ar      1 <0>        -0.2945
     10 C6          1.8466   -3.4227   -3.2205 C.ar      1 <0>        -0.0043
     11 C7          1.6574   -2.0947   -2.8982 C.ar      1 <0>        -0.1822
     12 S2          2.2562   -0.8328   -3.9724 S.3       1 <0>         0.0299
     13 C8          3.1457   -1.7146   -5.2117 C.ar      1 <0>        -0.1270
     14 C9          2.5230   -2.0549   -6.4065 C.ar      1 <0>        -0.0641
     15 C10         3.2229   -2.7455   -7.3759 C.ar      1 <0>        -0.1020
     16 C11         4.5430   -3.0992   -7.1584 C.ar      1 <0>        -0.0715
     17 C12         5.1658   -2.7622   -5.9695 C.ar      1 <0>        -0.1016
     18 C13         4.4732   -2.0662   -4.9987 C.ar      1 <0>        -0.0641
     19 Br1         5.4977   -4.0455   -8.4884 Br        1 <0>        -0.0571
     20 C14         1.4401   -5.8917   -2.4994 C.2       1 <0>         0.4129
     21 O3          1.9574   -6.4971   -3.4146 O.2       1 <0>        -0.4851
     22 C15         0.7629   -6.5093   -1.3004 C.3       1 <0>        -0.1684
     23 C16         0.2821   -5.3254   -0.4503 C.3       1 <0>        -0.0837
     24 H1          1.0354    2.1799    0.0206 H         1 <0>         0.1181
     25 H2         -0.5181    2.1766   -0.8483 H         1 <0>         0.1181
     26 H3         -0.4937    2.1603    0.9315 H         1 <0>         0.1043
     27 H4          0.0039   -2.4780    0.0394 H         1 <0>         0.1131
     28 H5          2.3616   -3.6883   -4.1318 H         1 <0>         0.1112
     29 H6          1.4925   -1.7798   -6.5766 H         1 <0>         0.1406
     30 H7          2.7395   -3.0103   -8.3046 H         1 <0>         0.1341
     31 H8          6.1960   -3.0402   -5.8025 H         1 <0>         0.1339
     32 H9          4.9613   -1.7993   -4.0729 H         1 <0>         0.1400
     33 H10        -0.0856   -7.1161   -1.6169 H         1 <0>         0.0974
     34 H11         1.4721   -7.1155   -0.7368 H         1 <0>         0.0973
     35 H12         0.7533   -5.3539    0.5322 H         1 <0>         0.0846
     36 H13        -0.8026   -5.3545   -0.3470 H         1 <0>         0.0847
@<TRIPOS>BOND
     1    1    2 1
     2    1   24 1
     3    1   25 1
     4    1   26 1
     5    2    3 2
     6    2    4 2
     7    2    5 1
     8    5    6 1
     9    6   11 ar
    10    6    7 ar
    11    7    8 ar
    12    7   27 1
    13    8   23 1
    14    8    9 ar
    15    9   10 ar
    16    9   20 1
    17   10   11 ar
    18   10   28 1
    19   11   12 1
    20   12   13 1
    21   13   18 ar
    22   13   14 ar
    23   14   15 ar
    24   14   29 1
    25   15   16 ar
    26   15   30 1
    27   16   17 ar
    28   16   19 1
    29   17   18 ar
    30   17   31 1
    31   18   32 1
    32   20   21 2
    33   20   22 1
    34   22   23 1
    35   22   33 1
    36   22   34 1
    37   23   35 1
    38   23   36 1
@<TRIPOS>MOLECULE
CHEMBL325804
   43    45     0     0     0
SMALL
USER_CHARGES

@<TRIPOS>ATOM
      1 C1         -0.2359    1.5269    0.0193 C.3       1 <0>        -0.1575
      2 C2         -0.0863    0.0043    0.0172 C.3       1 <0>         0.1327
      3 C3          0.7142   -0.4361   -1.1861 C.2       1 <0>        -0.0530
      4 C4          1.8163   -1.0596   -0.7080 C.2       1 <0>        -0.0144
      5 C5          1.7663   -1.0432    0.7558 C.2       1 <0>         0.4877
      6 O1          2.6098   -1.5229    1.4884 O.2       1 <0>        -0.4233
      7 O2          0.6487   -0.4181    1.1697 O.3       1 <0>        -0.2938
      8 O3          2.8053   -1.6091   -1.4610 O.3       1 <0>        -0.2118
      9 C6          2.9599   -2.9586   -1.4246 C.ar      1 <0>         0.1187
     10 C7          2.0515   -3.7435   -0.7285 C.ar      1 <0>        -0.1755
     11 C8          2.2104   -5.1151   -0.6927 C.ar      1 <0>        -0.0677
     12 C9          3.2749   -5.7066   -1.3499 C.ar      1 <0>        -0.0611
     13 C10         4.1821   -4.9258   -2.0442 C.ar      1 <0>        -0.0696
     14 C11         4.0231   -3.5544   -2.0881 C.ar      1 <0>        -0.1231
     15 Cl1         3.4727   -7.4307   -1.3028 Cl        1 <0>        -0.0610
     16 C12         0.3643   -0.2281   -2.5999 C.ar      1 <0>         0.0097
     17 C13         0.3456    1.0633   -3.1368 C.ar      1 <0>        -0.1147
     18 C14         0.0167    1.2499   -4.4628 C.ar      1 <0>        -0.0200
     19 C15        -0.2945    0.1636   -5.2619 C.ar      1 <0>        -0.6490
     20 C16        -0.2783   -1.1174   -4.7381 C.ar      1 <0>        -0.0174
     21 C17         0.0542   -1.3212   -3.4155 C.ar      1 <0>        -0.1086
     22 S1         -0.7141    0.4128   -6.9550 S.o2      1 <0>         2.4979
     23 O4         -1.4334   -0.7552   -7.3260 O.2       1 <0>        -0.9336
     24 O5         -1.3377    1.6892   -6.9899 O.2       1 <0>        -0.9329
     25 C18         0.8761    0.4702   -7.8258 C.3       1 <0>        -0.6496
     26 C19        -1.4654   -0.6581    0.0025 C.3       1 <0>        -0.1512
     27 H1          0.7513    1.9890    0.0297 H         1 <0>         0.0733
     28 H2         -0.7743    1.8403   -0.8751 H         1 <0>         0.0903
     29 H3         -0.7912    1.8363    0.9047 H         1 <0>         0.0884
     30 H4          1.2210   -3.2821   -0.2149 H         1 <0>         0.1268
     31 H5          1.5037   -5.7263   -0.1511 H         1 <0>         0.1410
     32 H6          5.0126   -5.3894   -2.5558 H         1 <0>         0.1469
     33 H7          4.7287   -2.9458   -2.6341 H         1 <0>         0.1459
     34 H8          0.5879    1.9120   -2.5144 H         1 <0>         0.1414
     35 H9          0.0015    2.2465   -4.8788 H         1 <0>         0.1499
     36 H10        -0.5223   -1.9600   -5.3681 H         1 <0>         0.1518
     37 H11         0.0711   -2.3218   -3.0094 H         1 <0>         0.1356
     38 H12         1.3670   -0.5000   -7.7502 H         1 <0>         0.1332
     39 H13         0.7071    0.7110   -8.8754 H         1 <0>         0.1358
     40 H14         1.5097    1.2341   -7.3752 H         1 <0>         0.1324
     41 H15        -2.0020   -0.3599   -0.8982 H         1 <0>         0.0893
     42 H16        -1.3482   -1.7417    0.0137 H         1 <0>         0.0712
     43 H17        -2.0285   -0.3444    0.8815 H         1 <0>         0.0892
@<TRIPOS>BOND
     1    1    2 1
     2    1   27 1
     3    1   28 1
     4    1   29 1
     5    2    7 1
     6    2    3 1
     7    2   26 1
     8    3    4 2
     9    3   16 1
    10    4    5 1
    11    4    8 1
    12    5    6 2
    13    5    7 1
    14    8    9 1
    15    9   14 ar
    16    9   10 ar
    17   10   11 ar
    18   10   30 1
    19   11   12 ar
    20   11   31 1
    21   12   13 ar
    22   12   15 1
    23   13   14 ar
    24   13   32 1
    25   14   33 1
    26   16   21 ar
    27   16   17 ar
    28   17   18 ar
    29   17   34 1
    30   18   19 ar
    31   18   35 1
    32   19   20 ar
    33   19   22 1
    34   20   21 ar
    35   20   36 1
    36   21   37 1
    37   22   23 2
    38   22   24 2
    39   22   25 1
    40   25   38 1
    41   25   39 1
    42   25   40 1
    43   26   41 1
    44   26   42 1
    45   26   43 1
@<TRIPOS>MOLECULE
CHEMBL275843
   43    46     0     0     0
SMALL
USER_CHARGES

@<TRIPOS>ATOM
      1 C1          0.8982   -1.1563    1.3481 C.3       1 <0>        -0.6500
      2 S1         -0.0073   -0.2506    0.0635 S.o2      1 <0>         2.4978
      3 O1         -1.3049   -0.8052   -0.1039 O.2       1 <0>        -0.9344
      4 O2          0.1654    1.1491    0.2374 O.2       1 <0>        -0.9339
      5 C2          0.8386   -0.6251   -1.4362 C.ar      1 <0>        -0.6524
      6 C3          1.8875    0.1753   -1.8534 C.ar      1 <0>        -0.0183
      7 C4          2.5539   -0.1116   -3.0264 C.ar      1 <0>        -0.1074
      8 C5          2.1679   -1.2134   -3.7936 C.ar      1 <0>         0.0492
      9 C6          1.1085   -2.0172   -3.3660 C.ar      1 <0>        -0.1212
     10 C7          0.4545   -1.7214   -2.1881 C.ar      1 <0>        -0.0181
     11 C8          2.8758   -1.5264   -5.0501 C.2       1 <0>        -0.1478
     12 C9          4.2447   -1.6120   -5.3043 C.2       1 <0>         0.1275
     13 N1          4.6449   -1.9108   -6.5226 N.2       1 <0>        -0.4831
     14 C10         3.7820   -2.1296   -7.5020 C.2       1 <0>         0.1584
     15 S2          2.2167   -1.9092   -6.6679 S.3       1 <0>         0.0721
     16 C11         4.0442   -2.4720   -8.9158 C.ar      1 <0>        -0.0744
     17 C12         5.3568   -2.6131   -9.3824 C.ar      1 <0>        -0.0248
     18 C13         5.5481   -2.9349  -10.7143 C.ar      1 <0>        -0.1701
     19 C14         4.4473   -3.1053  -11.5348 C.ar      1 <0>         0.1197
     20 N2          3.2216   -2.9656  -11.0676 N.ar      1 <0>        -0.4772
     21 C15         2.9878   -2.6657   -9.8067 C.ar      1 <0>         0.1340
     22 C16         5.2295   -1.3708   -4.2240 C.ar      1 <0>        -0.0400
     23 C17         5.0223   -1.9110   -2.9550 C.ar      1 <0>        -0.0659
     24 C18         5.9425   -1.6839   -1.9526 C.ar      1 <0>        -0.1530
     25 C19         7.0710   -0.9206   -2.2049 C.ar      1 <0>         0.1114
     26 C20         7.2813   -0.3817   -3.4640 C.ar      1 <0>        -0.1539
     27 C21         6.3696   -0.6075   -4.4744 C.ar      1 <0>        -0.0542
     28 F1          7.9691   -0.7006   -1.2198 F         1 <0>        -0.1354
     29 H1          0.8732   -2.2233    1.1267 H         1 <0>         0.1324
     30 H2          1.9330   -0.8146    1.3727 H         1 <0>         0.1326
     31 H3          0.4327   -0.9753    2.3170 H         1 <0>         0.1349
     32 H4          2.1849    1.0268   -1.2593 H         1 <0>         0.1493
     33 H5          3.3719    0.5143   -3.3512 H         1 <0>         0.1371
     34 H6          0.8048   -2.8705   -3.9542 H         1 <0>         0.1373
     35 H7         -0.3619   -2.3445   -1.8541 H         1 <0>         0.1496
     36 H8          6.1982   -2.4741   -8.7198 H         1 <0>         0.1486
     37 H9          6.5464   -3.0515  -11.1095 H         1 <0>         0.1472
     38 H10         4.5938   -3.3565  -12.5749 H         1 <0>         0.1658
     39 H11         1.9699   -2.5642   -9.4603 H         1 <0>         0.1590
     40 H12         4.1428   -2.5058   -2.7574 H         1 <0>         0.1326
     41 H13         5.7828   -2.1015   -0.9695 H         1 <0>         0.1405
     42 H14         8.1623    0.2128   -3.6557 H         1 <0>         0.1411
     43 H15         6.5366   -0.1908   -5.4567 H         1 <0>         0.1372
@<TRIPOS>BOND
     1    1    2 1
     2    1   29 1
     3    1   30 1
     4    1   31 1
     5    2    3 2
     6    2    4 2
     7    2    5 1
     8    5   10 ar
     9    5    6 ar
    10    6    7 ar
    11    6   32 1
    12    7    8 ar
    13    7   33 1
    14    8    9 ar
    15    8   11 1
    16    9   10 ar
    17    9   34 1
    18   10   35 1
    19   11   15 1
    20   11   12 2
    21   12   13 1
    22   12   22 1
    23   13   14 2
    24   14   15 1
    25   14   16 1
    26   16   21 ar
    27   16   17 ar
    28   17   18 ar
    29   17   36 1
    30   18   19 ar
    31   18   37 1
    32   19   20 ar
    33   19   38 1
    34   20   21 ar
    35   21   39 1
    36   22   27 ar
    37   22   23 ar
    38   23   24 ar
    39   23   40 1
    40   24   25 ar
    41   24   41 1
    42   25   26 ar
    43   25   28 1
    44   26   27 ar
    45   26   42 1
    46   27   43 1
@<TRIPOS>MOLECULE
CHEMBL55737
   39    41     0     0     0
SMALL
USER_CHARGES

@<TRIPOS>ATOM
      1 C1         -0.0184    1.5028    0.0103 C.3       1 <0>        -0.1097
      2 C2          0.0021   -0.0041    0.0020 C.ar      1 <0>        -0.1043
      3 C3          0.0058   -0.6852   -1.1956 C.ar      1 <0>        -0.0986
      4 C4          0.0252   -2.0834   -1.2019 C.ar      1 <0>        -0.0575
      5 C5          0.0408   -2.7833    0.0085 C.ar      1 <0>        -0.1047
      6 C6          0.0370   -2.0930    1.2009 C.ar      1 <0>        -0.1036
      7 C7          0.0230   -0.7039    1.2018 C.ar      1 <0>         0.1028
      8 O1          0.0245   -0.0276    2.3801 O.3       1 <0>        -0.4913
      9 C8          0.0533   -2.8460    2.5061 C.3       1 <0>        -0.1099
     10 C9          0.0287   -2.8163   -2.4791 C.2       1 <0>        -0.1001
     11 C10         0.0474   -4.1616   -2.4826 C.2       1 <0>        -0.1061
     12 C11         0.0509   -4.8931   -3.7573 C.ar      1 <0>        -0.0442
     13 C12         0.0410   -4.2097   -4.9683 C.ar      1 <0>        -0.1104
     14 C13         0.0444   -4.9036   -6.1701 C.ar      1 <0>        -0.1138
     15 C14         0.0579   -6.2642   -6.2141 C.ar      1 <0>        -0.1043
     16 C15         0.0690   -7.0199   -5.0298 C.ar      1 <0>        -0.0513
     17 C16         0.0712   -6.3548   -3.7793 C.ar      1 <0>        -0.0411
     18 C17         0.0868   -7.1041   -2.5971 C.ar      1 <0>        -0.1076
     19 C18         0.1050   -8.4656   -2.6626 C.ar      1 <0>        -0.1136
     20 C19         0.1087   -9.1229   -3.8906 C.ar      1 <0>        -0.1172
     21 C20         0.0830   -8.4252   -5.0596 C.ar      1 <0>        -0.1048
     22 H1          1.0042    1.8801    0.0026 H         1 <0>         0.0731
     23 H2         -0.5455    1.8639   -0.8728 H         1 <0>         0.0668
     24 H3         -0.5286    1.8543    0.9071 H         1 <0>         0.0681
     25 H4         -0.0067   -0.1402   -2.1279 H         1 <0>         0.1290
     26 H5          0.0555   -3.8632    0.0088 H         1 <0>         0.1280
     27 H6         -0.8584    0.1558    2.7294 H         1 <0>         0.3869
     28 H7          1.0848   -3.0136    2.8161 H         1 <0>         0.0732
     29 H8         -0.4650   -2.2637    3.2680 H         1 <0>         0.0684
     30 H9         -0.4482   -3.8054    2.3784 H         1 <0>         0.0663
     31 H10         0.0163   -2.2740   -3.4129 H         1 <0>         0.1253
     32 H11         0.0599   -4.7039   -1.5487 H         1 <0>         0.1243
     33 H12         0.0301   -3.1298   -4.9736 H         1 <0>         0.1273
     34 H13         0.0357   -4.3486   -7.0965 H         1 <0>         0.1244
     35 H14         0.0598   -6.7680   -7.1695 H         1 <0>         0.1265
     36 H15         0.0848   -6.6065   -1.6386 H         1 <0>         0.1263
     37 H16         0.1170   -9.0426   -1.7497 H         1 <0>         0.1246
     38 H17         0.1236  -10.2025   -3.9159 H         1 <0>         0.1243
     39 H18         0.0851   -8.9484   -6.0044 H         1 <0>         0.1284
@<TRIPOS>BOND
     1    1    2 1
     2    1   22 1
     3    1   23 1
     4    1   24 1
     5    2    7 ar
     6    2    3 ar
     7    3    4 ar
     8    3   25 1
     9    4    5 ar
    10    4   10 1
    11    5    6 ar
    12    5   26 1
    13    6    7 ar
    14    6    9 1
    15    7    8 1
    16    8   27 1
    17    9   28 1
    18    9   29 1
    19    9   30 1
    20   10   11 2
    21   10   31 1
    22   11   12 1
    23   11   32 1
    24   12   17 ar
    25   12   13 ar
    26   13   14 ar
    27   13   33 1
    28   14   15 ar
    29   14   34 1
    30   15   16 ar
    31   15   35 1
    32   16   21 ar
    33   16   17 ar
    34   17   18 ar
    35   18   19 ar
    36   18   36 1
    37   19   20 ar
    38   19   37 1
    39   20   21 ar
    40   20   38 1
    41   21   39 1
@<TRIPOS>MOLECULE
CHEMBL462911
   43    44     0     0     0
SMALL
USER_CHARGES

@<TRIPOS>ATOM
      1 C1         -0.0187    1.5258    0.0104 C.3       1 <0>        -0.1511
      2 C2          0.0021   -0.0041    0.0020 C.3       1 <0>        -0.0218
      3 C3          0.7421   -0.5109    1.2415 C.3       1 <0>        -0.1437
      4 C4         -1.4333   -0.5336    0.0129 C.3       1 <0>        -0.1438
      5 C5          0.7074   -0.4901   -1.2379 C.ar      1 <0>        -0.0912
      6 C6          1.2149    0.4181   -2.1415 C.ar      1 <0>        -0.0712
      7 C7          1.8682   -0.0331   -3.2900 C.ar      1 <0>        -0.0594
      8 C8          2.0048   -1.4038   -3.5181 C.ar      1 <0>        -0.0638
      9 C9          1.4947   -2.3058   -2.6097 C.ar      1 <0>        -0.0915
     10 C10         0.8503   -1.8529   -1.4655 C.ar      1 <0>         0.1561
     11 O1          0.3541   -2.7449   -0.5696 O.3       1 <0>        -0.4811
     12 C11         1.6410   -3.7855   -2.8552 C.3       1 <0>        -0.0214
     13 C12         2.3877   -4.0127   -4.1712 C.3       1 <0>        -0.1517
     14 C13         2.4290   -4.4176   -1.7061 C.3       1 <0>        -0.1439
     15 C14         0.2551   -4.4283   -2.9376 C.3       1 <0>        -0.1436
     16 C15         2.4135    0.9376   -4.2619 C.2       1 <0>         0.0840
     17 C16         3.0635    0.6272   -5.4170 C.2       1 <0>        -0.2322
     18 C17         3.6082    1.4486   -6.3875 C.2       1 <0>         0.1337
     19 S1          4.4078    0.9303   -7.8097 S.2       1 <0>        -0.3380
     20 S2          3.3300    3.1512   -5.8972 S.3       1 <0>         0.0212
     21 S3          2.3236    2.7228   -4.1226 S.3       1 <0>         0.0080
     22 H1          1.0039    1.9031    0.0027 H         1 <0>         0.0595
     23 H2         -0.5459    1.8868   -0.8726 H         1 <0>         0.0588
     24 H3         -0.5289    1.8773    0.9072 H         1 <0>         0.0650
     25 H4          0.2319   -0.1594    2.1383 H         1 <0>         0.0583
     26 H5          0.7568   -1.6008    1.2356 H         1 <0>         0.0763
     27 H6          1.7647   -0.1336    1.2338 H         1 <0>         0.0529
     28 H7         -1.9605   -0.1726   -0.8702 H         1 <0>         0.0562
     29 H8         -1.4185   -1.6235    0.0069 H         1 <0>         0.0589
     30 H9         -1.9435   -0.1821    0.9097 H         1 <0>         0.0648
     31 H10         1.1070    1.4776   -1.9619 H         1 <0>         0.1383
     32 H11         2.5092   -1.7566   -4.4055 H         1 <0>         0.1426
     33 H12        -0.5589   -3.0113   -0.7443 H         1 <0>         0.3900
     34 H13         3.3750   -3.5547   -4.1125 H         1 <0>         0.0606
     35 H14         2.4936   -5.0829   -4.3487 H         1 <0>         0.0649
     36 H15         1.8263   -3.5624   -4.9898 H         1 <0>         0.0599
     37 H16         1.8971   -4.2557   -0.7686 H         1 <0>         0.0759
     38 H17         2.5349   -5.4878   -1.8836 H         1 <0>         0.0583
     39 H18         3.4163   -3.9596   -1.6474 H         1 <0>         0.0530
     40 H19        -0.3062   -3.9780   -3.7562 H         1 <0>         0.0565
     41 H20         0.3610   -5.4986   -3.1151 H         1 <0>         0.0650
     42 H21        -0.2768   -4.2665   -2.0001 H         1 <0>         0.0581
     43 H22         3.1717   -0.4307   -5.6058 H         1 <0>         0.1725
@<TRIPOS>BOND
     1    1    2 1
     2    1   22 1
     3    1   23 1
     4    1   24 1
     5    2    3 1
     6    2    4 1
     7    2    5 1
     8    3   25 1
     9    3   26 1
    10    3   27 1
    11    4   28 1
    12    4   29 1
    13    4   30 1
    14    5   10 ar
    15    5    6 ar
    16    6    7 ar
    17    6   31 1
    18    7    8 ar
    19    7   16 1
    20    8    9 ar
    21    8   32 1
    22    9   10 ar
    23    9   12 1
    24   10   11 1
    25   11   33 1
    26   12   13 1
    27   12   14 1
    28   12   15 1
    29   13   34 1
    30   13   35 1
    31   13   36 1
    32   14   37 1
    33   14   38 1
    34   14   39 1
    35   15   40 1
    36   15   41 1
    37   15   42 1
    38   16   21 1
    39   16   17 2
    40   17   18 1
    41   17   43 1
    42   18   19 2
    43   18   20 1
    44   20   21 1
@<TRIPOS>MOLECULE
CHEMBL158310
   50    52     0     0     0
SMALL
USER_CHARGES

@<TRIPOS>ATOM
      1 C1         -0.2012    1.4874    0.0184 C.3       1 <0>        -0.1291
      2 C2         -0.0874   -0.0153    0.0085 C.2       1 <0>        -0.0951
      3 C3          0.1206   -0.6637    1.1276 C.2       1 <0>        -0.1964
      4 C4          0.1232    0.0784    2.4392 C.3       1 <0>         0.1534
      5 N1         -0.8365   -0.5442    3.3544 N.am      1 <0>        -0.4007
      6 C5         -0.4302   -1.5334    4.1746 C.2       1 <0>         0.5068
      7 O1          0.7302   -1.9100    4.1573 O.2       1 <0>        -0.5175
      8 C6         -1.3633   -2.1320    5.0579 C.2       1 <0>        -0.0756
      9 C7         -2.6825   -1.6750    5.0503 C.2       1 <0>        -0.0183
     10 C8         -3.0463   -0.6361    4.1683 C.2       1 <0>         0.0852
     11 N2         -2.1626   -0.1021    3.3717 N.2       1 <0>        -0.2037
     12 C9         -3.6877   -2.2739    5.9570 C.ar      1 <0>        -0.0037
     13 C10        -4.0550   -3.6119    5.8096 C.ar      1 <0>        -0.1090
     14 C11        -4.9922   -4.1643    6.6581 C.ar      1 <0>        -0.0184
     15 C12        -5.5673   -3.3946    7.6536 C.ar      1 <0>        -0.6511
     16 C13        -5.2073   -2.0673    7.8050 C.ar      1 <0>        -0.0190
     17 C14        -4.2675   -1.5044    6.9662 C.ar      1 <0>        -0.1186
     18 S1         -6.7638   -4.1076    8.7328 S.o2      1 <0>         2.4971
     19 O2         -7.5598   -3.0128    9.1655 O.2       1 <0>        -0.9346
     20 O3         -7.3388   -5.1704    7.9852 O.2       1 <0>        -0.9345
     21 C15        -5.8031   -4.7691   10.1220 C.3       1 <0>        -0.6501
     22 C16        -0.9474   -3.2203    5.9699 C.ar      1 <0>        -0.0509
     23 C17        -0.9795   -3.0267    7.3517 C.ar      1 <0>        -0.0640
     24 C18        -0.5912   -4.0446    8.1973 C.ar      1 <0>        -0.1530
     25 C19        -0.1693   -5.2580    7.6772 C.ar      1 <0>         0.1108
     26 C20        -0.1351   -5.4553    6.3058 C.ar      1 <0>        -0.1506
     27 C21        -0.5272   -4.4461    5.4515 C.ar      1 <0>        -0.0546
     28 F1          0.2104   -6.2518    8.5099 F         1 <0>        -0.1356
     29 C22        -0.2129   -0.7719   -1.2887 C.3       1 <0>        -0.1218
     30 H1          0.6843    1.9158    0.4879 H         1 <0>         0.0694
     31 H2         -0.2821    1.8524   -1.0055 H         1 <0>         0.0665
     32 H3         -1.0882    1.7809    0.5799 H         1 <0>         0.0744
     33 H4          0.2903   -1.7302    1.1102 H         1 <0>         0.1127
     34 H5          1.1206    0.0392    2.8769 H         1 <0>         0.1078
     35 H6         -0.1585    1.1176    2.2692 H         1 <0>         0.1043
     36 H7         -4.0646   -0.2765    4.1560 H         1 <0>         0.1982
     37 H8         -3.6070   -4.2136    5.0327 H         1 <0>         0.1348
     38 H9         -5.2776   -5.1997    6.5448 H         1 <0>         0.1472
     39 H10        -5.6602   -1.4716    8.5837 H         1 <0>         0.1485
     40 H11        -3.9842   -0.4694    7.0880 H         1 <0>         0.1391
     41 H12        -5.2569   -3.9587   10.6047 H         1 <0>         0.1324
     42 H13        -6.4775   -5.2322   10.8423 H         1 <0>         0.1349
     43 H14        -5.0976   -5.5140    9.7538 H         1 <0>         0.1323
     44 H15        -1.3074   -2.0813    7.7580 H         1 <0>         0.1324
     45 H16        -0.6157   -3.8959    9.2667 H         1 <0>         0.1403
     46 H17         0.1948   -6.4026    5.9056 H         1 <0>         0.1413
     47 H18        -0.5044   -4.6024    4.3831 H         1 <0>         0.1330
     48 H19         0.7715   -0.8766   -1.7450 H         1 <0>         0.0710
     49 H20        -0.6300   -1.7600   -1.0941 H         1 <0>         0.0632
     50 H21        -0.8709   -0.2266   -1.9653 H         1 <0>         0.0686
@<TRIPOS>BOND
     1    1    2 1
     2    1   30 1
     3    1   31 1
     4    1   32 1
     5    2    3 2
     6    2   29 1
     7    3    4 1
     8    3   33 1
     9    4    5 1
    10    4   34 1
    11    4   35 1
    12    5   11 1
    13    5    6 am
    14    6    7 2
    15    6    8 1
    16    8    9 2
    17    8   22 1
    18    9   10 1
    19    9   12 1
    20   10   11 2
    21   10   36 1
    22   12   17 ar
    23   12   13 ar
    24   13   14 ar
    25   13   37 1
    26   14   15 ar
    27   14   38 1
    28   15   16 ar
    29   15   18 1
    30   16   17 ar
    31   16   39 1
    32   17   40 1
    33   18   19 2
    34   18   20 2
    35   18   21 1
    36   21   41 1
    37   21   42 1
    38   21   43 1
    39   22   27 ar
    40   22   23 ar
    41   23   24 ar
    42   23   44 1
    43   24   25 ar
    44   24   45 1
    45   25   26 ar
    46   25   28 1
    47   26   27 ar
    48   26   46 1
    49   27   47 1
    50   29   48 1
    51   29   49 1
    52   29   50 1
@<TRIPOS>MOLECULE
CHEMBL306946
   27    30     0     0     0
SMALL
USER_CHARGES

@<TRIPOS>ATOM
      1 C1         -0.0166    1.3762    0.0096 C.ar      1 <0>        -0.1140
      2 C2          1.1685    2.0983    0.0022 C.ar      1 <0>        -0.0755
      3 C3          2.3865    1.4546   -0.0133 C.ar      1 <0>        -0.0831
      4 C4          2.4312    0.0570   -0.0212 C.ar      1 <0>         0.1285
      5 C5          1.2207   -0.6742   -0.0131 C.ar      1 <0>        -0.1718
      6 C6          0.0021   -0.0041    0.0020 C.ar      1 <0>        -0.0440
      7 C7          1.2998   -2.1436   -0.0212 C.2       1 <0>         0.5575
      8 O1          0.2937   -2.8277   -0.0153 O.2       1 <0>        -0.4850
      9 N1          2.5339   -2.7104   -0.0361 N.am      1 <0>        -0.4971
     10 C8          3.6546   -1.9175   -0.0430 C.2       1 <0>         0.3130
     11 N2          3.5985   -0.6109   -0.0359 N.2       1 <0>        -0.4274
     12 C9          4.8385   -2.8231   -0.0590 C.2       1 <0>         0.4657
     13 O2          6.0111   -2.5038   -0.0684 O.2       1 <0>        -0.3701
     14 C10         4.2828   -4.1893   -0.0605 C.ar      1 <0>        -0.2077
     15 C11         2.8873   -4.0633   -0.0463 C.ar      1 <0>         0.1651
     16 C12         2.1035   -5.2101   -0.0452 C.ar      1 <0>        -0.1198
     17 C13         2.6990   -6.4573   -0.0575 C.ar      1 <0>        -0.0507
     18 C14         4.0780   -6.5802   -0.0711 C.ar      1 <0>        -0.1367
     19 C15         4.8739   -5.4526   -0.0733 C.ar      1 <0>        -0.0110
     20 H1         -0.9617    1.8987    0.0260 H         1 <0>         0.1425
     21 H2          1.1356    3.1777    0.0082 H         1 <0>         0.1439
     22 H3          3.3025    2.0268   -0.0197 H         1 <0>         0.1491
     23 H4         -0.9238   -0.5601    0.0075 H         1 <0>         0.1455
     24 H5          1.0268   -5.1271   -0.0344 H         1 <0>         0.1468
     25 H6          2.0829   -7.3443   -0.0562 H         1 <0>         0.1449
     26 H7          4.5318   -7.5602   -0.0802 H         1 <0>         0.1448
     27 H8          5.9496   -5.5480   -0.0846 H         1 <0>         0.1467
@<TRIPOS>BOND
     1    1    6 ar
     2    1    2 ar
     3    1   20 1
     4    2    3 ar
     5    2   21 1
     6    3    4 ar
     7    3   22 1
     8    4   11 1
     9    4    5 ar
    10    5    6 ar
    11    5    7 1
    12    6   23 1
    13    7    8 2
    14    7    9 am
    15    9   15 1
    16    9   10 1
    17   10   11 2
    18   10   12 1
    19   12   13 2
    20   12   14 1
    21   14   19 ar
    22   14   15 ar
    23   15   16 ar
    24   16   17 ar
    25   16   24 1
    26   17   18 ar
    27   17   25 1
    28   18   19 ar
    29   18   26 1
    30   19   27 1
@<TRIPOS>MOLECULE
CHEMBL292136
   32    33     0     0     0
SMALL
USER_CHARGES

@<TRIPOS>ATOM
      1 C1         -0.0184    1.5028    0.0103 C.3       1 <0>        -0.1097
      2 C2          0.0021   -0.0041    0.0020 C.ar      1 <0>        -0.1033
      3 C3          0.0057   -0.6888   -1.1978 C.ar      1 <0>        -0.1080
      4 C4          0.0244   -2.0713   -1.2061 C.ar      1 <0>        -0.0834
      5 C5          0.0395   -2.7720   -0.0142 C.ar      1 <0>        -0.1082
      6 C6          0.0359   -2.0919    1.1883 C.ar      1 <0>        -0.1031
      7 C7          0.0230   -0.7047    1.1992 C.ar      1 <0>         0.0971
      8 O1          0.0255   -0.0333    2.3808 O.3       1 <0>        -0.4921
      9 C8          0.0523   -2.8562    2.4870 C.3       1 <0>        -0.1098
     10 C9          0.0279   -2.8157   -2.5164 C.3       1 <0>        -0.0736
     11 C10         1.4714   -3.0481   -2.9671 C.3       1 <0>        -0.0308
     12 C11         1.4748   -3.7925   -4.2774 C.2       1 <0>        -0.1361
     13 C12         1.4673   -3.2987   -5.5397 C.2       1 <0>        -0.1618
     14 C13         1.4734   -4.1802   -6.6044 C.2       1 <0>        -0.1552
     15 C14         1.4866   -5.5124   -6.3547 C.2       1 <0>        -0.1756
     16 S1          1.4978   -5.5535   -4.5699 S.3       1 <0>         0.0290
     17 H1          1.0042    1.8801    0.0026 H         1 <0>         0.0724
     18 H2         -0.5455    1.8639   -0.8728 H         1 <0>         0.0661
     19 H3         -0.5286    1.8543    0.9071 H         1 <0>         0.0673
     20 H4         -0.0064   -0.1438   -2.1301 H         1 <0>         0.1258
     21 H5          0.0538   -3.8518   -0.0233 H         1 <0>         0.1258
     22 H6         -0.8570    0.1493    2.7313 H         1 <0>         0.3859
     23 H7          1.0838   -3.0266    2.7953 H         1 <0>         0.0725
     24 H8         -0.4658   -2.2805    3.2539 H         1 <0>         0.0673
     25 H9         -0.4492   -3.8144    2.3510 H         1 <0>         0.0662
     26 H10        -0.4723   -3.7759   -2.3901 H         1 <0>         0.0769
     27 H11        -0.4978   -2.2284   -3.2693 H         1 <0>         0.0778
     28 H12         1.9716   -2.0879   -3.0934 H         1 <0>         0.0886
     29 H13         1.9971   -3.6354   -2.2142 H         1 <0>         0.0815
     30 H14         1.4564   -2.2324   -5.7110 H         1 <0>         0.1322
     31 H15         1.4672   -3.8130   -7.6200 H         1 <0>         0.1332
     32 H16         1.4929   -6.3354   -7.0540 H         1 <0>         0.1850
@<TRIPOS>BOND
     1    1    2 1
     2    1   17 1
     3    1   18 1
     4    1   19 1
     5    2    7 ar
     6    2    3 ar
     7    3    4 ar
     8    3   20 1
     9    4    5 ar
    10    4   10 1
    11    5    6 ar
    12    5   21 1
    13    6    7 ar
    14    6    9 1
    15    7    8 1
    16    8   22 1
    17    9   23 1
    18    9   24 1
    19    9   25 1
    20   10   11 1
    21   10   26 1
    22   10   27 1
    23   11   12 1
    24   11   28 1
    25   11   29 1
    26   12   16 1
    27   12   13 2
    28   13   14 1
    29   13   30 1
    30   14   15 2
    31   14   31 1
    32   15   16 1
    33   15   32 1
@<TRIPOS>MOLECULE
CHEMBL424440
   46    48     0     0     0
SMALL
USER_CHARGES

@<TRIPOS>ATOM
      1 C1         -1.4787    1.0116    0.4831 C.3       1 <0>        -0.1329
      2 C2         -1.2037   -0.4935    0.4881 C.3       1 <0>        -0.0506
      3 C3         -0.5537   -0.9413   -0.8424 C.3       1 <0>         0.0553
      4 O1          0.3704   -1.9581   -0.4200 O.3       1 <0>        -0.2946
      5 C4          0.7608   -1.7090    0.8590 C.ar      1 <0>         0.1394
      6 C5         -0.1260   -0.8445    1.4961 C.ar      1 <0>        -0.1699
      7 C6          0.0700   -0.4677    2.8008 C.ar      1 <0>         0.0051
      8 C7          1.1804   -0.9496    3.5063 C.ar      1 <0>        -0.1312
      9 C8          2.0788   -1.8126    2.8679 C.ar      1 <0>        -0.0558
     10 C9          1.8689   -2.1852    1.5616 C.ar      1 <0>        -0.1024
     11 C10         2.8422   -3.1145    0.8831 C.3       1 <0>        -0.0208
     12 C11         3.9580   -3.4873    1.8613 C.3       1 <0>        -0.1459
     13 C12         2.1106   -4.3820    0.4369 C.3       1 <0>        -0.1401
     14 C13         3.4461   -2.4177   -0.3378 C.3       1 <0>        -0.1410
     15 C14         1.4003   -0.5521    4.9039 C.2       1 <0>         0.0423
     16 C15         1.1789    0.7246    5.2859 C.2       1 <0>        -0.2560
     17 C16         1.1884    1.2698    6.7051 C.3       1 <0>        -0.1190
     18 C17         1.2671    2.7955    6.4649 C.3       1 <0>         0.0524
     19 O2          0.6867    2.9535    5.1589 O.3       1 <0>        -0.3400
     20 C18         0.8958    1.8324    4.4428 C.2       1 <0>         0.5075
     21 O3          0.8453    1.7748    3.2288 O.2       1 <0>        -0.4466
     22 C19        -2.4868   -1.2803    0.7629 C.3       1 <0>        -0.1346
     23 H1         -0.5661    1.5468    0.2205 H         1 <0>         0.0623
     24 H2         -2.2551    1.2367   -0.2480 H         1 <0>         0.0610
     25 H3         -1.8106    1.3236    1.4733 H         1 <0>         0.0622
     26 H4         -1.3023   -1.3564   -1.5172 H         1 <0>         0.1071
     27 H5         -0.0261   -0.1116   -1.3127 H         1 <0>         0.0794
     28 H6         -0.6298    0.1991    3.2826 H         1 <0>         0.1196
     29 H7          2.9390   -2.1867    3.4032 H         1 <0>         0.1380
     30 H8          3.5277   -3.9837    2.7312 H         1 <0>         0.0586
     31 H9          4.6619   -4.1594    1.3706 H         1 <0>         0.0603
     32 H10         4.4792   -2.5843    2.1792 H         1 <0>         0.0580
     33 H11         1.3157   -4.1165   -0.2600 H         1 <0>         0.0643
     34 H12         2.8145   -5.0542   -0.0538 H         1 <0>         0.0572
     35 H13         1.6803   -4.8785    1.3068 H         1 <0>         0.0531
     36 H14         3.9673   -1.5147   -0.0200 H         1 <0>         0.0529
     37 H15         4.1500   -3.0898   -0.8286 H         1 <0>         0.0575
     38 H16         2.6511   -2.1522   -1.0348 H         1 <0>         0.0633
     39 H17         1.7390   -1.2807    5.6256 H         1 <0>         0.1431
     40 H18         0.2702    1.0053    7.2296 H         1 <0>         0.0987
     41 H19         2.0627    0.9164    7.2517 H         1 <0>         0.0991
     42 H20         0.6841    3.3332    7.2126 H         1 <0>         0.1123
     43 H21         2.3037    3.1325    6.4685 H         1 <0>         0.0858
     44 H22        -3.2254   -1.0506   -0.0052 H         1 <0>         0.0642
     45 H23        -2.2683   -2.3480    0.7491 H         1 <0>         0.0597
     46 H24        -2.8809   -1.0026    1.7405 H         1 <0>         0.0615
@<TRIPOS>BOND
     1    1    2 1
     2    1   23 1
     3    1   24 1
     4    1   25 1
     5    2    6 1
     6    2    3 1
     7    2   22 1
     8    3    4 1
     9    3   26 1
    10    3   27 1
    11    4    5 1
    12    5   10 ar
    13    5    6 ar
    14    6    7 ar
    15    7    8 ar
    16    7   28 1
    17    8    9 ar
    18    8   15 1
    19    9   10 ar
    20    9   29 1
    21   10   11 1
    22   11   12 1
    23   11   13 1
    24   11   14 1
    25   12   30 1
    26   12   31 1
    27   12   32 1
    28   13   33 1
    29   13   34 1
    30   13   35 1
    31   14   36 1
    32   14   37 1
    33   14   38 1
    34   15   16 2
    35   15   39 1
    36   16   20 1
    37   16   17 1
    38   17   18 1
    39   17   40 1
    40   17   41 1
    41   18   19 1
    42   18   42 1
    43   18   43 1
    44   19   20 1
    45   20   21 2
    46   22   44 1
    47   22   45 1
    48   22   46 1
@<TRIPOS>MOLECULE
CHEMBL29472
   34    36     0     0     0
SMALL
USER_CHARGES

@<TRIPOS>ATOM
      1 C1          0.3596    0.3897   -1.5956 C.ar      1 <0>        -0.1365
      2 C2          1.4556    1.2104   -1.7761 C.ar      1 <0>         0.0074
      3 C3          2.0322    1.8449   -0.6911 C.ar      1 <0>        -0.6708
      4 C4          1.5142    1.6597    0.5776 C.ar      1 <0>         0.0032
      5 C5          0.4183    0.8402    0.7647 C.ar      1 <0>        -0.1185
      6 C6         -0.1634    0.2020   -0.3229 C.ar      1 <0>         0.1921
      7 N1         -1.2750   -0.6293   -0.1366 N.pl3     1 <0>        -0.3130
      8 C7         -1.4640   -1.8614   -0.6991 C.2       1 <0>         0.1779
      9 C8         -2.6829   -2.3278   -0.2513 C.2       1 <0>        -0.1825
     10 C9         -3.2245   -1.3564    0.5900 C.2       1 <0>        -0.0030
     11 N2         -2.3896   -0.3506    0.6641 N.2       1 <0>        -0.2088
     12 C10        -4.5499   -1.4510    1.3009 C.3       1 <0>         0.5589
     13 F1         -4.3654   -2.0440    2.5545 F         1 <0>        -0.1625
     14 F2         -5.0833   -0.1682    1.4657 F         1 <0>        -0.1625
     15 F3         -5.4314   -2.2287    0.5424 F         1 <0>        -0.1599
     16 C11        -0.5412   -2.5583   -1.6109 C.2       1 <0>        -0.1270
     17 C12        -0.8006   -3.5808   -2.4874 C.2       1 <0>        -0.0977
     18 C13         0.2344   -4.0789   -3.2471 C.2       1 <0>        -0.1170
     19 C14         1.4760   -3.5446   -3.1060 C.2       1 <0>        -0.1664
     20 S1          1.2044   -2.2867   -1.8687 S.3       1 <0>         0.1472
     21 Br1         3.0781   -4.0090   -3.9969 Br        1 <0>         0.0548
     22 S2          3.4304    2.8912   -0.9256 S.o2      1 <0>         2.7022
     23 O1          4.1179    2.9350    0.3172 O.2       1 <0>        -0.9557
     24 O2          4.0573    2.4678   -2.1285 O.2       1 <0>        -0.9551
     25 N3          2.8571    4.4197   -1.2034 N.pl3     1 <0>        -1.2484
     26 H1         -0.0931   -0.1020   -2.4440 H         1 <0>         0.1458
     27 H2          1.8629    1.3566   -2.7656 H         1 <0>         0.1601
     28 H3          1.9672    2.1560    1.4230 H         1 <0>         0.1594
     29 H4          0.0142    0.6959    1.7558 H         1 <0>         0.1494
     30 H5         -3.1360   -3.2743   -0.5068 H         1 <0>         0.1783
     31 H6         -1.7968   -3.9876   -2.5797 H         1 <0>         0.1540
     32 H7          0.0616   -4.8841   -3.9458 H         1 <0>         0.1532
     33 H8          1.9013    4.5852   -1.2113 H         1 <0>         0.4179
     34 H9          3.4770    5.1496   -1.3582 H         1 <0>         0.4237
@<TRIPOS>BOND
     1    1    6 ar
     2    1    2 ar
     3    1   26 1
     4    2    3 ar
     5    2   27 1
     6    3    4 ar
     7    3   22 1
     8    4    5 ar
     9    4   28 1
    10    5    6 ar
    11    5   29 1
    12    6    7 1
    13    7   11 1
    14    7    8 1
    15    8    9 2
    16    8   16 1
    17    9   10 1
    18    9   30 1
    19   10   11 2
    20   10   12 1
    21   12   13 1
    22   12   14 1
    23   12   15 1
    24   16   20 1
    25   16   17 2
    26   17   18 1
    27   17   31 1
    28   18   19 2
    29   18   32 1
    30   19   20 1
    31   19   21 1
    32   22   23 2
    33   22   24 2
    34   22   25 1
    35   25   33 1
    36   25   34 1
@<TRIPOS>MOLECULE
CHEMBL76692
   44    47     0     0     0
SMALL
USER_CHARGES

@<TRIPOS>ATOM
      1 C1         -0.1168    1.1672   -0.1436 C.3       1 <0>         0.0237
      2 O1         -0.1911   -0.2545   -0.0201 O.3       1 <0>        -0.3069
      3 C2          0.4715   -0.8188    1.0243 C.ar      1 <0>         0.1048
      4 C3          1.1732   -0.0171    1.9135 C.ar      1 <0>        -0.1781
      5 C4          1.8472   -0.5855    2.9741 C.ar      1 <0>        -0.0671
      6 C5          1.8232   -1.9691    3.1538 C.ar      1 <0>        -0.0338
      7 C6          1.1168   -2.7735    2.2589 C.ar      1 <0>        -0.0999
      8 C7          0.4400   -2.1972    1.2023 C.ar      1 <0>         0.0733
      9 F1         -0.2492   -2.9738    0.3380 F         1 <0>        -0.1281
     10 C8          2.5460   -2.5820    4.2908 C.2       1 <0>        -0.1006
     11 C9          3.7231   -3.4638    4.2234 C.ar      1 <0>        -0.1173
     12 C10         4.4904   -3.9792    3.1805 C.ar      1 <0>        -0.0651
     13 C11         5.5593   -4.8010    3.4631 C.ar      1 <0>        -0.1312
     14 C12         5.8706   -5.1146    4.7783 C.ar      1 <0>        -0.0857
     15 C13         5.1190   -4.6114    5.8184 C.ar      1 <0>        -0.1068
     16 C14         4.0372   -3.7799    5.5552 C.ar      1 <0>         0.0617
     17 O2          3.1432   -3.1547    6.3488 O.3       1 <0>        -0.1792
     18 C15         2.2620   -2.4415    5.6208 C.2       1 <0>         0.0730
     19 C16         1.1574   -1.6350    6.1739 C.ar      1 <0>         0.0354
     20 C17        -0.1292   -1.7478    5.6410 C.ar      1 <0>        -0.1059
     21 C18        -1.1571   -0.9911    6.1635 C.ar      1 <0>        -0.0146
     22 C19        -0.9165   -0.1214    7.2127 C.ar      1 <0>        -0.6667
     23 C20         0.3553   -0.0045    7.7455 C.ar      1 <0>        -0.0158
     24 C21         1.3917   -0.7592    7.2370 C.ar      1 <0>        -0.1133
     25 S1         -2.2356    0.8421    7.8730 S.o2      1 <0>         2.7007
     26 O3         -1.6415    1.9776    8.4868 O.2       1 <0>        -0.9597
     27 O4         -3.2105    0.9545    6.8452 O.2       1 <0>        -0.9592
     28 N1         -2.9289   -0.0442    9.0880 N.pl3     1 <0>        -1.2491
     29 H1          0.9244    1.4678   -0.2605 H         1 <0>         0.0595
     30 H2         -0.6873    1.4865   -1.0157 H         1 <0>         0.1063
     31 H3         -0.5307    1.6318    0.7514 H         1 <0>         0.0606
     32 H4          1.1918    1.0538    1.7745 H         1 <0>         0.1434
     33 H5          2.3934    0.0398    3.6648 H         1 <0>         0.1329
     34 H6          1.0963   -3.8447    2.3946 H         1 <0>         0.1452
     35 H7          4.2482   -3.7360    2.1565 H         1 <0>         0.1298
     36 H8          6.1568   -5.2028    2.6582 H         1 <0>         0.1339
     37 H9          6.7105   -5.7601    4.9892 H         1 <0>         0.1391
     38 H10         5.3711   -4.8631    6.8380 H         1 <0>         0.1355
     39 H11        -0.3183   -2.4256    4.8217 H         1 <0>         0.1405
     40 H12        -2.1522   -1.0772    5.7526 H         1 <0>         0.1515
     41 H13         0.5359    0.6764    8.5641 H         1 <0>         0.1512
     42 H14         2.3829   -0.6700    7.6565 H         1 <0>         0.1418
     43 H15        -2.5824   -0.9238    9.3051 H         1 <0>         0.4175
     44 H16        -3.6814    0.3163    9.5826 H         1 <0>         0.4226
@<TRIPOS>BOND
     1    1    2 1
     2    1   29 1
     3    1   30 1
     4    1   31 1
     5    2    3 1
     6    3    8 ar
     7    3    4 ar
     8    4    5 ar
     9    4   32 1
    10    5    6 ar
    11    5   33 1
    12    6    7 ar
    13    6   10 1
    14    7    8 ar
    15    7   34 1
    16    8    9 1
    17   10   18 2
    18   10   11 1
    19   11   16 ar
    20   11   12 ar
    21   12   13 ar
    22   12   35 1
    23   13   14 ar
    24   13   36 1
    25   14   15 ar
    26   14   37 1
    27   15   16 ar
    28   15   38 1
    29   16   17 1
    30   17   18 1
    31   18   19 1
    32   19   24 ar
    33   19   20 ar
    34   20   21 ar
    35   20   39 1
    36   21   22 ar
    37   21   40 1
    38   22   23 ar
    39   22   25 1
    40   23   24 ar
    41   23   41 1
    42   24   42 1
    43   25   26 2
    44   25   27 2
    45   25   28 1
    46   28   43 1
    47   28   44 1
@<TRIPOS>MOLECULE
CHEMBL94939
   36    38     0     0     0
SMALL
USER_CHARGES

@<TRIPOS>ATOM
      1 C1         -0.0225    1.8097    0.0120 C.3       1 <0>        -0.6502
      2 S1          0.0021   -0.0041    0.0020 S.o2      1 <0>         2.4979
      3 O1          0.8352   -0.4880    1.0465 O.2       1 <0>        -0.9381
      4 O2         -1.3147   -0.5105   -0.1678 O.2       1 <0>        -0.9378
      5 C2          0.8454   -0.4373   -1.4831 C.ar      1 <0>        -0.6534
      6 C3          0.1314   -0.6121   -2.6550 C.ar      1 <0>        -0.0211
      7 C4          0.7866   -0.9510   -3.8213 C.ar      1 <0>        -0.1216
      8 C5          2.1707   -1.1172   -3.8170 C.ar      1 <0>         0.0346
      9 C6          2.8850   -0.9398   -2.6330 C.ar      1 <0>        -0.0862
     10 C7          2.2196   -0.5958   -1.4740 C.ar      1 <0>        -0.0268
     11 C8          2.8802   -1.4817   -5.0665 C.ar      1 <0>        -0.0651
     12 C9          2.4365   -2.5491   -5.8499 C.ar      1 <0>        -0.0529
     13 C10         3.1334   -2.8498   -7.0089 C.ar      1 <0>        -0.0818
     14 C11         4.2402   -2.0908   -7.3551 C.ar      1 <0>         0.1255
     15 N1          4.6412   -1.0884   -6.6015 N.ar      1 <0>        -0.4522
     16 C12         4.0062   -0.7563   -5.4858 C.ar      1 <0>         0.1885
     17 C13         4.4917    0.3843   -4.6737 C.ar      1 <0>         0.1501
     18 C14         5.8277    0.7731   -4.7568 C.ar      1 <0>        -0.1232
     19 C15         6.2661    1.8405   -3.9926 C.ar      1 <0>        -0.0794
     20 C16         5.3535    2.4850   -3.1694 C.ar      1 <0>        -0.1552
     21 C17         4.0423    2.0462   -3.1359 C.ar      1 <0>         0.0966
     22 N2          3.6497    1.0308   -3.8773 N.ar      1 <0>        -0.4535
     23 Cl1         2.6249   -4.1670   -8.0190 Cl        1 <0>        -0.0397
     24 H1          1.0001    2.1870    0.0043 H         1 <0>         0.1310
     25 H2         -0.5497    2.1708   -0.8711 H         1 <0>         0.1320
     26 H3         -0.5327    2.1613    0.9088 H         1 <0>         0.1326
     27 H4         -0.9409   -0.4833   -2.6571 H         1 <0>         0.1432
     28 H5          0.2281   -1.0875   -4.7356 H         1 <0>         0.1316
     29 H6          3.9573   -1.0677   -2.6237 H         1 <0>         0.1202
     30 H7          2.7724   -0.4538   -0.5571 H         1 <0>         0.1402
     31 H8          1.5713   -3.1264   -5.5591 H         1 <0>         0.1545
     32 H9          4.7834   -2.3258   -8.2585 H         1 <0>         0.1749
     33 H10         6.5111    0.2485   -5.4081 H         1 <0>         0.1446
     34 H11         7.2955    2.1644   -4.0357 H         1 <0>         0.1408
     35 H12         5.6643    3.3210   -2.5604 H         1 <0>         0.1397
     36 H13         3.3297    2.5457   -2.4963 H         1 <0>         0.1595
@<TRIPOS>BOND
     1    1    2 1
     2    1   24 1
     3    1   25 1
     4    1   26 1
     5    2    3 2
     6    2    4 2
     7    2    5 1
     8    5   10 ar
     9    5    6 ar
    10    6    7 ar
    11    6   27 1
    12    7    8 ar
    13    7   28 1
    14    8    9 ar
    15    8   11 1
    16    9   10 ar
    17    9   29 1
    18   10   30 1
    19   11   16 ar
    20   11   12 ar
    21   12   13 ar
    22   12   31 1
    23   13   14 ar
    24   13   23 1
    25   14   15 ar
    26   14   32 1
    27   15   16 ar
    28   16   17 1
    29   17   22 ar
    30   17   18 ar
    31   18   19 ar
    32   18   33 1
    33   19   20 ar
    34   19   34 1
    35   20   21 ar
    36   20   35 1
    37   21   22 ar
    38   21   36 1
@<TRIPOS>MOLECULE
CHEMBL440683
   50    52     0     0     0
SMALL
USER_CHARGES

@<TRIPOS>ATOM
      1 C1          0.0786    0.7248   -1.5707 C.3       1 <0>        -0.1461
      2 C2          0.2326   -0.7648   -1.2572 C.3       1 <0>        -0.0827
      3 C3          1.2641   -1.3675   -2.1757 C.ar      1 <0>        -0.0894
      4 C4          0.8725   -1.9852   -3.3433 C.ar      1 <0>        -0.1126
      5 C5          1.8130   -2.5439   -4.1974 C.ar      1 <0>        -0.1490
      6 C6          3.1443   -2.4911   -3.8944 C.ar      1 <0>        -0.0817
      7 C7          3.5648   -1.8702   -2.7166 C.ar      1 <0>        -0.0840
      8 C8          2.6141   -1.2965   -1.8498 C.ar      1 <0>         0.0945
      9 N1          3.3043   -0.7553   -0.7871 N.pl3     1 <0>        -0.5822
     10 H1          2.8982   -0.2968   -0.0349 H         1 <0>         0.4111
     11 C9          4.6453   -0.9605   -0.9495 C.2       1 <0>         0.1223
     12 C10         4.8637   -1.6367   -2.0936 C.2       1 <0>        -0.1838
     13 C11         6.2224   -2.0412   -2.6045 C.3       1 <0>        -0.0019
     14 H2          6.3752   -3.1070   -2.4348 H         1 <0>         0.0701
     15 C12         7.2860   -1.2404   -1.8432 C.3       1 <0>        -0.1153
     16 C13         7.0128   -1.3366   -0.3395 C.3       1 <0>        -0.1096
     17 C14         5.7464   -0.5270   -0.0091 C.3       1 <0>         0.0323
     18 C15         6.0088    0.9706   -0.1806 C.3       1 <0>        -0.1138
     19 C16         4.7761    1.7588    0.2667 C.3       1 <0>        -0.1546
     20 C17         5.3336   -0.8185    1.4350 C.3       1 <0>        -0.1791
     21 C18         6.4470   -0.4151    2.3670 C.2       1 <0>         0.4987
     22 O1          7.4894    0.0279    1.9156 O.co2     1 <0>        -0.6825
     23 O2          6.3055   -0.5318    3.5723 O.co2     1 <0>        -0.7041
     24 C19         6.3195   -1.7399   -4.1014 C.3       1 <0>        -0.0877
     25 C20         7.6310   -2.2571   -4.6339 C.2       1 <0>        -0.1404
     26 C21         7.6451   -3.0842   -5.6497 C.2       1 <0>        -0.2087
     27 H3          1.0344    1.2278   -1.4234 H         1 <0>         0.0524
     28 H4         -0.2407    0.8472   -2.6057 H         1 <0>         0.0566
     29 H5         -0.6675    1.1607   -0.9063 H         1 <0>         0.0556
     30 H6          0.5518   -0.8871   -0.2222 H         1 <0>         0.0627
     31 H7         -0.7232   -1.2677   -1.4044 H         1 <0>         0.0719
     32 H8         -0.1763   -2.0355   -3.5961 H         1 <0>         0.1171
     33 H9          1.4899   -3.0247   -5.1090 H         1 <0>         0.1150
     34 H10         3.8696   -2.9290   -4.5641 H         1 <0>         0.1167
     35 H11         8.2732   -1.6483   -2.0604 H         1 <0>         0.0601
     36 H12         7.2469   -0.1964   -2.1539 H         1 <0>         0.0640
     37 H13         6.8751   -2.3816   -0.0615 H         1 <0>         0.0507
     38 H14         7.8579   -0.9228    0.2105 H         1 <0>         0.1134
     39 H15         6.8660    1.2612    0.4268 H         1 <0>         0.1088
     40 H16         6.2168    1.1853   -1.2288 H         1 <0>         0.0488
     41 H17         4.9609    2.8254    0.1391 H         1 <0>         0.0483
     42 H18         3.9177    1.4640   -0.3369 H         1 <0>         0.0386
     43 H19         4.5716    1.5485    1.3165 H         1 <0>         0.0577
     44 H20         4.4341   -0.2523    1.6771 H         1 <0>         0.0537
     45 H21         5.1335   -1.8840    1.5477 H         1 <0>         0.0560
     46 H22         5.4972   -2.2282   -4.6244 H         1 <0>         0.0679
     47 H23         6.2624   -0.6630   -4.2597 H         1 <0>         0.0706
     48 H24         8.5593   -1.9458   -4.1781 H         1 <0>         0.1090
     49 H25         6.7168   -3.3954   -6.1056 H         1 <0>         0.0922
     50 H26         8.5850   -3.4548   -6.0313 H         1 <0>         0.0924
@<TRIPOS>BOND
     1    1    2 1
     2    1   27 1
     3    1   28 1
     4    1   29 1
     5    2    3 1
     6    2   30 1
     7    2   31 1
     8    3    8 ar
     9    3    4 ar
    10    4    5 ar
    11    4   32 1
    12    5    6 ar
    13    5   33 1
    14    6    7 ar
    15    6   34 1
    16    7   12 1
    17    7    8 ar
    18    8    9 1
    19    9   10 1
    20    9   11 1
    21   11   17 1
    22   11   12 2
    23   12   13 1
    24   13   14 1
    25   13   15 1
    26   13   24 1
    27   15   16 1
    28   15   35 1
    29   15   36 1
    30   16   17 1
    31   16   37 1
    32   16   38 1
    33   17   18 1
    34   17   20 1
    35   18   19 1
    36   18   39 1
    37   18   40 1
    38   19   41 1
    39   19   42 1
    40   19   43 1
    41   20   21 1
    42   20   44 1
    43   20   45 1
    44   21   22 2
    45   21   23 1
    46   24   25 1
    47   24   46 1
    48   24   47 1
    49   25   26 2
    50   25   48 1
    51   26   49 1
    52   26   50 1
@<TRIPOS>MOLECULE
CHEMBL52020
   40    42     0     0     0
SMALL
USER_CHARGES

@<TRIPOS>ATOM
      1 C1         -0.0184    1.5028    0.0103 C.3       1 <0>        -0.1184
      2 C2          0.0021   -0.0041    0.0020 C.ar      1 <0>        -0.1141
      3 C3          0.0057   -0.6863   -1.1973 C.ar      1 <0>        -0.0750
      4 C4          0.0246   -2.0802   -1.2037 C.ar      1 <0>        -0.0639
      5 C5          0.0398   -2.7785    0.0032 C.ar      1 <0>        -0.0710
      6 C6          0.0360   -2.0878    1.1972 C.ar      1 <0>        -0.1477
      7 C7          0.0229   -0.7021    1.1985 C.ar      1 <0>         0.1079
      8 F1          0.0253   -0.0297    2.3704 F         1 <0>        -0.1333
      9 C8          0.0281   -2.8177   -2.4894 C.ar      1 <0>        -0.0074
     10 C9         -0.8999   -2.5032   -3.4786 C.ar      1 <0>        -0.1119
     11 C10        -0.8938   -3.1928   -4.6759 C.ar      1 <0>         0.0823
     12 C11         0.0349   -4.2013   -4.8992 C.ar      1 <0>         0.0757
     13 C12         0.9614   -4.5237   -3.9262 C.ar      1 <0>        -0.1048
     14 C13         0.9707   -3.8327   -2.7175 C.ar      1 <0>        -0.0316
     15 C14         1.9674   -4.1713   -1.6739 C.ar      1 <0>         0.0101
     16 C15         2.7182   -3.1637   -1.0701 C.ar      1 <0>        -0.1137
     17 C16         3.6447   -3.4849   -0.0991 C.ar      1 <0>        -0.0180
     18 C17         3.8292   -4.8038    0.2753 C.ar      1 <0>        -0.6720
     19 C18         3.0872   -5.8079   -0.3204 C.ar      1 <0>        -0.0125
     20 C19         2.1537   -5.4981   -1.2884 C.ar      1 <0>        -0.1270
     21 S1          5.0145   -5.2064    1.5153 S.o2      1 <0>         2.6996
     22 O1          5.3851   -6.5609    1.2984 O.2       1 <0>        -0.9603
     23 O2          5.9641   -4.1494    1.5278 O.2       1 <0>        -0.9580
     24 N1          4.2326   -5.1574    2.9743 N.pl3     1 <0>        -1.2474
     25 F2          0.0319   -4.8702   -6.0730 F         1 <0>        -0.1214
     26 F3         -1.7956   -2.8851   -5.6337 F         1 <0>        -0.1212
     27 H1          1.0042    1.8801    0.0026 H         1 <0>         0.0778
     28 H2         -0.5455    1.8639   -0.8728 H         1 <0>         0.0750
     29 H3         -0.5286    1.8543    0.9071 H         1 <0>         0.0729
     30 H4         -0.0065   -0.1413   -2.1296 H         1 <0>         0.1376
     31 H5          0.0541   -3.8584    0.0031 H         1 <0>         0.1337
     32 H6          0.0474   -2.6278    2.1325 H         1 <0>         0.1402
     33 H7         -1.6247   -1.7205   -3.3099 H         1 <0>         0.1545
     34 H8          1.6811   -5.3089   -4.1049 H         1 <0>         0.1546
     35 H9          2.5752   -2.1337   -1.3618 H         1 <0>         0.1362
     36 H10         4.2271   -2.7052    0.3691 H         1 <0>         0.1459
     37 H11         3.2355   -6.8358   -0.0241 H         1 <0>         0.1474
     38 H12         1.5715   -6.2823   -1.7493 H         1 <0>         0.1391
     39 H13         4.5245   -5.7304    3.7005 H         1 <0>         0.4229
     40 H14         3.4826   -4.5557    3.1027 H         1 <0>         0.4172
@<TRIPOS>BOND
     1    1    2 1
     2    1   27 1
     3    1   28 1
     4    1   29 1
     5    2    7 ar
     6    2    3 ar
     7    3    4 ar
     8    3   30 1
     9    4    5 ar
    10    4    9 1
    11    5    6 ar
    12    5   31 1
    13    6    7 ar
    14    6   32 1
    15    7    8 1
    16    9   14 ar
    17    9   10 ar
    18   10   11 ar
    19   10   33 1
    20   11   12 ar
    21   11   26 1
    22   12   13 ar
    23   12   25 1
    24   13   14 ar
    25   13   34 1
    26   14   15 1
    27   15   20 ar
    28   15   16 ar
    29   16   17 ar
    30   16   35 1
    31   17   18 ar
    32   17   36 1
    33   18   19 ar
    34   18   21 1
    35   19   20 ar
    36   19   37 1
    37   20   38 1
    38   21   22 2
    39   21   23 2
    40   21   24 1
    41   24   39 1
    42   24   40 1
@<TRIPOS>MOLECULE
CHEMBL43461
   36    38     0     0     0
SMALL
USER_CHARGES

@<TRIPOS>ATOM
      1 C1          4.1494    5.2278    1.8955 C.3       1 <0>        -0.1423
      2 C2          2.9657    4.9392    2.8211 C.3       1 <0>        -0.0442
      3 C3          3.2408    3.6866    3.6126 C.2       1 <0>         0.0789
      4 C4          3.1835    3.6785    4.9663 C.2       1 <0>        -0.2731
      5 S1          3.5902    1.9737    5.3072 S.3       1 <0>         0.1253
      6 C5          3.7871    1.4587    3.7171 C.2       1 <0>         0.0418
      7 N1          3.5429    2.5471    3.0172 N.2       1 <0>        -0.5187
      8 S2          4.2110   -0.1480    3.1310 S.3       1 <0>         0.1735
      9 C6          4.5436   -1.0634    4.5994 C.ar      1 <0>        -0.2593
     10 C7          3.6162   -1.9748    5.0697 C.ar      1 <0>         0.0848
     11 C8          3.8836   -2.6989    6.2347 C.ar      1 <0>        -0.3200
     12 C9          5.0899   -2.4946    6.9160 C.ar      1 <0>        -0.0250
     13 C10         6.0089   -1.5885    6.4474 C.ar      1 <0>        -0.2286
     14 C11         5.7474   -0.8713    5.2842 C.ar      1 <0>         0.3683
     15 N2          6.6824    0.0427    4.8051 N.2       1 <0>        -1.0561
     16 S3          8.1082    0.2705    5.6158 S.o2      1 <0>         2.5287
     17 O1          7.7272    0.8024    6.8772 O.2       1 <0>        -1.0161
     18 O2          8.7783   -0.9796    5.5292 O.2       1 <0>        -1.0174
     19 C12         8.9973    1.5240    4.6520 C.3       1 <0>        -0.6343
     20 C13         5.0594   -3.4179    8.1079 C.3       1 <0>         0.0895
     21 O3          3.8148   -4.1200    8.0520 O.3       1 <0>        -0.3279
     22 C14         3.1210   -3.7167    6.9743 C.2       1 <0>         0.5336
     23 O4          2.0237   -4.1315    6.6573 O.2       1 <0>        -0.4822
     24 H1          4.2894    4.3899    1.2126 H         1 <0>         0.0648
     25 H2          3.9504    6.1338    1.3230 H         1 <0>         0.0522
     26 H3          5.0515    5.3654    2.4916 H         1 <0>         0.0505
     27 H4          2.8257    5.7771    3.5040 H         1 <0>         0.0729
     28 H5          2.0636    4.8016    2.2250 H         1 <0>         0.0739
     29 H6          2.9553    4.4821    5.6508 H         1 <0>         0.1850
     30 H7          2.6880   -2.1263    4.5387 H         1 <0>         0.1327
     31 H8          6.9370   -1.4366    6.9786 H         1 <0>         0.1209
     32 H9          8.4057    2.4386    4.6119 H         1 <0>         0.1180
     33 H10         9.9571    1.7326    5.1248 H         1 <0>         0.1071
     34 H11         9.1634    1.1541    3.6403 H         1 <0>         0.1207
     35 H12         5.8885   -4.1235    8.0544 H         1 <0>         0.1112
     36 H13         5.1203   -2.8393    9.0296 H         1 <0>         0.1109
@<TRIPOS>BOND
     1    1    2 1
     2    1   24 1
     3    1   25 1
     4    1   26 1
     5    2    3 1
     6    2   27 1
     7    2   28 1
     8    3    7 1
     9    3    4 2
    10    4    5 1
    11    4   29 1
    12    5    6 1
    13    6    7 2
    14    6    8 1
    15    8    9 1
    16    9   14 ar
    17    9   10 ar
    18   10   11 ar
    19   10   30 1
    20   11   22 1
    21   11   12 ar
    22   12   13 ar
    23   12   20 1
    24   13   14 ar
    25   13   31 1
    26   14   15 1
    27   15   16 1
    28   16   17 2
    29   16   18 2
    30   16   19 1
    31   19   32 1
    32   19   33 1
    33   19   34 1
    34   20   21 1
    35   20   35 1
    36   20   36 1
    37   21   22 1
    38   22   23 2
@<TRIPOS>MOLECULE
CHEMBL139721
   39    43     0     0     0
SMALL
USER_CHARGES

@<TRIPOS>ATOM
      1 C1         -0.0169    1.3920    0.0097 C.ar      1 <0>        -0.0839
      2 C2          1.1695    2.0951    0.0021 C.ar      1 <0>        -0.1497
      3 C3          2.3789    1.4186   -0.0135 C.ar      1 <0>         0.1020
      4 C4          2.4037    0.0330   -0.0216 C.ar      1 <0>        -0.1490
      5 C5          1.2234   -0.6804   -0.0142 C.ar      1 <0>        -0.0651
      6 C6          0.0021   -0.0041    0.0020 C.ar      1 <0>        -0.0317
      7 C7         -1.2658   -0.7630    0.0105 C.2       1 <0>         0.0924
      8 C8         -1.5432   -1.8365    0.7864 C.2       1 <0>        -0.1612
      9 C9         -2.8547   -2.2554    0.4829 C.2       1 <0>        -0.1612
     10 C10        -3.3403   -1.4252   -0.4692 C.2       1 <0>         0.0923
     11 N1         -2.3700   -0.4971   -0.7640 N.pl3     1 <0>        -0.5536
     12 H1         -2.4501    0.2220   -1.4101 H         1 <0>         0.4187
     13 C11        -4.6829   -1.5000   -1.0817 C.ar      1 <0>        -0.0316
     14 C12        -5.2000   -2.7315   -1.4883 C.ar      1 <0>        -0.0652
     15 C13        -6.4539   -2.7955   -2.0590 C.ar      1 <0>        -0.1489
     16 C14        -7.2003   -1.6403   -2.2291 C.ar      1 <0>         0.1019
     17 C15        -6.6919   -0.4151   -1.8279 C.ar      1 <0>        -0.1497
     18 C16        -5.4415   -0.3401   -1.2508 C.ar      1 <0>        -0.0840
     19 F1         -8.4281   -1.7087   -2.7887 F         1 <0>        -0.1372
     20 C17        -3.1313   -3.4659    1.3754 C.3       1 <0>         0.0046
     21 C18        -2.3582   -3.0270    2.6765 C.3       1 <0>        -0.1099
     22 C19        -1.0295   -2.7946    1.8618 C.3       1 <0>         0.0047
     23 C20        -0.9354   -4.1470    1.1401 C.2       1 <0>        -0.1585
     24 C21        -2.1633   -4.5392    0.8559 C.2       1 <0>        -0.1595
     25 F2          3.5381    2.1124   -0.0213 F         1 <0>        -0.1372
     26 H2         -0.9587    1.9202    0.0260 H         1 <0>         0.1305
     27 H3          1.1561    3.1750    0.0081 H         1 <0>         0.1386
     28 H4          3.3490   -0.4891   -0.0342 H         1 <0>         0.1405
     29 H5          1.2439   -1.7602   -0.0213 H         1 <0>         0.1379
     30 H6         -4.6190   -3.6324   -1.3565 H         1 <0>         0.1379
     31 H7         -6.8548   -3.7475   -2.3742 H         1 <0>         0.1405
     32 H8         -7.2778    0.4820   -1.9632 H         1 <0>         0.1386
     33 H9         -5.0482    0.6145   -0.9340 H         1 <0>         0.1304
     34 H10        -4.1746   -3.7624    1.4835 H         1 <0>         0.1008
     35 H11        -2.7523   -2.1095    3.1134 H         1 <0>         0.0784
     36 H12        -2.2708   -3.8306    3.4078 H         1 <0>         0.0840
     37 H13        -0.1557   -2.4689    2.4262 H         1 <0>         0.1009
     38 H14        -0.0266   -4.6815    0.9062 H         1 <0>         0.1307
     39 H15        -2.4383   -5.4522    0.3488 H         1 <0>         0.1308
@<TRIPOS>BOND
     1    1    6 ar
     2    1    2 ar
     3    1   26 1
     4    2    3 ar
     5    2   27 1
     6    3    4 ar
     7    3   25 1
     8    4    5 ar
     9    4   28 1
    10    5    6 ar
    11    5   29 1
    12    6    7 1
    13    7   11 1
    14    7    8 2
    15    8   22 1
    16    8    9 1
    17    9   10 2
    18    9   20 1
    19   10   11 1
    20   10   13 1
    21   11   12 1
    22   13   18 ar
    23   13   14 ar
    24   14   15 ar
    25   14   30 1
    26   15   16 ar
    27   15   31 1
    28   16   17 ar
    29   16   19 1
    30   17   18 ar
    31   17   32 1
    32   18   33 1
    33   20   24 1
    34   20   21 1
    35   20   34 1
    36   21   22 1
    37   21   35 1
    38   21   36 1
    39   22   23 1
    40   22   37 1
    41   23   24 2
    42   23   38 1
    43   24   39 1
@<TRIPOS>MOLECULE
CHEMBL9197
   34    36     0     0     0
SMALL
USER_CHARGES

@<TRIPOS>ATOM
      1 C1          0.2000    0.9171   -1.2035 C.3       1 <0>        -0.1546
      2 C2          0.0021   -0.0041    0.0020 C.3       1 <0>         0.1546
      3 C3          0.9833   -1.1780   -0.0839 C.3       1 <0>        -0.1387
      4 C4          0.8449   -2.0237    1.1865 C.3       1 <0>        -0.1448
      5 C5          1.0580   -1.1450    2.3908 C.2       1 <0>         0.5230
      6 O1          1.5120   -1.6278    3.4059 O.2       1 <0>        -0.4955
      7 N1          0.7557    0.1615    2.3619 N.am      1 <0>        -0.6621
      8 C6          0.2610    0.7647    1.2707 C.2       1 <0>         0.5370
      9 O2          0.0177    1.9518    1.3066 O.2       1 <0>        -0.4711
     10 N2         -1.3719   -0.5124    0.0094 N.am      1 <0>        -0.5696
     11 C7         -1.9284   -1.2155   -0.9932 C.2       1 <0>         0.5872
     12 O3         -1.3788   -1.5247   -2.0316 O.2       1 <0>        -0.4594
     13 C8         -3.3162   -1.5491   -0.6223 C.ar      1 <0>        -0.2100
     14 C9         -4.3451   -2.2410   -1.2471 C.ar      1 <0>         0.0169
     15 C10        -5.5647   -2.3809   -0.6121 C.ar      1 <0>        -0.1854
     16 C11        -5.7681   -1.8324    0.6492 C.ar      1 <0>         0.2496
     17 C12        -4.7416   -1.1345    1.2870 C.ar      1 <0>        -0.1198
     18 C13        -3.5186   -0.9913    0.6582 C.ar      1 <0>        -0.0842
     19 C14        -2.2409   -0.3421    1.0222 C.2       1 <0>         0.5671
     20 O4         -2.0148    0.2477    2.0594 O.2       1 <0>        -0.4491
     21 N3         -6.9998   -1.9795    1.2777 N.pl3     1 <0>        -0.8581
     22 H1          1.2231    1.2930   -1.2094 H         1 <0>         0.0859
     23 H2          0.0124    0.3598   -2.1213 H         1 <0>         0.0920
     24 H3         -0.4945    1.7547   -1.1386 H         1 <0>         0.0798
     25 H4          0.7492   -1.7876   -0.9567 H         1 <0>         0.1144
     26 H5          2.0022   -0.7985   -0.1618 H         1 <0>         0.1043
     27 H6         -0.1529   -2.4606    1.2264 H         1 <0>         0.1049
     28 H7          1.5913   -2.8180    1.1785 H         1 <0>         0.1255
     29 H8          0.9006    0.6910    3.1617 H         1 <0>         0.4186
     30 H9         -4.1929   -2.6686   -2.2272 H         1 <0>         0.1444
     31 H10        -6.3646   -2.9192   -1.0987 H         1 <0>         0.1416
     32 H11        -4.9015   -0.7091    2.2667 H         1 <0>         0.1414
     33 H12        -7.7148   -2.4639    0.8361 H         1 <0>         0.4078
     34 H13        -7.1439   -1.5977    2.1576 H         1 <0>         0.4064
@<TRIPOS>BOND
     1    1    2 1
     2    1   22 1
     3    1   23 1
     4    1   24 1
     5    2    8 1
     6    2    3 1
     7    2   10 1
     8    3    4 1
     9    3   25 1
    10    3   26 1
    11    4    5 1
    12    4   27 1
    13    4   28 1
    14    5    6 2
    15    5    7 am
    16    7    8 am
    17    7   29 1
    18    8    9 2
    19   10   19 am
    20   10   11 am
    21   11   12 2
    22   11   13 1
    23   13   18 ar
    24   13   14 ar
    25   14   15 ar
    26   14   30 1
    27   15   16 ar
    28   15   31 1
    29   16   17 ar
    30   16   21 1
    31   17   18 ar
    32   17   32 1
    33   18   19 1
    34   19   20 2
    35   21   33 1
    36   21   34 1
@<TRIPOS>MOLECULE
CHEMBL67659
   54    57     0     0     0
SMALL
USER_CHARGES

@<TRIPOS>ATOM
      1 C1          1.3265   -0.2096    1.3425 C.3       1 <0>        -0.6500
      2 S1          0.0546   -0.0868    0.0550 S.o2      1 <0>         2.4978
      3 O1         -0.9155   -1.1110    0.2261 O.2       1 <0>        -0.9351
      4 O2         -0.3431    1.2670   -0.1126 O.2       1 <0>        -0.9347
      5 C2          0.8853   -0.5001   -1.4430 C.ar      1 <0>        -0.6507
      6 C3          1.4930    0.4926   -2.1903 C.ar      1 <0>        -0.0211
      7 C4          2.1450    0.1747   -3.3644 C.ar      1 <0>        -0.1079
      8 C5          2.1905   -1.1495   -3.7966 C.ar      1 <0>         0.0381
      9 C6          1.5764   -2.1456   -3.0396 C.ar      1 <0>        -0.1090
     10 C7          0.9320   -1.8169   -1.8642 C.ar      1 <0>        -0.0224
     11 C8          2.8893   -1.4973   -5.0577 C.2       1 <0>         0.1162
     12 C9          4.1326   -0.9752   -5.4946 C.2       1 <0>        -0.1097
     13 C10         4.4187   -1.5503   -6.6963 C.2       1 <0>        -0.0030
     14 N1          3.4094   -2.3914   -7.0026 N.pl3     1 <0>        -0.3264
     15 N2          2.4684   -2.3491   -5.9669 N.2       1 <0>        -0.2294
     16 C11         3.3167   -3.2141   -8.2113 C.3       1 <0>         0.1132
     17 C12         3.9724   -4.5726   -7.9552 C.3       1 <0>        -0.0949
     18 C13         3.8770   -5.4188   -9.1985 C.ar      1 <0>        -0.0900
     19 C14         2.7811   -6.2382   -9.3945 C.ar      1 <0>        -0.1107
     20 C15         2.6936   -7.0144  -10.5349 C.ar      1 <0>        -0.1169
     21 C16         3.7018   -6.9710  -11.4796 C.ar      1 <0>        -0.1162
     22 C17         4.7973   -6.1509  -11.2841 C.ar      1 <0>        -0.1166
     23 C18         4.8828   -5.3714  -10.1456 C.ar      1 <0>        -0.1119
     24 C19         5.6445   -1.2926   -7.5341 C.3       1 <0>         0.5411
     25 F1          5.3290   -1.4616   -8.8866 F         1 <0>        -0.1697
     26 F2          6.0897    0.0161   -7.3191 F         1 <0>        -0.1523
     27 F3          6.6530   -2.1932   -7.1745 F         1 <0>        -0.1619
     28 C20         4.9696    0.0163   -4.7749 C.ar      1 <0>        -0.0461
     29 C21         5.1123    1.3075   -5.2791 C.ar      1 <0>        -0.0626
     30 C22         5.8917    2.2264   -4.6065 C.ar      1 <0>        -0.1511
     31 C23         6.5318    1.8668   -3.4318 C.ar      1 <0>         0.1104
     32 C24         6.3931    0.5841   -2.9272 C.ar      1 <0>        -0.1524
     33 C25         5.6107   -0.3393   -3.5899 C.ar      1 <0>        -0.0635
     34 F4          7.2940    2.7696   -2.7765 F         1 <0>        -0.1361
     35 H1          1.7214   -1.2253    1.3675 H         1 <0>         0.1323
     36 H2          2.1340    0.4889    1.1233 H         1 <0>         0.1325
     37 H3          0.8883    0.0337    2.3105 H         1 <0>         0.1343
     38 H4          1.4568    1.5185   -1.8546 H         1 <0>         0.1482
     39 H5          2.6189    0.9507   -3.9473 H         1 <0>         0.1373
     40 H6          1.6085   -3.1734   -3.3698 H         1 <0>         0.1380
     41 H7          0.4596   -2.5885   -1.2745 H         1 <0>         0.1481
     42 H8          2.2684   -3.3600   -8.4720 H         1 <0>         0.1122
     43 H9          3.8289   -2.7125   -9.0324 H         1 <0>         0.1156
     44 H10         5.0206   -4.4267   -7.6945 H         1 <0>         0.0798
     45 H11         3.4602   -5.0742   -7.1341 H         1 <0>         0.0875
     46 H12         1.9933   -6.2721   -8.6564 H         1 <0>         0.1239
     47 H13         1.8377   -7.6551  -10.6877 H         1 <0>         0.1249
     48 H14         3.6338   -7.5780  -12.3703 H         1 <0>         0.1241
     49 H15         5.5852   -6.1172  -12.0220 H         1 <0>         0.1250
     50 H16         5.7369   -4.7279   -9.9946 H         1 <0>         0.1225
     51 H17         4.6139    1.5885   -6.1951 H         1 <0>         0.1348
     52 H18         6.0031    3.2272   -4.9968 H         1 <0>         0.1409
     53 H19         6.8942    0.3079   -2.0112 H         1 <0>         0.1399
     54 H20         5.4989   -1.3375   -3.1931 H         1 <0>         0.1333
@<TRIPOS>BOND
     1    1    2 1
     2    1   35 1
     3    1   36 1
     4    1   37 1
     5    2    3 2
     6    2    4 2
     7    2    5 1
     8    5   10 ar
     9    5    6 ar
    10    6    7 ar
    11    6   38 1
    12    7    8 ar
    13    7   39 1
    14    8    9 ar
    15    8   11 1
    16    9   10 ar
    17    9   40 1
    18   10   41 1
    19   11   15 2
    20   11   12 1
    21   12   13 2
    22   12   28 1
    23   13   14 1
    24   13   24 1
    25   14   15 1
    26   14   16 1
    27   16   17 1
    28   16   42 1
    29   16   43 1
    30   17   18 1
    31   17   44 1
    32   17   45 1
    33   18   23 ar
    34   18   19 ar
    35   19   20 ar
    36   19   46 1
    37   20   21 ar
    38   20   47 1
    39   21   22 ar
    40   21   48 1
    41   22   23 ar
    42   22   49 1
    43   23   50 1
    44   24   25 1
    45   24   26 1
    46   24   27 1
    47   28   33 ar
    48   28   29 ar
    49   29   30 ar
    50   29   51 1
    51   30   31 ar
    52   30   52 1
    53   31   32 ar
    54   31   34 1
    55   32   33 ar
    56   32   53 1
    57   33   54 1
@<TRIPOS>MOLECULE
CHEMBL8562
   48    49     0     0     0
SMALL
USER_CHARGES

@<TRIPOS>ATOM
      1 C1          0.0231    1.4797    0.0401 C.3       1 <0>        -0.1487
      2 C2          0.0737   -0.0494    0.0316 C.3       1 <0>        -0.0214
      3 C3          0.8387   -0.5412    1.2620 C.3       1 <0>        -0.1426
      4 C4         -1.3508   -0.6069    0.0603 C.3       1 <0>        -0.1426
      5 C5          0.7730   -0.5220   -1.2168 C.ar      1 <0>        -0.0948
      6 C6          1.2507    0.3949   -2.1256 C.ar      1 <0>        -0.0822
      7 C7          1.9002   -0.0455   -3.2850 C.ar      1 <0>        -0.0909
      8 C8          2.0603   -1.4173   -3.5136 C.ar      1 <0>        -0.0971
      9 C9          1.5789   -2.3259   -2.5984 C.ar      1 <0>        -0.0961
     10 C10         0.9396   -1.8831   -1.4459 C.ar      1 <0>         0.1362
     11 O1          0.4716   -2.7830   -0.5439 O.3       1 <0>        -0.4839
     12 C11         1.7504   -3.8030   -2.8432 C.3       1 <0>        -0.0209
     13 C12         2.4853   -4.0184   -4.1678 C.3       1 <0>        -0.1497
     14 C13         2.5641   -4.4178   -1.7027 C.3       1 <0>        -0.1433
     15 C14         0.3761   -4.4722   -2.9077 C.3       1 <0>        -0.1425
     16 C15         2.4118    0.9289   -4.2588 C.2       1 <0>         0.0319
     17 C16         2.5775    0.5697   -5.5505 C.2       1 <0>        -0.2448
     18 C17         2.1562   -0.7402   -6.1972 C.3       1 <0>        -0.1256
     19 C18         2.2464   -0.4010   -7.7033 C.3       1 <0>         0.0516
     20 O2          3.2148    0.6611   -7.7441 O.3       1 <0>        -0.3359
     21 C19         3.1753    1.3414   -6.5827 C.2       1 <0>         0.5156
     22 O3          3.6006    2.4715   -6.4351 O.2       1 <0>        -0.4599
     23 H1          1.0380    1.8769    0.0197 H         1 <0>         0.0596
     24 H2         -0.5219    1.8301   -0.8364 H         1 <0>         0.0584
     25 H3         -0.4827    1.8216    0.9431 H         1 <0>         0.0615
     26 H4          0.3329   -0.1994    2.1650 H         1 <0>         0.0558
     27 H5          0.8747   -1.6306    1.2560 H         1 <0>         0.0750
     28 H6          1.8536   -0.1440    1.2415 H         1 <0>         0.0518
     29 H7         -1.8959   -0.2566   -0.8162 H         1 <0>         0.0546
     30 H8         -1.3148   -1.6963    0.0543 H         1 <0>         0.0580
     31 H9         -1.8567   -0.2651    0.9633 H         1 <0>         0.0622
     32 H10         1.1244    1.4521   -1.9447 H         1 <0>         0.1365
     33 H11         2.5603   -1.7622   -4.4066 H         1 <0>         0.1444
     34 H12        -0.4381   -3.0670   -0.7074 H         1 <0>         0.3848
     35 H13         3.4644   -3.5416   -4.1218 H         1 <0>         0.0585
     36 H14         2.6094   -5.0868   -4.3448 H         1 <0>         0.0628
     37 H15         1.9056   -3.5804   -4.9803 H         1 <0>         0.0579
     38 H16         2.0405   -4.2643   -0.7590 H         1 <0>         0.0757
     39 H17         2.6882   -5.4861   -1.8797 H         1 <0>         0.0559
     40 H18         3.5432   -3.9410   -1.6567 H         1 <0>         0.0516
     41 H19        -0.2036   -4.0342   -3.7203 H         1 <0>         0.0547
     42 H20         0.5002   -5.5406   -3.0848 H         1 <0>         0.0624
     43 H21        -0.1474   -4.3187   -1.9641 H         1 <0>         0.0580
     44 H22         2.6553    1.9323   -3.9419 H         1 <0>         0.1435
     45 H23         2.8468   -1.5423   -5.9370 H         1 <0>         0.0996
     46 H24         1.1356   -1.0015   -5.9177 H         1 <0>         0.1028
     47 H25         2.5966   -1.2628   -8.2714 H         1 <0>         0.1139
     48 H26         1.2825   -0.0573   -8.0787 H         1 <0>         0.0879
@<TRIPOS>BOND
     1    1    2 1
     2    1   23 1
     3    1   24 1
     4    1   25 1
     5    2    3 1
     6    2    4 1
     7    2    5 1
     8    3   26 1
     9    3   27 1
    10    3   28 1
    11    4   29 1
    12    4   30 1
    13    4   31 1
    14    5   10 ar
    15    5    6 ar
    16    6    7 ar
    17    6   32 1
    18    7    8 ar
    19    7   16 1
    20    8    9 ar
    21    8   33 1
    22    9   10 ar
    23    9   12 1
    24   10   11 1
    25   11   34 1
    26   12   13 1
    27   12   14 1
    28   12   15 1
    29   13   35 1
    30   13   36 1
    31   13   37 1
    32   14   38 1
    33   14   39 1
    34   14   40 1
    35   15   41 1
    36   15   42 1
    37   15   43 1
    38   16   17 2
    39   16   44 1
    40   17   21 1
    41   17   18 1
    42   18   19 1
    43   18   45 1
    44   18   46 1
    45   19   20 1
    46   19   47 1
    47   19   48 1
    48   20   21 1
    49   21   22 2
@<TRIPOS>MOLECULE
CHEMBL154373
   31    32     0     0     0
SMALL
USER_CHARGES

@<TRIPOS>ATOM
      1 C1         -0.0184    1.5028    0.0103 C.3       1 <0>        -0.1093
      2 C2          0.0021   -0.0041    0.0020 C.ar      1 <0>        -0.1392
      3 C3          0.0057   -0.6873   -1.2002 C.ar      1 <0>        -0.0647
      4 C4          0.0244   -2.0682   -1.2115 C.ar      1 <0>        -0.1806
      5 C5          0.0396   -2.7708   -0.0132 C.ar      1 <0>         0.2095
      6 C6          0.0359   -2.0813    1.1927 C.ar      1 <0>        -0.1972
      7 C7          0.0229   -0.7003    1.1966 C.ar      1 <0>        -0.0665
      8 N1          0.0581   -4.1674   -0.0209 N.pl3     1 <0>        -0.5426
      9 N2          0.0734   -4.8744    1.1885 N.am      1 <0>        -0.5165
     10 C8          0.0912   -6.2220    1.1811 C.2       1 <0>         0.5582
     11 O1          0.0940   -6.8240    0.1250 O.2       1 <0>        -0.5318
     12 C9          0.1074   -6.9678    2.4569 C.ar      1 <0>        -0.1247
     13 C10         0.0984   -6.2792    3.6714 C.ar      1 <0>        -0.0753
     14 C11         0.1136   -6.9806    4.8585 C.ar      1 <0>        -0.1146
     15 C12         0.1377   -8.3655    4.8477 C.ar      1 <0>        -0.0084
     16 C13         0.1472   -9.0541    3.6459 C.ar      1 <0>        -0.1146
     17 C14         0.1259   -8.3639    2.4524 C.ar      1 <0>        -0.0412
     18 Cl1         0.1568   -9.2416    6.3463 Cl        1 <0>        -0.0548
     19 H1          1.0042    1.8801    0.0026 H         1 <0>         0.0663
     20 H2         -0.5455    1.8639   -0.8728 H         1 <0>         0.0640
     21 H3         -0.5286    1.8543    0.9071 H         1 <0>         0.0634
     22 H4         -0.0065   -0.1405   -2.1315 H         1 <0>         0.1267
     23 H5          0.0269   -2.6012   -2.1507 H         1 <0>         0.1264
     24 H6          0.0473   -2.6245    2.1261 H         1 <0>         0.1133
     25 H7          0.0248   -0.1635    2.1338 H         1 <0>         0.1243
     26 H8          0.0603   -4.6478   -0.8636 H         1 <0>         0.4353
     27 H9          0.0712   -4.3940    2.0312 H         1 <0>         0.4213
     28 H10         0.0800   -5.1994    3.6810 H         1 <0>         0.1338
     29 H11         0.1071   -6.4491    5.7986 H         1 <0>         0.1442
     30 H12         0.1663  -10.1340    3.6437 H         1 <0>         0.1456
     31 H13         0.1279   -8.9019    1.5159 H         1 <0>         0.1496
@<TRIPOS>BOND
     1    1    2 1
     2    1   19 1
     3    1   20 1
     4    1   21 1
     5    2    7 ar
     6    2    3 ar
     7    3    4 ar
     8    3   22 1
     9    4    5 ar
    10    4   23 1
    11    5    6 ar
    12    5    8 1
    13    6    7 ar
    14    6   24 1
    15    7   25 1
    16    8    9 1
    17    8   26 1
    18    9   10 am
    19    9   27 1
    20   10   11 2
    21   10   12 1
    22   12   17 ar
    23   12   13 ar
    24   13   14 ar
    25   13   28 1
    26   14   15 ar
    27   14   29 1
    28   15   16 ar
    29   15   18 1
    30   16   17 ar
    31   16   30 1
    32   17   31 1
@<TRIPOS>MOLECULE
CHEMBL42485
   35    37     0     0     0
SMALL
USER_CHARGES

@<TRIPOS>ATOM
      1 C1          0.5182    1.3282    0.5392 C.3       1 <0>        -0.6505
      2 S1          0.5973   -0.4799    0.4166 S.o2      1 <0>         2.4980
      3 O1          1.5493   -0.9919    1.3391 O.2       1 <0>        -0.9359
      4 O2         -0.7138   -1.0239    0.3518 O.2       1 <0>        -0.9361
      5 C2          1.2942   -0.7961   -1.1705 C.ar      1 <0>        -0.6580
      6 C3          0.4675   -0.9297   -2.2717 C.ar      1 <0>        -0.0199
      7 C4          1.0072   -1.1777   -3.5171 C.ar      1 <0>        -0.1275
      8 C5          2.3892   -1.2933   -3.6646 C.ar      1 <0>         0.0261
      9 C6          3.2175   -1.1572   -2.5508 C.ar      1 <0>        -0.1188
     10 C7          2.6662   -0.9041   -1.3114 C.ar      1 <0>        -0.0195
     11 C8          2.9751   -1.5601   -4.9989 C.2       1 <0>        -0.0892
     12 C9          2.5816   -2.6624   -5.7465 C.2       1 <0>        -0.0929
     13 C10         3.1406   -2.8711   -6.9618 C.2       1 <0>        -0.1803
     14 S2          4.2691   -1.4971   -7.1117 S.3       1 <0>         0.1458
     15 C11         3.9321   -0.7114   -5.5448 C.2       1 <0>        -0.0820
     16 C12         4.5182    0.5179   -4.9755 C.ar      1 <0>        -0.0313
     17 C13         5.9012    0.7121   -5.0010 C.ar      1 <0>        -0.0667
     18 C14         6.4431    1.8628   -4.4681 C.ar      1 <0>        -0.1497
     19 C15         5.6183    2.8252   -3.9075 C.ar      1 <0>         0.1155
     20 C16         4.2454    2.6381   -3.8793 C.ar      1 <0>        -0.1512
     21 C17         3.6916    1.4940   -4.4144 C.ar      1 <0>        -0.0560
     22 F1          6.1548    3.9502   -3.3861 F         1 <0>        -0.1334
     23 Br1         2.8085   -4.2683   -8.1920 Br        1 <0>         0.0481
     24 H1          1.5224    1.7427    0.4499 H         1 <0>         0.1318
     25 H2         -0.1090    1.7196   -0.2617 H         1 <0>         0.1318
     26 H3          0.0937    1.6088    1.5032 H         1 <0>         0.1340
     27 H4         -0.6026   -0.8399   -2.1563 H         1 <0>         0.1455
     28 H5          0.3608   -1.2825   -4.3759 H         1 <0>         0.1355
     29 H6          4.2884   -1.2457   -2.6588 H         1 <0>         0.1330
     30 H7          3.3068   -0.7945   -0.4489 H         1 <0>         0.1448
     31 H8          1.8385   -3.3456   -5.3626 H         1 <0>         0.1476
     32 H9          6.5450   -0.0376   -5.4369 H         1 <0>         0.1386
     33 H10         7.5122    2.0141   -4.4872 H         1 <0>         0.1440
     34 H11         3.6076    3.3915   -3.4412 H         1 <0>         0.1426
     35 H12         2.6213    1.3513   -4.3959 H         1 <0>         0.1361
@<TRIPOS>BOND
     1    1    2 1
     2    1   24 1
     3    1   25 1
     4    1   26 1
     5    2    3 2
     6    2    4 2
     7    2    5 1
     8    5   10 ar
     9    5    6 ar
    10    6    7 ar
    11    6   27 1
    12    7    8 ar
    13    7   28 1
    14    8    9 ar
    15    8   11 1
    16    9   10 ar
    17    9   29 1
    18   10   30 1
    19   11   15 2
    20   11   12 1
    21   12   13 2
    22   12   31 1
    23   13   14 1
    24   13   23 1
    25   14   15 1
    26   15   16 1
    27   16   21 ar
    28   16   17 ar
    29   17   18 ar
    30   17   32 1
    31   18   19 ar
    32   18   33 1
    33   19   20 ar
    34   19   22 1
    35   20   21 ar
    36   20   34 1
    37   21   35 1
@<TRIPOS>MOLECULE
CHEMBL95643
   57    60     0     0     0
SMALL
USER_CHARGES

@<TRIPOS>ATOM
      1 C1         -0.0182    1.5027    0.0102 C.3       1 <0>        -0.1070
      2 C2          0.0021   -0.0042    0.0020 C.2       1 <0>         0.1256
      3 C3          0.0074   -0.7679   -1.0995 C.2       1 <0>        -0.1541
      4 C4          0.0293   -2.1662   -0.6567 C.ar      1 <0>        -0.0353
      5 C5          0.0428   -3.3917   -1.3243 C.ar      1 <0>        -0.1119
      6 C6          0.0625   -4.5656   -0.5961 C.ar      1 <0>         0.1144
      7 C7          0.0688   -4.5275    0.7953 C.ar      1 <0>        -0.1747
      8 C8          0.0551   -3.3226    1.4635 C.ar      1 <0>        -0.0820
      9 C9          0.0357   -2.1316    0.7482 C.ar      1 <0>         0.0766
     10 N1          0.0240   -0.7990    1.1223 N.am      1 <0>        -0.5036
     11 C10         0.0297   -0.3494    2.3928 C.2       1 <0>         0.6020
     12 O1         -1.0174   -0.0751    2.9450 O.2       1 <0>        -0.4266
     13 C11         1.3084   -0.1902    3.1139 C.ar      1 <0>        -0.1660
     14 C12         2.5190   -0.3985    2.4491 C.ar      1 <0>        -0.0428
     15 C13         3.7097   -0.2483    3.1279 C.ar      1 <0>        -0.1207
     16 C14         3.7070    0.1084    4.4664 C.ar      1 <0>         0.0042
     17 C15         2.5096    0.3160    5.1314 C.ar      1 <0>        -0.1230
     18 C16         1.3125    0.1750    4.4621 C.ar      1 <0>        -0.0376
     19 Cl1         5.2103    0.2955    5.3141 Cl        1 <0>        -0.0516
     20 O2          0.0753   -5.7626   -1.2410 O.3       1 <0>        -0.3161
     21 C17         0.0954   -6.9375   -0.4278 C.3       1 <0>         0.0269
     22 C18        -0.0069   -0.2812   -2.5257 C.3       1 <0>        -0.0355
     23 C19         1.4090   -0.0991   -3.0085 C.2       1 <0>         0.4598
     24 O3          2.3347   -0.3399   -2.2703 O.2       1 <0>        -0.4935
     25 O4          1.6417    0.3305   -4.2587 O.3       1 <0>        -0.3543
     26 C20         3.0081    0.4805   -4.6494 C.3       1 <0>         0.0724
     27 C21         3.0736    0.9750   -6.0958 C.3       1 <0>        -0.0784
     28 C22         4.5146    1.1332   -6.5078 C.ar      1 <0>        -0.0874
     29 C23         5.1634    2.3368   -6.3048 C.ar      1 <0>        -0.1131
     30 C24         6.4851    2.4819   -6.6827 C.ar      1 <0>        -0.1184
     31 C25         7.1582    1.4232   -7.2632 C.ar      1 <0>        -0.1194
     32 C26         6.5097    0.2192   -7.4653 C.ar      1 <0>        -0.1181
     33 C27         5.1892    0.0728   -7.0835 C.ar      1 <0>        -0.1127
     34 H1          1.0044    1.8799    0.0025 H         1 <0>         0.0867
     35 H2         -0.5453    1.8638   -0.8729 H         1 <0>         0.0945
     36 H3         -0.5284    1.8543    0.9070 H         1 <0>         0.0727
     37 H4          0.0376   -3.4222   -2.4038 H         1 <0>         0.1337
     38 H5          0.0842   -5.4504    1.3560 H         1 <0>         0.1362
     39 H6          0.0595   -3.3039    2.5434 H         1 <0>         0.1232
     40 H7          2.5224   -0.6770    1.4056 H         1 <0>         0.1439
     41 H8          4.6464   -0.4095    2.6151 H         1 <0>         0.1451
     42 H9          2.5140    0.5936    6.1751 H         1 <0>         0.1467
     43 H10         0.3798    0.3418    4.9804 H         1 <0>         0.1480
     44 H11         0.1040   -7.8210   -1.0660 H         1 <0>         0.1010
     45 H12         0.9887   -6.9318    0.1968 H         1 <0>         0.0554
     46 H13        -0.7911   -6.9558    0.2062 H         1 <0>         0.0556
     47 H14        -0.5139   -1.0132   -3.1543 H         1 <0>         0.1185
     48 H15        -0.5343    0.6712   -2.5793 H         1 <0>         0.1159
     49 H16         3.4956    1.2037   -3.9957 H         1 <0>         0.0687
     50 H17         3.5161   -0.4807   -4.5707 H         1 <0>         0.0694
     51 H18         2.5861    0.2518   -6.7495 H         1 <0>         0.0854
     52 H19         2.5656    1.9362   -6.1745 H         1 <0>         0.0851
     53 H20         4.6375    3.1640   -5.8513 H         1 <0>         0.1230
     54 H21         6.9918    3.4225   -6.5248 H         1 <0>         0.1235
     55 H22         8.1906    1.5367   -7.5591 H         1 <0>         0.1228
     56 H23         7.0355   -0.6078   -7.9191 H         1 <0>         0.1238
     57 H24         4.6836   -0.8689   -7.2380 H         1 <0>         0.1234
@<TRIPOS>BOND
     1    1    2 1
     2    1   34 1
     3    1   35 1
     4    1   36 1
     5    2   10 1
     6    2    3 2
     7    3    4 1
     8    3   22 1
     9    4    9 ar
    10    4    5 ar
    11    5    6 ar
    12    5   37 1
    13    6    7 ar
    14    6   20 1
    15    7    8 ar
    16    7   38 1
    17    8    9 ar
    18    8   39 1
    19    9   10 1
    20   10   11 am
    21   11   12 2
    22   11   13 1
    23   13   18 ar
    24   13   14 ar
    25   14   15 ar
    26   14   40 1
    27   15   16 ar
    28   15   41 1
    29   16   17 ar
    30   16   19 1
    31   17   18 ar
    32   17   42 1
    33   18   43 1
    34   20   21 1
    35   21   44 1
    36   21   45 1
    37   21   46 1
    38   22   23 1
    39   22   47 1
    40   22   48 1
    41   23   24 2
    42   23   25 1
    43   25   26 1
    44   26   27 1
    45   26   49 1
    46   26   50 1
    47   27   28 1
    48   27   51 1
    49   27   52 1
    50   28   33 ar
    51   28   29 ar
    52   29   30 ar
    53   29   53 1
    54   30   31 ar
    55   30   54 1
    56   31   32 ar
    57   31   55 1
    58   32   33 ar
    59   32   56 1
    60   33   57 1
@<TRIPOS>MOLECULE
CHEMBL331278
   47    50     0     0     0
SMALL
USER_CHARGES

@<TRIPOS>ATOM
      1 C1         -0.2838   -2.6325    1.0833 C.3       1 <0>        -0.6499
      2 S1          0.4504   -1.0158    0.7121 S.o2      1 <0>         2.4985
      3 O1         -0.5694   -0.0371    0.5660 O.2       1 <0>        -0.9343
      4 O2          1.5660   -0.7786    1.5598 O.2       1 <0>        -0.9351
      5 C2          1.1398   -1.1909   -0.8999 C.ar      1 <0>        -0.6567
      6 C3          2.4454   -1.6253   -1.0471 C.ar      1 <0>        -0.0152
      7 C4          2.9914   -1.7646   -2.3061 C.ar      1 <0>        -0.1360
      8 C5          2.2233   -1.4667   -3.4336 C.ar      1 <0>         0.0355
      9 C6          0.9064   -1.0293   -3.2778 C.ar      1 <0>        -0.1151
     10 C7          0.3714   -0.8990   -2.0130 C.ar      1 <0>        -0.0160
     11 C8          2.8015   -1.6131   -4.7852 C.2       1 <0>         0.0319
     12 C9          2.1055   -1.7292   -5.9734 C.2       1 <0>         0.0204
     13 N1          2.9858   -1.8399   -6.9588 N.2       1 <0>        -0.4246
     14 C10         4.2092   -1.8011   -6.4668 C.2       1 <0>         0.1468
     15 N2          4.1322   -1.6543   -5.1063 N.pl3     1 <0>        -0.3660
     16 C11         5.2085   -1.5663   -4.2146 C.ar      1 <0>         0.0846
     17 C12         5.4764   -0.3689   -3.5641 C.ar      1 <0>        -0.0679
     18 C13         6.5382   -0.2842   -2.6853 C.ar      1 <0>        -0.1412
     19 C14         7.3358   -1.3923   -2.4525 C.ar      1 <0>         0.1252
     20 C15         7.0706   -2.5872   -3.1006 C.ar      1 <0>        -0.1395
     21 C16         6.0060   -2.6778   -3.9755 C.ar      1 <0>        -0.0522
     22 F1          8.3741   -1.3074   -1.5924 F         1 <0>        -0.1274
     23 C17         5.4495   -1.8948   -7.2487 C.2       1 <0>         0.4811
     24 O3          6.5252   -1.9319   -6.6812 O.2       1 <0>        -0.4391
     25 C18         5.3907   -1.9441   -8.7247 C.ar      1 <0>        -0.1633
     26 C19         4.1572   -2.0178   -9.3756 C.ar      1 <0>        -0.0670
     27 C20         4.1096   -2.0634  -10.7532 C.ar      1 <0>        -0.1395
     28 C21         5.2805   -2.0364  -11.4904 C.ar      1 <0>        -0.0809
     29 C22         6.5062   -1.9634  -10.8521 C.ar      1 <0>        -0.1401
     30 C23         6.5682   -1.9113   -9.4752 C.ar      1 <0>        -0.0564
     31 H1         -1.0477   -2.8637    0.3410 H         1 <0>         0.1328
     32 H2          0.4915   -3.3982    1.0574 H         1 <0>         0.1318
     33 H3         -0.7363   -2.6071    2.0746 H         1 <0>         0.1348
     34 H4          3.0383   -1.8554   -0.1742 H         1 <0>         0.1463
     35 H5          4.0107   -2.1030   -2.4196 H         1 <0>         0.1324
     36 H6          0.3069   -0.7972   -4.1456 H         1 <0>         0.1432
     37 H7         -0.6483   -0.5647   -1.8911 H         1 <0>         0.1505
     38 H8          1.0308   -1.7302   -6.0807 H         1 <0>         0.1929
     39 H9          4.8549    0.4955   -3.7456 H         1 <0>         0.1404
     40 H10         6.7471    0.6468   -2.1794 H         1 <0>         0.1509
     41 H11         7.6941   -3.4500   -2.9182 H         1 <0>         0.1505
     42 H12         5.7964   -3.6112   -4.4767 H         1 <0>         0.1391
     43 H13         3.2427   -2.0393   -8.8014 H         1 <0>         0.1736
     44 H14         3.1565   -2.1208  -11.2578 H         1 <0>         0.1302
     45 H15         5.2375   -2.0727  -12.5690 H         1 <0>         0.1275
     46 H16         7.4161   -1.9426  -11.4335 H         1 <0>         0.1300
     47 H17         7.5252   -1.8495   -8.9784 H         1 <0>         0.1324
@<TRIPOS>BOND
     1    1    2 1
     2    1   31 1
     3    1   32 1
     4    1   33 1
     5    2    3 2
     6    2    4 2
     7    2    5 1
     8    5   10 ar
     9    5    6 ar
    10    6    7 ar
    11    6   34 1
    12    7    8 ar
    13    7   35 1
    14    8    9 ar
    15    8   11 1
    16    9   10 ar
    17    9   36 1
    18   10   37 1
    19   11   15 1
    20   11   12 2
    21   12   13 1
    22   12   38 1
    23   13   14 2
    24   14   15 1
    25   14   23 1
    26   15   16 1
    27   16   21 ar
    28   16   17 ar
    29   17   18 ar
    30   17   39 1
    31   18   19 ar
    32   18   40 1
    33   19   20 ar
    34   19   22 1
    35   20   21 ar
    36   20   41 1
    37   21   42 1
    38   23   24 2
    39   23   25 1
    40   25   30 ar
    41   25   26 ar
    42   26   27 ar
    43   26   43 1
    44   27   28 ar
    45   27   44 1
    46   28   29 ar
    47   28   45 1
    48   29   30 ar
    49   29   46 1
    50   30   47 1
@<TRIPOS>MOLECULE
CHEMBL373514
   62    66     0     0     0
SMALL
USER_CHARGES

@<TRIPOS>ATOM
      1 C1          2.4407   -0.4773    1.3650 C.3       1 <0>        -0.6501
      2 S1          0.9829   -0.4813    0.2855 S.o2      1 <0>         2.5006
      3 O1          0.1652   -1.6077    0.5715 O.2       1 <0>        -0.9331
      4 O2          0.4217    0.8223    0.2160 O.2       1 <0>        -0.9330
      5 C2          1.6168   -0.7846   -1.3304 C.ar      1 <0>        -0.6612
      6 C3          1.9948    0.2758   -2.1334 C.ar      1 <0>        -0.0064
      7 C4          2.4916    0.0414   -3.4006 C.ar      1 <0>        -0.1358
      8 C5          2.6117   -1.2607   -3.8678 C.ar      1 <0>         0.2059
      9 C6          2.2317   -2.3234   -3.0588 C.ar      1 <0>        -0.1283
     10 C7          1.7405   -2.0827   -1.7906 C.ar      1 <0>        -0.0051
     11 N1          3.1148   -1.5018   -5.1528 N.pl3     1 <0>        -0.3316
     12 C8          4.2158   -0.9165   -5.7099 C.2       1 <0>         0.1300
     13 C9          4.3549   -1.4292   -6.9690 C.2       1 <0>        -0.2139
     14 C10         3.3193   -2.3408   -7.1767 C.2       1 <0>         0.0837
     15 N2          2.5827   -2.3909   -6.0953 N.2       1 <0>        -0.2641
     16 C11         3.0902   -3.1392   -8.4341 C.3       1 <0>         0.1467
     17 O3          4.1018   -2.8205   -9.3917 O.3       1 <0>        -0.3082
     18 C12         4.0402   -3.4588  -10.5899 C.ar      1 <0>         0.1794
     19 C13         3.0228   -4.3694  -10.8401 C.ar      1 <0>        -0.2646
     20 C14         2.9588   -5.0194  -12.0578 C.ar      1 <0>        -0.0300
     21 C15         3.9068   -4.7654  -13.0301 C.ar      1 <0>        -0.2325
     22 C16         4.9274   -3.8551  -12.7853 C.ar      1 <0>         0.2563
     23 C17         4.9898   -3.1969  -11.5645 C.ar      1 <0>        -0.2304
     24 N3          5.8859   -3.5981  -13.7682 N.pl3     1 <0>        -0.6296
     25 C18         7.0488   -2.7416  -13.4865 C.3       1 <0>         0.0846
     26 C19         8.3150   -3.4857  -13.9259 C.3       1 <0>         0.0457
     27 O4          8.1598   -3.9208  -15.2788 O.3       1 <0>        -0.3790
     28 C20         7.0918   -4.8505  -15.4757 C.3       1 <0>         0.0452
     29 C21         5.7659   -4.1809  -15.1140 C.3       1 <0>         0.0855
     30 C22         5.0945    0.0866   -5.0695 C.ar      1 <0>        -0.0438
     31 C23         5.1987    0.1408   -3.6792 C.ar      1 <0>        -0.1075
     32 C24         6.0203    1.0784   -3.0880 C.ar      1 <0>        -0.1168
     33 C25         6.7399    1.9635   -3.8707 C.ar      1 <0>        -0.1038
     34 C26         6.6406    1.9153   -5.2498 C.ar      1 <0>        -0.1161
     35 C27         5.8269    0.9786   -5.8534 C.ar      1 <0>        -0.0848
     36 H1          2.9413   -1.4436    1.3030 H         1 <0>         0.1327
     37 H2          3.1263    0.3081    1.0468 H         1 <0>         0.1326
     38 H3          2.1305   -0.2941    2.3937 H         1 <0>         0.1355
     39 H4          1.9011    1.2883   -1.7695 H         1 <0>         0.1542
     40 H5          2.7860    0.8700   -4.0276 H         1 <0>         0.1419
     41 H6          2.3240   -3.3373   -3.4193 H         1 <0>         0.1442
     42 H7          1.4485   -2.9089   -1.1593 H         1 <0>         0.1541
     43 H8          5.1288   -1.1738   -7.6776 H         1 <0>         0.1635
     44 H9          3.1324   -4.2033   -8.2015 H         1 <0>         0.0890
     45 H10         2.1107   -2.8958   -8.8456 H         1 <0>         0.0892
     46 H11         2.2804   -4.5703  -10.0819 H         1 <0>         0.1258
     47 H12         2.1663   -5.7276  -12.2496 H         1 <0>         0.1258
     48 H13         3.8547   -5.2750  -13.9809 H         1 <0>         0.1239
     49 H14         5.7794   -2.4852  -11.3733 H         1 <0>         0.1307
     50 H15         6.9602   -1.8080  -14.0421 H         1 <0>         0.0725
     51 H16         7.0991   -2.5304  -12.4184 H         1 <0>         0.0944
     52 H17         9.1732   -2.8175  -13.8545 H         1 <0>         0.1061
     53 H18         8.4714   -4.3504  -13.2810 H         1 <0>         0.0564
     54 H19         7.0699   -5.1642  -16.5193 H         1 <0>         0.1063
     55 H20         7.2437   -5.7202  -14.8364 H         1 <0>         0.0561
     56 H21         4.9669   -4.9223  -15.1231 H         1 <0>         0.0950
     57 H22         5.5459   -3.3947  -15.8362 H         1 <0>         0.0725
     58 H23         4.6372   -0.5495   -3.0671 H         1 <0>         0.1240
     59 H24         6.1016    1.1216   -2.0119 H         1 <0>         0.1283
     60 H25         7.3817    2.6956   -3.4032 H         1 <0>         0.1282
     61 H26         7.2044    2.6095   -5.8553 H         1 <0>         0.1313
     62 H27         5.7540    0.9387   -6.9302 H         1 <0>         0.1319
@<TRIPOS>BOND
     1    1    2 1
     2    1   36 1
     3    1   37 1
     4    1   38 1
     5    2    3 2
     6    2    4 2
     7    2    5 1
     8    5   10 ar
     9    5    6 ar
    10    6    7 ar
    11    6   39 1
    12    7    8 ar
    13    7   40 1
    14    8    9 ar
    15    8   11 1
    16    9   10 ar
    17    9   41 1
    18   10   42 1
    19   11   15 1
    20   11   12 1
    21   12   13 2
    22   12   30 1
    23   13   14 1
    24   13   43 1
    25   14   15 2
    26   14   16 1
    27   16   17 1
    28   16   44 1
    29   16   45 1
    30   17   18 1
    31   18   23 ar
    32   18   19 ar
    33   19   20 ar
    34   19   46 1
    35   20   21 ar
    36   20   47 1
    37   21   22 ar
    38   21   48 1
    39   22   23 ar
    40   22   24 1
    41   23   49 1
    42   24   29 1
    43   24   25 1
    44   25   26 1
    45   25   50 1
    46   25   51 1
    47   26   27 1
    48   26   52 1
    49   26   53 1
    50   27   28 1
    51   28   29 1
    52   28   54 1
    53   28   55 1
    54   29   56 1
    55   29   57 1
    56   30   35 ar
    57   30   31 ar
    58   31   32 ar
    59   31   58 1
    60   32   33 ar
    61   32   59 1
    62   33   34 ar
    63   33   60 1
    64   34   35 ar
    65   34   61 1
    66   35   62 1
@<TRIPOS>MOLECULE
CHEMBL463763
   50    56     0     0     0
SMALL
USER_CHARGES

@<TRIPOS>ATOM
      1 C1         -0.0187    1.5258    0.0104 C.3       1 <0>        -0.1555
      2 C2          0.0021   -0.0041    0.0020 C.3       1 <0>        -0.0831
      3 C3          0.7421   -0.5109    1.2415 C.3       1 <0>        -0.1447
      4 C4         -1.4333   -0.5336    0.0129 C.3       1 <0>         0.0120
      5 C5         -1.5673   -2.0526    0.0681 C.3       1 <0>        -0.0036
      6 H1         -0.6560   -2.6504    0.0805 H         1 <0>         0.1465
      7 O1         -1.8407   -1.1870    1.1930 O.3       1 <0>        -0.3049
      8 C6         -2.8074   -2.7289   -0.5201 C.3       1 <0>         0.0062
      9 H2         -3.0719   -3.6927   -0.0850 H         1 <0>         0.1466
     10 C7         -3.9455   -1.8375   -1.0242 C.3       1 <0>         0.0616
     11 O2         -3.0498   -2.5387   -1.9193 O.3       1 <0>        -0.2911
     12 C8         -5.3650   -2.3750   -0.8026 C.3       1 <0>        -0.0264
     13 C9         -5.3591   -3.9019   -0.8817 C.3       1 <0>        -0.1170
     14 C10        -6.7998   -4.4245   -0.8361 C.3       1 <0>        -0.0533
     15 C11        -7.5145   -3.7722    0.3230 C.2       1 <0>        -0.1960
     16 C12        -7.0767   -2.6759    0.9482 C.2       1 <0>        -0.0924
     17 C13        -5.8174   -1.9352    0.5941 C.3       1 <0>        -0.0194
     18 H3         -5.0411   -2.1913    1.3151 H         1 <0>         0.1072
     19 C14        -6.0397   -0.4345    0.6386 C.3       1 <0>        -0.1097
     20 C15        -4.8587    0.3476    0.0787 C.3       1 <0>         0.0411
     21 H4         -4.5268    1.1923    0.6823 H         1 <0>         0.1381
     22 C16        -3.8166   -0.3315   -0.7983 C.3       1 <0>         0.0601
     23 C17        -2.3855    0.2086   -0.9057 C.3       1 <0>         0.1564
     24 H5         -2.3921    1.2639   -0.6330 H         1 <0>         0.0842
     25 O3         -1.9279    0.0802   -2.2533 O.3       1 <0>        -0.5263
     26 O4         -4.8415    0.5082   -1.3478 O.3       1 <0>        -0.3245
     27 C18        -8.0686   -2.3575    2.0327 C.3       1 <0>         0.0693
     28 O5         -9.0851   -3.3649    1.9536 O.3       1 <0>        -0.3168
     29 C19        -8.7651   -4.2033    0.9486 C.2       1 <0>         0.5027
     30 O6         -9.4173   -5.1720    0.6119 O.2       1 <0>        -0.4483
     31 C20        -6.3076   -1.7918   -1.8572 C.3       1 <0>        -0.1597
     32 H6          1.0039    1.9031    0.0027 H         1 <0>         0.0694
     33 H7         -0.5459    1.8868   -0.8726 H         1 <0>         0.0574
     34 H8         -0.5289    1.8773    0.9072 H         1 <0>         0.0631
     35 H9          0.5123   -0.3556   -0.8948 H         1 <0>         0.0927
     36 H10         0.7568   -1.6008    1.2356 H         1 <0>         0.0572
     37 H11         1.7647   -0.1336    1.2338 H         1 <0>         0.0637
     38 H12         0.2319   -0.1594    2.1383 H         1 <0>         0.0647
     39 H13        -4.8886   -4.2152   -1.8136 H         1 <0>         0.0888
     40 H14        -4.7992   -4.3068   -0.0387 H         1 <0>         0.0730
     41 H15        -7.3089   -4.1749   -1.7670 H         1 <0>         0.0912
     42 H16        -6.7923   -5.5059   -0.6993 H         1 <0>         0.0904
     43 H17        -6.9299   -0.1926    0.0579 H         1 <0>         0.0939
     44 H18        -6.2035   -0.1330    1.6732 H         1 <0>         0.0979
     45 H19        -1.0425    0.4385   -2.4039 H         1 <0>         0.3829
     46 H20        -7.5820   -2.3919    3.0074 H         1 <0>         0.1217
     47 H21        -8.5036   -1.3723    1.8651 H         1 <0>         0.1203
     48 H22        -5.9634   -2.0791   -2.8508 H         1 <0>         0.0630
     49 H23        -7.3149   -2.1760   -1.6965 H         1 <0>         0.0634
     50 H24        -6.3160   -0.7049   -1.7758 H         1 <0>         0.0857
@<TRIPOS>BOND
     1    1    2 1
     2    1   32 1
     3    1   33 1
     4    1   34 1
     5    2    3 1
     6    2    4 1
     7    2   35 1
     8    3   36 1
     9    3   37 1
    10    3   38 1
    11    4    7 1
    12    4   23 1
    13    4    5 1
    14    5    6 1
    15    5    7 1
    16    5    8 1
    17    8    9 1
    18    8   11 1
    19    8   10 1
    20   10   22 1
    21   10   11 1
    22   10   12 1
    23   12   17 1
    24   12   13 1
    25   12   31 1
    26   13   14 1
    27   13   39 1
    28   13   40 1
    29   14   15 1
    30   14   41 1
    31   14   42 1
    32   15   29 1
    33   15   16 2
    34   16   17 1
    35   16   27 1
    36   17   18 1
    37   17   19 1
    38   19   20 1
    39   19   43 1
    40   19   44 1
    41   20   21 1
    42   20   26 1
    43   20   22 1
    44   22   23 1
    45   22   26 1
    46   23   24 1
    47   23   25 1
    48   25   45 1
    49   27   28 1
    50   27   46 1
    51   27   47 1
    52   28   29 1
    53   29   30 2
    54   31   48 1
    55   31   49 1
    56   31   50 1
@<TRIPOS>MOLECULE
CHEMBL138191
   43    45     0     0     0
SMALL
USER_CHARGES

@<TRIPOS>ATOM
      1 C1          0.3580    1.3923    0.4419 C.3       1 <0>        -0.4970
      2 S1          0.3194   -0.4123    0.2608 S.o       1 <0>         1.3300
      3 O1          1.2202   -1.0008    1.1889 O.2       1 <0>        -0.8518
      4 C2          1.0731   -0.6997   -1.3057 C.ar      1 <0>        -0.4528
      5 C3          0.2984   -0.7308   -2.4501 C.ar      1 <0>        -0.0372
      6 C4          0.8897   -0.9563   -3.6791 C.ar      1 <0>        -0.1248
      7 C5          2.2557   -1.1502   -3.7637 C.ar      1 <0>        -0.0725
      8 C6          3.0305   -1.1182   -2.6194 C.ar      1 <0>        -0.1066
      9 C7          2.4398   -0.8885   -1.3909 C.ar      1 <0>        -0.0506
     10 C8          2.9002   -1.3970   -5.1034 C.3       1 <0>         0.1494
     11 C9          3.2957   -2.8472   -5.2110 C.2       1 <0>         0.4058
     12 O2          4.4463   -3.1779   -5.0174 O.2       1 <0>        -0.4339
     13 C10         2.2868   -3.8611   -5.5508 C.ar      1 <0>        -0.1822
     14 C11         0.9594   -3.4821   -5.7805 C.ar      1 <0>        -0.0431
     15 C12         0.0189   -4.4371   -6.0984 C.ar      1 <0>        -0.1629
     16 C13         0.3851   -5.7719   -6.1905 C.ar      1 <0>         0.1394
     17 C14         1.6992   -6.1542   -5.9641 C.ar      1 <0>        -0.1647
     18 C15         2.6507   -5.2085   -5.6515 C.ar      1 <0>        -0.0253
     19 F1         -0.5423   -6.7037   -6.5018 F         1 <0>        -0.1289
     20 N1          4.0917   -0.5548   -5.2347 N.pl3     1 <0>        -0.7263
     21 C16         3.9724    0.7563   -5.7022 C.ar      1 <0>         0.1659
     22 C17         5.1073    1.5299   -5.9349 C.ar      1 <0>        -0.1480
     23 C18         4.9377    2.8240   -6.3982 C.ar      1 <0>        -0.1212
     24 C19         3.6582    3.3023   -6.6128 C.ar      1 <0>         0.0412
     25 N2          2.6040    2.5446   -6.3827 N.ar      1 <0>        -0.4444
     26 C20         2.7206    1.3059   -5.9472 C.ar      1 <0>         0.0284
     27 H1          1.3912    1.7382    0.4137 H         1 <0>         0.0808
     28 H2         -0.2013    1.8513   -0.3733 H         1 <0>         0.1127
     29 H3         -0.0928    1.6716    1.3942 H         1 <0>         0.1085
     30 H4         -0.7689   -0.5793   -2.3840 H         1 <0>         0.1437
     31 H5          0.2843   -0.9813   -4.5732 H         1 <0>         0.1334
     32 H6          4.0978   -1.2701   -2.6854 H         1 <0>         0.1238
     33 H7          3.0457   -0.8598   -0.4973 H         1 <0>         0.1283
     34 H8          2.1938   -1.1533   -5.8969 H         1 <0>         0.1184
     35 H9          0.6729   -2.4433   -5.7083 H         1 <0>         0.1412
     36 H10        -1.0058   -4.1460   -6.2759 H         1 <0>         0.1479
     37 H11         1.9778   -7.1951   -6.0374 H         1 <0>         0.1463
     38 H12         3.6744   -5.5070   -5.4798 H         1 <0>         0.1459
     39 H13         4.9635   -0.9075   -4.9970 H         1 <0>         0.4109
     40 H14         6.0950    1.1304   -5.7582 H         1 <0>         0.1332
     41 H15         5.7950    3.4525   -6.5892 H         1 <0>         0.1361
     42 H16         3.5205    4.3109   -6.9736 H         1 <0>         0.1543
     43 H17         1.8338    0.7142   -5.7746 H         1 <0>         0.1483
@<TRIPOS>BOND
     1    1    2 1
     2    1   27 1
     3    1   28 1
     4    1   29 1
     5    2    3 2
     6    2    4 1
     7    4    9 ar
     8    4    5 ar
     9    5    6 ar
    10    5   30 1
    11    6    7 ar
    12    6   31 1
    13    7    8 ar
    14    7   10 1
    15    8    9 ar
    16    8   32 1
    17    9   33 1
    18   10   11 1
    19   10   20 1
    20   10   34 1
    21   11   12 2
    22   11   13 1
    23   13   18 ar
    24   13   14 ar
    25   14   15 ar
    26   14   35 1
    27   15   16 ar
    28   15   36 1
    29   16   17 ar
    30   16   19 1
    31   17   18 ar
    32   17   37 1
    33   18   38 1
    34   20   21 1
    35   20   39 1
    36   21   26 ar
    37   21   22 ar
    38   22   23 ar
    39   22   40 1
    40   23   24 ar
    41   23   41 1
    42   24   25 ar
    43   24   42 1
    44   25   26 ar
    45   26   43 1
@<TRIPOS>MOLECULE
CHEMBL138191__1
   43    45     0     0     0
SMALL
USER_CHARGES

@<TRIPOS>ATOM
      1 C1         -0.4770    0.2672    0.1358 C.3       1 <0>        -0.4977
      2 S1         -0.1076   -1.4832   -0.1645 S.o       1 <0>         1.3307
      3 O1          0.8367   -1.9392    0.7944 O.2       1 <0>        -0.8513
      4 C2          0.7929   -1.4750   -1.6790 C.ar      1 <0>        -0.4527
      5 C3          0.1213   -1.5777   -2.8829 C.ar      1 <0>        -0.0376
      6 C4          0.8278   -1.5713   -4.0711 C.ar      1 <0>        -0.1248
      7 C5          2.2057   -1.4617   -4.0554 C.ar      1 <0>        -0.0728
      8 C6          2.8771   -1.3581   -2.8516 C.ar      1 <0>        -0.1058
      9 C7          2.1704   -1.3602   -1.6635 C.ar      1 <0>        -0.0510
     10 C8          2.9759   -1.4557   -5.3507 C.3       1 <0>         0.1494
     11 C9          3.4671   -0.0600   -5.6366 C.2       1 <0>         0.4062
     12 O2          4.6015    0.2550   -5.3456 O.2       1 <0>        -0.4338
     13 C10         2.5712    0.9196   -6.2682 C.ar      1 <0>        -0.1825
     14 C11         1.2347    0.5898   -6.5198 C.ar      1 <0>        -0.0438
     15 C12         0.4006    1.5123   -7.1119 C.ar      1 <0>        -0.1630
     16 C13         0.8829    2.7658   -7.4590 C.ar      1 <0>         0.1392
     17 C14         2.2066    3.0991   -7.2124 C.ar      1 <0>        -0.1649
     18 C15         3.0497    2.1881   -6.6152 C.ar      1 <0>        -0.0257
     19 F1          0.0598    3.6657   -8.0403 F         1 <0>        -0.1288
     20 N1          4.1205   -2.3637   -5.2425 N.pl3     1 <0>        -0.7265
     21 C16         3.9508   -3.7318   -5.4694 C.ar      1 <0>         0.1662
     22 C17         5.0203   -4.6115   -5.3178 C.ar      1 <0>        -0.1479
     23 C18         4.8026   -5.9586   -5.5541 C.ar      1 <0>        -0.1209
     24 C19         3.5414   -6.3834   -5.9295 C.ar      1 <0>         0.0416
     25 N2          2.5495   -5.5251   -6.0643 N.ar      1 <0>        -0.4441
     26 C20         2.7118   -4.2357   -5.8438 C.ar      1 <0>         0.0290
     27 H1          0.4550    0.8269    0.2152 H         1 <0>         0.0808
     28 H2         -1.0680    0.6609   -0.6911 H         1 <0>         0.1122
     29 H3         -1.0401    0.3657    1.0639 H         1 <0>         0.1085
     30 H4         -0.9552   -1.6633   -2.8952 H         1 <0>         0.1438
     31 H5          0.3032   -1.6523   -5.0117 H         1 <0>         0.1334
     32 H6          3.9537   -1.2728   -2.8393 H         1 <0>         0.1243
     33 H7          2.6946   -1.2755   -0.7231 H         1 <0>         0.1283
     34 H8          2.3260   -1.7853   -6.1614 H         1 <0>         0.1175
     35 H9          0.8582   -0.3860   -6.2507 H         1 <0>         0.1420
     36 H10        -0.6311    1.2590   -7.3067 H         1 <0>         0.1480
     37 H11         2.5759    4.0767   -7.4851 H         1 <0>         0.1463
     38 H12         4.0790    2.4504   -6.4196 H         1 <0>         0.1459
     39 H13         4.9961   -2.0151   -5.0133 H         1 <0>         0.4108
     40 H14         5.9953   -4.2517   -5.0238 H         1 <0>         0.1329
     41 H15         5.6087   -6.6693   -5.4467 H         1 <0>         0.1361
     42 H16         3.3664   -7.4328   -6.1153 H         1 <0>         0.1545
     43 H17         1.8743   -3.5638   -5.9600 H         1 <0>         0.1478
@<TRIPOS>BOND
     1    1    2 1
     2    1   27 1
     3    1   28 1
     4    1   29 1
     5    2    3 2
     6    2    4 1
     7    4    9 ar
     8    4    5 ar
     9    5    6 ar
    10    5   30 1
    11    6    7 ar
    12    6   31 1
    13    7    8 ar
    14    7   10 1
    15    8    9 ar
    16    8   32 1
    17    9   33 1
    18   10   11 1
    19   10   20 1
    20   10   34 1
    21   11   12 2
    22   11   13 1
    23   13   18 ar
    24   13   14 ar
    25   14   15 ar
    26   14   35 1
    27   15   16 ar
    28   15   36 1
    29   16   17 ar
    30   16   19 1
    31   17   18 ar
    32   17   37 1
    33   18   38 1
    34   20   21 1
    35   20   39 1
    36   21   26 ar
    37   21   22 ar
    38   22   23 ar
    39   22   40 1
    40   23   24 ar
    41   23   41 1
    42   24   25 ar
    43   24   42 1
    44   25   26 ar
    45   26   43 1
@<TRIPOS>MOLECULE
CHEMBL138191__2
   43    45     0     0     0
SMALL
USER_CHARGES

@<TRIPOS>ATOM
      1 C1          0.1701    1.3951   -0.5310 C.3       1 <0>        -0.4969
      2 S1          0.0779   -0.4119   -0.4007 S.o       1 <0>         1.3291
      3 O1          0.6032   -0.8238    0.8537 O.2       1 <0>        -0.8510
      4 C2         -1.6479   -0.7423   -0.2693 C.ar      1 <0>        -0.4527
      5 C3         -2.2509   -0.7842    0.9739 C.ar      1 <0>        -0.0485
      6 C4         -3.6048   -1.0434    1.0771 C.ar      1 <0>        -0.1213
      7 C5         -4.3558   -1.2602   -0.0630 C.ar      1 <0>        -0.0722
      8 C6         -3.7530   -1.2174   -1.3063 C.ar      1 <0>        -0.1098
      9 C7         -2.3999   -0.9540   -1.4097 C.ar      1 <0>        -0.0394
     10 C8         -5.8316   -1.5438    0.0494 C.3       1 <0>         0.1490
     11 C9         -6.0860   -3.0018   -0.2342 C.2       1 <0>         0.4078
     12 O2         -6.4850   -3.3464   -1.3264 O.2       1 <0>        -0.4336
     13 C10        -5.8505   -4.0064    0.8130 C.ar      1 <0>        -0.1830
     14 C11        -5.3956   -3.6115    2.0761 C.ar      1 <0>        -0.0432
     15 C12        -5.1769   -4.5579    3.0528 C.ar      1 <0>        -0.1635
     16 C13        -5.4062   -5.8998    2.7864 C.ar      1 <0>         0.1401
     17 C14        -5.8572   -6.2980    1.5365 C.ar      1 <0>        -0.1647
     18 C15        -6.0858   -5.3612    0.5528 C.ar      1 <0>        -0.0247
     19 F1         -5.1889   -6.8231    3.7485 F         1 <0>        -0.1287
     20 N1         -6.5618   -0.7230   -0.9198 N.pl3     1 <0>        -0.7252
     21 C16        -6.9398    0.5802   -0.5873 C.ar      1 <0>         0.1663
     22 C17        -7.7280    1.3311   -1.4565 C.ar      1 <0>        -0.1469
     23 C18        -8.0768    2.6182   -1.0826 C.ar      1 <0>        -0.1211
     24 C19        -7.6352    3.1121    0.1312 C.ar      1 <0>         0.0414
     25 N2         -6.8902    2.3756    0.9318 N.ar      1 <0>        -0.4453
     26 C20        -6.5402    1.1442    0.6174 C.ar      1 <0>         0.0281
     27 H1          1.2128    1.7003   -0.6177 H         1 <0>         0.1085
     28 H2         -0.3794    1.7243   -1.4129 H         1 <0>         0.1115
     29 H3         -0.2678    1.8463    0.3593 H         1 <0>         0.0819
     30 H4         -1.6641   -0.6148    1.8647 H         1 <0>         0.1311
     31 H5         -4.0757   -1.0768    2.0484 H         1 <0>         0.1282
     32 H6         -4.3397   -1.3872   -2.1970 H         1 <0>         0.1289
     33 H7         -1.9297   -0.9169   -2.3812 H         1 <0>         0.1408
     34 H8         -6.1717   -1.3050    1.0571 H         1 <0>         0.1163
     35 H9         -5.2160   -2.5671    2.2845 H         1 <0>         0.1396
     36 H10        -4.8258   -4.2545    4.0280 H         1 <0>         0.1468
     37 H11        -6.0338   -7.3443    1.3356 H         1 <0>         0.1468
     38 H12        -6.4412   -5.6720   -0.4185 H         1 <0>         0.1470
     39 H13        -6.7829   -1.0845   -1.7924 H         1 <0>         0.4114
     40 H14        -8.0585    0.9199   -2.3989 H         1 <0>         0.1342
     41 H15        -8.6864    3.2293   -1.7317 H         1 <0>         0.1365
     42 H16        -7.9041    4.1152    0.4273 H         1 <0>         0.1540
     43 H17        -5.9328    0.5699    1.3012 H         1 <0>         0.1465
@<TRIPOS>BOND
     1    1    2 1
     2    1   27 1
     3    1   28 1
     4    1   29 1
     5    2    3 2
     6    2    4 1
     7    4    9 ar
     8    4    5 ar
     9    5    6 ar
    10    5   30 1
    11    6    7 ar
    12    6   31 1
    13    7    8 ar
    14    7   10 1
    15    8    9 ar
    16    8   32 1
    17    9   33 1
    18   10   11 1
    19   10   20 1
    20   10   34 1
    21   11   12 2
    22   11   13 1
    23   13   18 ar
    24   13   14 ar
    25   14   15 ar
    26   14   35 1
    27   15   16 ar
    28   15   36 1
    29   16   17 ar
    30   16   19 1
    31   17   18 ar
    32   17   37 1
    33   18   38 1
    34   20   21 1
    35   20   39 1
    36   21   26 ar
    37   21   22 ar
    38   22   23 ar
    39   22   40 1
    40   23   24 ar
    41   23   41 1
    42   24   25 ar
    43   24   42 1
    44   25   26 ar
    45   26   43 1
@<TRIPOS>MOLECULE
CHEMBL138191__3
   43    45     0     0     0
SMALL
USER_CHARGES

@<TRIPOS>ATOM
      1 C1          0.3506    0.2773    0.3491 C.3       1 <0>        -0.4975
      2 S1         -0.0502   -1.4843    0.1854 S.o       1 <0>         1.3294
      3 O1          0.2921   -2.1616    1.3868 O.2       1 <0>        -0.8502
      4 C2         -1.8117   -1.5205    0.1627 C.ar      1 <0>        -0.4526
      5 C3         -2.5159   -1.6367    1.3466 C.ar      1 <0>        -0.0489
      6 C4         -3.8978   -1.6651    1.3288 C.ar      1 <0>        -0.1213
      7 C5         -4.5756   -1.5767    0.1272 C.ar      1 <0>        -0.0726
      8 C6         -3.8714   -1.4595   -1.0565 C.ar      1 <0>        -0.1090
      9 C7         -2.4895   -1.4268   -1.0384 C.ar      1 <0>        -0.0397
     10 C8         -6.0821   -1.6086    0.1078 C.3       1 <0>         0.1491
     11 C9         -6.6101   -0.2267   -0.1796 C.2       1 <0>         0.4081
     12 O2         -6.9330    0.0764   -1.3086 O.2       1 <0>        -0.4331
     13 C10        -6.7339    0.7540    0.9086 C.ar      1 <0>        -0.1828
     14 C11        -6.2755    0.4400    2.1930 C.ar      1 <0>        -0.0443
     15 C12        -6.3945    1.3634    3.2082 C.ar      1 <0>        -0.1639
     16 C13        -6.9675    2.6020    2.9597 C.ar      1 <0>         0.1395
     17 C14        -7.4239    2.9196    1.6888 C.ar      1 <0>        -0.1647
     18 C15        -7.3053    2.0076    0.6633 C.ar      1 <0>        -0.0249
     19 F1         -7.0821    3.5029    3.9600 F         1 <0>        -0.1288
     20 N1         -6.5376   -2.5320   -0.9344 N.pl3     1 <0>        -0.7255
     21 C16        -6.6149   -3.9015   -0.6692 C.ar      1 <0>         0.1664
     22 C17        -6.9961   -4.7945   -1.6682 C.ar      1 <0>        -0.1470
     23 C18        -7.0580   -6.1426   -1.3568 C.ar      1 <0>        -0.1211
     24 C19        -6.7421   -6.5550   -0.0754 C.ar      1 <0>         0.0419
     25 N2         -6.3847   -5.6843    0.8480 N.ar      1 <0>        -0.4446
     26 C20        -6.3073   -4.3934    0.5927 C.ar      1 <0>         0.0291
     27 H1          1.4330    0.4030    0.3724 H         1 <0>         0.1085
     28 H2         -0.0605    0.8238   -0.4997 H         1 <0>         0.1116
     29 H3         -0.0800    0.6635    1.2729 H         1 <0>         0.0813
     30 H4         -1.9864   -1.7058    2.2853 H         1 <0>         0.1311
     31 H5         -4.4480   -1.7567    2.2536 H         1 <0>         0.1283
     32 H6         -4.4009   -1.3908   -1.9953 H         1 <0>         0.1293
     33 H7         -1.9394   -1.3315   -1.9629 H         1 <0>         0.1409
     34 H8         -6.4509   -1.9442    1.0770 H         1 <0>         0.1153
     35 H9         -5.8299   -0.5243    2.3880 H         1 <0>         0.1405
     36 H10        -6.0412    1.1224    4.1999 H         1 <0>         0.1467
     37 H11        -7.8690    3.8857    1.5019 H         1 <0>         0.1469
     38 H12        -7.6569    2.2577   -0.3268 H         1 <0>         0.1471
     39 H13        -6.7855   -2.1925   -1.8086 H         1 <0>         0.4112
     40 H14        -7.2377   -4.4442   -2.6608 H         1 <0>         0.1339
     41 H15        -7.3500   -6.8634   -2.1062 H         1 <0>         0.1364
     42 H16        -6.7892   -7.6051    0.1727 H         1 <0>         0.1542
     43 H17        -6.0062   -3.7110    1.3738 H         1 <0>         0.1461
@<TRIPOS>BOND
     1    1    2 1
     2    1   27 1
     3    1   28 1
     4    1   29 1
     5    2    3 2
     6    2    4 1
     7    4    9 ar
     8    4    5 ar
     9    5    6 ar
    10    5   30 1
    11    6    7 ar
    12    6   31 1
    13    7    8 ar
    14    7   10 1
    15    8    9 ar
    16    8   32 1
    17    9   33 1
    18   10   11 1
    19   10   20 1
    20   10   34 1
    21   11   12 2
    22   11   13 1
    23   13   18 ar
    24   13   14 ar
    25   14   15 ar
    26   14   35 1
    27   15   16 ar
    28   15   36 1
    29   16   17 ar
    30   16   19 1
    31   17   18 ar
    32   17   37 1
    33   18   38 1
    34   20   21 1
    35   20   39 1
    36   21   26 ar
    37   21   22 ar
    38   22   23 ar
    39   22   40 1
    40   23   24 ar
    41   23   41 1
    42   24   25 ar
    43   24   42 1
    44   25   26 ar
    45   26   43 1
@<TRIPOS>MOLECULE
CHEMBL278492
   36    38     0     0     0
SMALL
USER_CHARGES

@<TRIPOS>ATOM
      1 C1         -0.3450    1.4775    0.1136 C.3       1 <0>        -0.0703
      2 C2         -0.1564   -0.0163    0.0522 C.2       1 <0>         0.0612
      3 N1         -0.1136   -0.7805   -1.0078 N.2       1 <0>        -0.5067
      4 C3          0.0601   -2.0890   -0.9132 C.2       1 <0>         0.1336
      5 C4          0.1930   -2.5928    0.3787 C.2       1 <0>        -0.1872
      6 S1          0.0556   -1.0886    1.3311 S.3       1 <0>         0.1533
      7 C5          0.3961   -3.9827    0.8335 C.ar      1 <0>         0.0611
      8 C6         -0.3892   -4.5057    1.8632 C.ar      1 <0>        -0.1253
      9 C7         -0.1940   -5.8050    2.2831 C.ar      1 <0>        -0.0119
     10 C8          0.7771   -6.5898    1.6867 C.ar      1 <0>        -0.6715
     11 C9          1.5591   -6.0779    0.6663 C.ar      1 <0>        -0.0116
     12 C10         1.3705   -4.7823    0.2322 C.ar      1 <0>        -0.1118
     13 S2          1.0196   -8.2484    2.2296 S.o2      1 <0>         2.7004
     14 O1          2.3534   -8.5975    1.8857 O.2       1 <0>        -0.9600
     15 O2          0.5347   -8.3141    3.5637 O.2       1 <0>        -0.9606
     16 N2          0.0282   -9.2119    1.3177 N.pl3     1 <0>        -1.2491
     17 C11         0.1097   -2.9639   -2.1074 C.ar      1 <0>        -0.0206
     18 C12        -0.5594   -4.1877   -2.1067 C.ar      1 <0>        -0.0832
     19 C13        -0.5103   -4.9985   -3.2219 C.ar      1 <0>        -0.1097
     20 C14         0.2020   -4.5996   -4.3402 C.ar      1 <0>        -0.0249
     21 C15         0.8681   -3.3857   -4.3464 C.ar      1 <0>        -0.1104
     22 C16         0.8209   -2.5645   -3.2388 C.ar      1 <0>        -0.0711
     23 Cl1         0.2605   -5.6253   -5.7395 Cl        1 <0>        -0.0635
     24 H1          0.6271    1.9686    0.0696 H         1 <0>         0.0942
     25 H2         -0.9545    1.8018   -0.7299 H         1 <0>         0.0965
     26 H3         -0.8441    1.7427    1.0457 H         1 <0>         0.0893
     27 H4         -1.1472   -3.8941    2.3298 H         1 <0>         0.1382
     28 H5         -0.8003   -6.2106    3.0795 H         1 <0>         0.1499
     29 H6          2.3155   -6.6958    0.2055 H         1 <0>         0.1497
     30 H7          1.9782   -4.3855   -0.5676 H         1 <0>         0.1372
     31 H8         -0.5387   -8.8175    0.6366 H         1 <0>         0.4170
     32 H9          0.0145  -10.1706    1.4648 H         1 <0>         0.4224
     33 H10        -1.1147   -4.5002   -1.2347 H         1 <0>         0.1316
     34 H11        -1.0280   -5.9463   -3.2224 H         1 <0>         0.1387
     35 H12         1.4221   -3.0794   -5.2213 H         1 <0>         0.1389
     36 H13         1.3374   -1.6160   -3.2462 H         1 <0>         0.1364
@<TRIPOS>BOND
     1    1    2 1
     2    1   24 1
     3    1   25 1
     4    1   26 1
     5    2    6 1
     6    2    3 2
     7    3    4 1
     8    4    5 2
     9    4   17 1
    10    5    6 1
    11    5    7 1
    12    7   12 ar
    13    7    8 ar
    14    8    9 ar
    15    8   27 1
    16    9   10 ar
    17    9   28 1
    18   10   11 ar
    19   10   13 1
    20   11   12 ar
    21   11   29 1
    22   12   30 1
    23   13   14 2
    24   13   15 2
    25   13   16 1
    26   16   31 1
    27   16   32 1
    28   17   22 ar
    29   17   18 ar
    30   18   19 ar
    31   18   33 1
    32   19   20 ar
    33   19   34 1
    34   20   21 ar
    35   20   23 1
    36   21   22 ar
    37   21   35 1
    38   22   36 1
@<TRIPOS>MOLECULE
CHEMBL12532
   46    47     0     0     0
SMALL
USER_CHARGES

@<TRIPOS>ATOM
      1 C1         -0.0187    1.5258    0.0104 C.3       1 <0>        -0.1496
      2 C2          0.0021   -0.0041    0.0020 C.3       1 <0>        -0.0204
      3 C3          0.7421   -0.5109    1.2415 C.3       1 <0>        -0.1426
      4 C4         -1.4333   -0.5336    0.0129 C.3       1 <0>        -0.1428
      5 C5          0.7074   -0.4901   -1.2379 C.ar      1 <0>        -0.0921
      6 C6          1.2151    0.4185   -2.1418 C.ar      1 <0>        -0.0600
      7 C7          1.8688   -0.0328   -3.2899 C.ar      1 <0>        -0.0226
      8 C8          2.0055   -1.4034   -3.5176 C.ar      1 <0>        -0.0816
      9 C9          1.4951   -2.3054   -2.6087 C.ar      1 <0>        -0.0904
     10 C10         0.8502   -1.8524   -1.4654 C.ar      1 <0>         0.1437
     11 O1          0.3533   -2.7448   -0.5692 O.3       1 <0>        -0.4824
     12 C11         1.6421   -3.7851   -2.8534 C.3       1 <0>        -0.0206
     13 C12         2.3895   -4.0127   -4.1689 C.3       1 <0>        -0.1500
     14 C13         2.4296   -4.4165   -1.7036 C.3       1 <0>        -0.1430
     15 C14         0.2564   -4.4285   -2.9362 C.3       1 <0>        -0.1429
     16 C15         2.4142    0.9378   -4.2619 C.2       1 <0>         0.1124
     17 N1          2.4009    2.2644   -4.2406 N.2       1 <0>        -0.2662
     18 N2          2.9187    2.9513   -5.1631 N.2       1 <0>        -0.2793
     19 C16         3.5081    2.3871   -6.2109 C.2       1 <0>         0.0197
     20 S1          3.2878    0.6584   -5.7996 S.3       1 <0>         0.0399
     21 S2          4.2900    3.1283   -7.6051 S.3       1 <0>         0.0563
     22 C17         4.1209    4.9097   -7.3075 C.3       1 <0>        -0.1514
     23 H1          1.0039    1.9031    0.0027 H         1 <0>         0.0604
     24 H2         -0.5459    1.8868   -0.8726 H         1 <0>         0.0596
     25 H3         -0.5289    1.8773    0.9072 H         1 <0>         0.0620
     26 H4          0.2319   -0.1594    2.1383 H         1 <0>         0.0566
     27 H5          0.7568   -1.6008    1.2356 H         1 <0>         0.0755
     28 H6          1.7647   -0.1336    1.2338 H         1 <0>         0.0522
     29 H7         -1.9605   -0.1726   -0.8702 H         1 <0>         0.0555
     30 H8         -1.4185   -1.6235    0.0069 H         1 <0>         0.0583
     31 H9         -1.9435   -0.1821    0.9097 H         1 <0>         0.0631
     32 H10         1.1070    1.4780   -1.9623 H         1 <0>         0.1454
     33 H11         2.5103   -1.7564   -4.4047 H         1 <0>         0.1347
     34 H12        -0.5596   -3.0111   -0.7442 H         1 <0>         0.3867
     35 H13         3.3767   -3.5543   -4.1099 H         1 <0>         0.0590
     36 H14         2.4958   -5.0830   -4.3459 H         1 <0>         0.0634
     37 H15         1.8284   -3.5629   -4.9881 H         1 <0>         0.0583
     38 H16         1.8972   -4.2543   -0.7664 H         1 <0>         0.0764
     39 H17         2.5360   -5.4867   -1.8806 H         1 <0>         0.0567
     40 H18         3.4168   -3.9581   -1.6446 H         1 <0>         0.0522
     41 H19        -0.3046   -3.9788   -3.7554 H         1 <0>         0.0556
     42 H20         0.3628   -5.4988   -3.1133 H         1 <0>         0.0633
     43 H21        -0.2760   -4.2664   -1.9991 H         1 <0>         0.0588
     44 H22         3.0640    5.1686   -7.2435 H         1 <0>         0.0957
     45 H23         4.6161    5.1704   -6.3721 H         1 <0>         0.0956
     46 H24         4.5809    5.4604   -8.1280 H         1 <0>         0.1209
@<TRIPOS>BOND
     1    1    2 1
     2    1   23 1
     3    1   24 1
     4    1   25 1
     5    2    3 1
     6    2    4 1
     7    2    5 1
     8    3   26 1
     9    3   27 1
    10    3   28 1
    11    4   29 1
    12    4   30 1
    13    4   31 1
    14    5   10 ar
    15    5    6 ar
    16    6    7 ar
    17    6   32 1
    18    7    8 ar
    19    7   16 1
    20    8    9 ar
    21    8   33 1
    22    9   10 ar
    23    9   12 1
    24   10   11 1
    25   11   34 1
    26   12   13 1
    27   12   14 1
    28   12   15 1
    29   13   35 1
    30   13   36 1
    31   13   37 1
    32   14   38 1
    33   14   39 1
    34   14   40 1
    35   15   41 1
    36   15   42 1
    37   15   43 1
    38   16   20 1
    39   16   17 2
    40   17   18 1
    41   18   19 2
    42   19   20 1
    43   19   21 1
    44   21   22 1
    45   22   44 1
    46   22   45 1
    47   22   46 1
@<TRIPOS>MOLECULE
CHEMBL144787
   42    44     0     0     0
SMALL
USER_CHARGES

@<TRIPOS>ATOM
      1 C1          0.0196    1.7233    0.0915 C.3       1 <0>        -0.6358
      2 S1         -0.1925   -0.0679   -0.1016 S.o2      1 <0>         2.5293
      3 O1          0.4805   -0.7560    0.9438 O.2       1 <0>        -1.0229
      4 O2         -1.5455   -0.3696   -0.4139 O.2       1 <0>        -1.0231
      5 N1          0.6532   -0.4512   -1.4728 N.2       1 <0>        -1.0703
      6 C2          0.6991   -1.7694   -1.9163 C.ar      1 <0>         0.3479
      7 C3          0.0306   -2.7632   -1.2120 C.ar      1 <0>        -0.2529
      8 C4          0.0711   -4.0726   -1.6449 C.ar      1 <0>         0.0069
      9 C5          0.7864   -4.4081   -2.7973 C.ar      1 <0>        -0.2954
     10 C6          1.4631   -3.4017   -3.5097 C.ar      1 <0>        -0.0161
     11 C7          1.4135   -2.0935   -3.0746 C.ar      1 <0>        -0.1638
     12 S2          2.2556   -0.8330   -3.9728 S.3       1 <0>        -0.0770
     13 C8          3.1720   -1.7407   -5.2483 C.3       1 <0>        -0.0958
     14 C9          4.3114   -2.5263   -4.5960 C.3       1 <0>        -0.1143
     15 C10         5.0844   -3.2919   -5.6718 C.3       1 <0>        -0.1179
     16 C11         5.6622   -2.3026   -6.6859 C.3       1 <0>        -0.1184
     17 C12         4.5228   -1.5170   -7.3382 C.3       1 <0>        -0.1136
     18 C13         3.7499   -0.7515   -6.2624 C.3       1 <0>        -0.0936
     19 C14         0.6897   -5.8484   -3.0663 C.2       1 <0>         0.4135
     20 O3          1.2054   -6.4349   -3.9946 O.2       1 <0>        -0.4882
     21 C15        -0.1615   -6.4731   -1.9879 C.3       1 <0>        -0.1683
     22 C16        -0.5625   -5.3147   -1.0644 C.3       1 <0>        -0.0834
     23 H1          1.0799    1.9547    0.1938 H         1 <0>         0.1178
     24 H2         -0.3806    2.2331   -0.7849 H         1 <0>         0.1176
     25 H3         -0.5129    2.0584    0.9815 H         1 <0>         0.1037
     26 H4         -0.5235   -2.5093   -0.3204 H         1 <0>         0.1117
     27 H5          2.0186   -3.6527   -4.4012 H         1 <0>         0.1153
     28 H6          2.4993   -2.4312   -5.7570 H         1 <0>         0.0827
     29 H7          4.9842   -1.8358   -4.0873 H         1 <0>         0.0712
     30 H8          3.8998   -3.2311   -3.8735 H         1 <0>         0.0693
     31 H9          5.8961   -3.8515   -5.2070 H         1 <0>         0.0608
     32 H10         4.4116   -3.9824   -6.1805 H         1 <0>         0.0610
     33 H11         6.3349   -1.6121   -6.1772 H         1 <0>         0.0612
     34 H12         6.2128   -2.8480   -7.4523 H         1 <0>         0.0577
     35 H13         4.9344   -0.8123   -8.0607 H         1 <0>         0.0622
     36 H14         3.8501   -2.2075   -7.8469 H         1 <0>         0.0615
     37 H15         2.9381   -0.1918   -6.7271 H         1 <0>         0.0691
     38 H16         4.4226   -0.0610   -5.7537 H         1 <0>         0.0689
     39 H17        -1.0484   -6.9318   -2.4252 H         1 <0>         0.0969
     40 H18         0.4144   -7.2150   -1.4347 H         1 <0>         0.0969
     41 H19        -0.1860   -5.4913   -0.0569 H         1 <0>         0.0838
     42 H20        -1.6472   -5.2084   -1.0462 H         1 <0>         0.0838
@<TRIPOS>BOND
     1    1    2 1
     2    1   23 1
     3    1   24 1
     4    1   25 1
     5    2    3 2
     6    2    4 2
     7    2    5 1
     8    5    6 1
     9    6   11 ar
    10    6    7 ar
    11    7    8 ar
    12    7   26 1
    13    8   22 1
    14    8    9 ar
    15    9   10 ar
    16    9   19 1
    17   10   11 ar
    18   10   27 1
    19   11   12 1
    20   12   13 1
    21   13   18 1
    22   13   14 1
    23   13   28 1
    24   14   15 1
    25   14   29 1
    26   14   30 1
    27   15   16 1
    28   15   31 1
    29   15   32 1
    30   16   17 1
    31   16   33 1
    32   16   34 1
    33   17   18 1
    34   17   35 1
    35   17   36 1
    36   18   37 1
    37   18   38 1
    38   19   20 2
    39   19   21 1
    40   21   22 1
    41   21   39 1
    42   21   40 1
    43   22   41 1
    44   22   42 1
@<TRIPOS>MOLECULE
CHEMBL622
   41    43     0     0     0
SMALL
USER_CHARGES

@<TRIPOS>ATOM
      1 C1         -0.2527    1.6339   -0.0812 C.3       1 <0>        -0.1476
      2 C2         -0.1845    0.1054   -0.0887 C.3       1 <0>        -0.0818
      3 C3          0.6063   -0.3679    1.1036 C.ar      1 <0>        -0.0892
      4 C4          1.9531   -0.6303    0.9787 C.ar      1 <0>        -0.1104
      5 C5          2.6920   -1.0667    2.0695 C.ar      1 <0>        -0.1470
      6 C6          2.0960   -1.2437    3.2860 C.ar      1 <0>        -0.0781
      7 C7          0.7321   -0.9845    3.4374 C.ar      1 <0>        -0.0857
      8 C8         -0.0204   -0.5354    2.3332 C.ar      1 <0>         0.0974
      9 N1         -1.3170   -0.3546    2.7667 N.pl3     1 <0>        -0.5742
     10 H1         -2.0527   -0.0515    2.2119 H         1 <0>         0.4121
     11 C9         -1.4110   -0.6651    4.0907 C.2       1 <0>         0.0809
     12 C10        -0.2049   -1.0607    4.5495 C.2       1 <0>        -0.1847
     13 C11         0.0459   -1.4743    5.9771 C.3       1 <0>        -0.0727
     14 C12        -1.1544   -1.0117    6.8165 C.3       1 <0>         0.0516
     15 O1         -2.3681   -1.3816    6.1565 O.3       1 <0>        -0.3296
     16 C13        -2.6397   -0.6140    4.9696 C.3       1 <0>         0.2100
     17 C14        -3.8273   -1.2383    4.2343 C.3       1 <0>        -0.1179
     18 C15        -3.4642   -2.6570    3.7912 C.3       1 <0>        -0.1430
     19 C16        -2.9585    0.8388    5.3281 C.3       1 <0>        -0.2045
     20 C17        -4.1275    0.8768    6.2783 C.2       1 <0>         0.4986
     21 O2         -4.7023   -0.1554    6.5793 O.co2     1 <0>        -0.6709
     22 O3         -4.4985    1.9398    6.7462 O.co2     1 <0>        -0.7065
     23 H2          0.7565    2.0429   -0.1290 H         1 <0>         0.0573
     24 H3         -0.8247    1.9763   -0.9436 H         1 <0>         0.0563
     25 H4         -0.7386    1.9714    0.8342 H         1 <0>         0.0531
     26 H5         -1.1938   -0.3036   -0.0409 H         1 <0>         0.0627
     27 H6          0.3013   -0.2321   -1.0042 H         1 <0>         0.0726
     28 H7          2.4381   -0.4954    0.0232 H         1 <0>         0.1192
     29 H8          3.7468   -1.2684    1.9555 H         1 <0>         0.1172
     30 H9          2.6787   -1.5840    4.1292 H         1 <0>         0.1167
     31 H10         0.1419   -2.5585    6.0361 H         1 <0>         0.0726
     32 H11         0.9571   -1.0017    6.3439 H         1 <0>         0.0728
     33 H12        -1.1156   -1.4849    7.7977 H         1 <0>         0.0927
     34 H13        -1.1200    0.0714    6.9338 H         1 <0>         0.0526
     35 H14        -4.6888   -1.2752    4.9010 H         1 <0>         0.1206
     36 H15        -4.0705   -0.6354    3.3594 H         1 <0>         0.0524
     37 H16        -3.3044   -3.2823    4.6696 H         1 <0>         0.0616
     38 H17        -4.2771   -3.0703    3.1940 H         1 <0>         0.0455
     39 H18        -2.5526   -2.6291    3.1943 H         1 <0>         0.0416
     40 H19        -2.0897    1.2951    5.8025 H         1 <0>         0.0623
     41 H20        -3.2089    1.3901    4.4217 H         1 <0>         0.0632
@<TRIPOS>BOND
     1    1    2 1
     2    1   23 1
     3    1   24 1
     4    1   25 1
     5    2    3 1
     6    2   26 1
     7    2   27 1
     8    3    8 ar
     9    3    4 ar
    10    4    5 ar
    11    4   28 1
    12    5    6 ar
    13    5   29 1
    14    6    7 ar
    15    6   30 1
    16    7   12 1
    17    7    8 ar
    18    8    9 1
    19    9   10 1
    20    9   11 1
    21   11   16 1
    22   11   12 2
    23   12   13 1
    24   13   14 1
    25   13   31 1
    26   13   32 1
    27   14   15 1
    28   14   33 1
    29   14   34 1
    30   15   16 1
    31   16   17 1
    32   16   19 1
    33   17   18 1
    34   17   35 1
    35   17   36 1
    36   18   37 1
    37   18   38 1
    38   18   39 1
    39   19   20 1
    40   19   40 1
    41   19   41 1
    42   20   21 2
    43   20   22 1
@<TRIPOS>MOLECULE
CHEMBL622__1
   41    43     0     0     0
SMALL
USER_CHARGES

@<TRIPOS>ATOM
      1 C1         -0.2773   -0.1796   -0.5034 C.3       1 <0>        -0.1440
      2 C2         -0.3011   -1.6484   -0.0756 C.3       1 <0>        -0.0833
      3 C3          0.5196   -1.8202    1.1766 C.ar      1 <0>        -0.0898
      4 C4          1.8402   -2.2032    1.0893 C.ar      1 <0>        -0.1144
      5 C5          2.6061   -2.3647    2.2354 C.ar      1 <0>        -0.1507
      6 C6          2.0633   -2.1468    3.4700 C.ar      1 <0>        -0.0787
      7 C7          0.7267   -1.7581    3.5841 C.ar      1 <0>        -0.0825
      8 C8         -0.0527   -1.5872    2.4220 C.ar      1 <0>         0.1001
      9 N1         -1.3124   -1.1984    2.8265 N.pl3     1 <0>        -0.5743
     10 H1         -2.0559   -1.0128    2.2318 H         1 <0>         0.4082
     11 C9         -1.3574   -1.1136    4.1863 C.2       1 <0>         0.1062
     12 C10        -0.1553   -1.4487    4.7006 C.2       1 <0>        -0.1653
     13 C11         0.1425   -1.4580    6.1782 C.3       1 <0>        -0.0666
     14 C12        -0.9838   -0.6917    6.8879 C.3       1 <0>         0.0563
     15 O1         -2.2494   -1.1452    6.3999 O.3       1 <0>        -0.3269
     16 C13        -2.5346   -0.7277    5.0524 C.3       1 <0>         0.2040
     17 C14        -2.7473    0.7862    4.9903 C.3       1 <0>        -0.1423
     18 C15        -3.9336    1.1713    5.8765 C.3       1 <0>        -0.1465
     19 C16        -3.7932   -1.4476    4.5642 C.3       1 <0>        -0.1807
     20 C17        -3.5844   -2.9377    4.6491 C.2       1 <0>         0.4918
     21 O2         -2.5725   -3.3832    5.1628 O.co2     1 <0>        -0.6606
     22 O3         -4.4275   -3.6977    4.2040 O.co2     1 <0>        -0.7157
     23 H2          0.7509    0.1256   -0.6980 H         1 <0>         0.0562
     24 H3         -0.8709   -0.0553   -1.4091 H         1 <0>         0.0544
     25 H4         -0.6949    0.4374    0.2923 H         1 <0>         0.0506
     26 H5         -1.3292   -1.9535    0.1191 H         1 <0>         0.0639
     27 H6          0.1166   -2.2653   -0.8712 H         1 <0>         0.0720
     28 H7          2.2833   -2.3797    0.1203 H         1 <0>         0.1168
     29 H8          3.6399   -2.6656    2.1506 H         1 <0>         0.1147
     30 H9          2.6667   -2.2752    4.3564 H         1 <0>         0.1146
     31 H10         0.1763   -2.4850    6.5417 H         1 <0>         0.0788
     32 H11         1.0977   -0.9675    6.3655 H         1 <0>         0.0649
     33 H12        -0.9236   -0.8691    7.9616 H         1 <0>         0.0892
     34 H13        -0.8788    0.3749    6.6893 H         1 <0>         0.0434
     35 H14        -1.8499    1.2940    5.3436 H         1 <0>         0.0644
     36 H15        -2.9512    1.0826    3.9613 H         1 <0>         0.0652
     37 H16        -3.7780    0.7802    6.8820 H         1 <0>         0.0637
     38 H17        -4.0187    2.2571    5.9181 H         1 <0>         0.0490
     39 H18        -4.8493    0.7507    5.4608 H         1 <0>         0.0585
     40 H19        -4.6399   -1.1632    5.1891 H         1 <0>         0.0747
     41 H20        -3.9943   -1.1672    3.5303 H         1 <0>         0.0606
@<TRIPOS>BOND
     1    1    2 1
     2    1   23 1
     3    1   24 1
     4    1   25 1
     5    2    3 1
     6    2   26 1
     7    2   27 1
     8    3    8 ar
     9    3    4 ar
    10    4    5 ar
    11    4   28 1
    12    5    6 ar
    13    5   29 1
    14    6    7 ar
    15    6   30 1
    16    7   12 1
    17    7    8 ar
    18    8    9 1
    19    9   10 1
    20    9   11 1
    21   11   16 1
    22   11   12 2
    23   12   13 1
    24   13   14 1
    25   13   31 1
    26   13   32 1
    27   14   15 1
    28   14   33 1
    29   14   34 1
    30   15   16 1
    31   16   17 1
    32   16   19 1
    33   17   18 1
    34   17   35 1
    35   17   36 1
    36   18   37 1
    37   18   38 1
    38   18   39 1
    39   19   20 1
    40   19   40 1
    41   19   41 1
    42   20   21 2
    43   20   22 1
@<TRIPOS>MOLECULE
CHEMBL186632
   46    49     0     0     0
SMALL
USER_CHARGES

@<TRIPOS>ATOM
      1 C1         -0.0187    1.5258    0.0104 C.3       1 <0>        -0.1535
      2 C2          0.0021   -0.0041    0.0020 C.3       1 <0>         0.0522
      3 O1         -1.3386   -0.4987    0.0122 O.3       1 <0>        -0.3129
      4 C3         -1.4983   -1.8480    0.0064 C.ar      1 <0>         0.1488
      5 C4         -0.3848   -2.6773   -0.0029 C.ar      1 <0>        -0.2103
      6 C5         -0.5436   -4.0471   -0.0092 C.ar      1 <0>        -0.0412
      7 C6         -1.8240   -4.5990   -0.0057 C.ar      1 <0>        -0.0642
      8 C7         -2.9401   -3.7634    0.0042 C.ar      1 <0>        -0.0469
      9 C8         -2.7746   -2.3945    0.0157 C.ar      1 <0>        -0.1524
     10 C9         -1.9982   -6.0712   -0.0129 C.2       1 <0>         0.1570
     11 C10        -3.0233   -6.7790    0.6387 C.2       1 <0>        -0.1889
     12 C11        -2.8163   -8.1388    0.3760 C.2       1 <0>         0.0706
     13 C12        -3.4997   -9.3045    0.7494 C.2       1 <0>        -0.0368
     14 C13        -3.0344  -10.5131    0.3196 C.2       1 <0>        -0.1536
     15 C14        -1.8904  -10.5778   -0.4817 C.2       1 <0>         0.1180
     16 N1         -1.2498   -9.4926   -0.8318 N.2       1 <0>        -0.2104
     17 N2         -1.6956   -8.2334   -0.4122 N.pl3     1 <0>        -0.1734
     18 N3         -1.2186   -6.9376   -0.6382 N.2       1 <0>        -0.2403
     19 C15        -4.1151   -6.1967    1.4504 C.ar      1 <0>         0.0621
     20 C16        -3.8238   -5.5274    2.6396 C.ar      1 <0>        -0.1212
     21 C17        -4.8462   -4.9868    3.3917 C.ar      1 <0>        -0.0118
     22 C18        -6.1582   -5.1076    2.9694 C.ar      1 <0>        -0.6774
     23 C19        -6.4538   -5.7701    1.7912 C.ar      1 <0>        -0.0134
     24 C20        -5.4399   -6.3097    1.0268 C.ar      1 <0>        -0.1341
     25 S1         -7.4583   -4.4153    3.9364 S.o2      1 <0>         2.6999
     26 O2         -8.6379   -5.1356    3.6062 O.2       1 <0>        -0.9632
     27 O3         -6.9696   -4.3231    5.2675 O.2       1 <0>        -0.9627
     28 N4         -7.6882   -2.8628    3.4080 N.pl3     1 <0>        -1.2497
     29 H1          1.0039    1.9031    0.0027 H         1 <0>         0.0801
     30 H2         -0.5459    1.8868   -0.8726 H         1 <0>         0.0673
     31 H3         -0.5289    1.8773    0.9072 H         1 <0>         0.0674
     32 H4          0.5123   -0.3556   -0.8948 H         1 <0>         0.0644
     33 H5          0.5293   -0.3651    0.8851 H         1 <0>         0.0645
     34 H6          0.6067   -2.2492   -0.0056 H         1 <0>         0.1341
     35 H7          0.3229   -4.6917   -0.0172 H         1 <0>         0.1320
     36 H8         -3.9332   -4.1879    0.0070 H         1 <0>         0.1327
     37 H9         -3.6387   -1.7467    0.0274 H         1 <0>         0.1375
     38 H10        -4.3824   -9.2467    1.3691 H         1 <0>         0.1596
     39 H11        -3.5499  -11.4202    0.5988 H         1 <0>         0.1612
     40 H12        -1.5298  -11.5392   -0.8165 H         1 <0>         0.2091
     41 H13        -2.8001   -5.4331    2.9707 H         1 <0>         0.1347
     42 H14        -4.6221   -4.4685    4.3124 H         1 <0>         0.1458
     43 H15        -7.4799   -5.8610    1.4669 H         1 <0>         0.1460
     44 H16        -5.6715   -6.8223    0.1048 H         1 <0>         0.1345
     45 H17        -7.1428   -2.5099    2.6877 H         1 <0>         0.4172
     46 H18        -8.3683   -2.3064    3.8188 H         1 <0>         0.4216
@<TRIPOS>BOND
     1    1    2 1
     2    1   29 1
     3    1   30 1
     4    1   31 1
     5    2    3 1
     6    2   32 1
     7    2   33 1
     8    3    4 1
     9    4    9 ar
    10    4    5 ar
    11    5    6 ar
    12    5   34 1
    13    6    7 ar
    14    6   35 1
    15    7    8 ar
    16    7   10 1
    17    8    9 ar
    18    8   36 1
    19    9   37 1
    20   10   18 2
    21   10   11 1
    22   11   12 2
    23   11   19 1
    24   12   17 1
    25   12   13 1
    26   13   14 2
    27   13   38 1
    28   14   15 1
    29   14   39 1
    30   15   16 2
    31   15   40 1
    32   16   17 1
    33   17   18 1
    34   19   24 ar
    35   19   20 ar
    36   20   21 ar
    37   20   41 1
    38   21   22 ar
    39   21   42 1
    40   22   23 ar
    41   22   25 1
    42   23   24 ar
    43   23   43 1
    44   24   44 1
    45   25   26 2
    46   25   27 2
    47   25   28 1
    48   28   45 1
    49   28   46 1
@<TRIPOS>MOLECULE
CHEMBL331921
   46    49     0     0     0
SMALL
USER_CHARGES

@<TRIPOS>ATOM
      1 C1          0.2659    1.4817   -0.0455 C.3       1 <0>        -0.0990
      2 C2          0.2199   -0.0246   -0.0345 C.2       1 <0>        -0.1911
      3 C3          0.2334   -0.7411   -1.2394 C.2       1 <0>         0.1924
      4 N1          0.1936   -2.0535   -1.2285 N.2       1 <0>        -0.4584
      5 C4          0.1399   -2.7285   -0.0753 C.2       1 <0>         0.2782
      6 C5          0.0904   -4.0963    0.2152 C.2       1 <0>        -0.1829
      7 C6          0.0459   -4.2223    1.6170 C.2       1 <0>         0.1593
      8 N2          0.0667   -3.0145    2.1482 N.2       1 <0>        -0.2915
      9 N3          0.1250   -2.0633    1.1236 N.pl3     1 <0>        -0.3017
     10 C7          0.1707   -0.6986    1.1408 C.2       1 <0>         0.1905
     11 C8          0.1610    0.0489    2.4494 C.3       1 <0>        -0.1215
     12 C9         -0.0143   -5.4984    2.3701 C.ar      1 <0>         0.0361
     13 C10         0.7620   -6.5845    1.9694 C.ar      1 <0>        -0.1053
     14 C11         0.7023   -7.7694    2.6743 C.ar      1 <0>        -0.0216
     15 C12        -0.1260   -7.8805    3.7766 C.ar      1 <0>        -0.6504
     16 C13        -0.8987   -6.8060    4.1789 C.ar      1 <0>        -0.0234
     17 C14        -0.8431   -5.6145    3.4847 C.ar      1 <0>        -0.1079
     18 S1         -0.1975   -9.3967    4.6714 S.o2      1 <0>         2.4986
     19 O1         -1.4843   -9.4017    5.2741 O.2       1 <0>        -0.9351
     20 O2          0.1632  -10.3935    3.7251 O.2       1 <0>        -0.9340
     21 C15         1.0875   -9.2485    5.9432 C.3       1 <0>        -0.6502
     22 C16         0.0850   -5.2037   -0.7672 C.ar      1 <0>        -0.0067
     23 C17        -1.0425   -6.0144   -0.9019 C.ar      1 <0>        -0.0733
     24 C18        -1.0426   -7.0448   -1.8193 C.ar      1 <0>        -0.1495
     25 C19         0.0746   -7.2755   -2.6057 C.ar      1 <0>         0.1007
     26 C20         1.1969   -6.4733   -2.4758 C.ar      1 <0>        -0.1509
     27 C21         1.2052   -5.4367   -1.5656 C.ar      1 <0>        -0.0707
     28 F1          0.0698   -8.2864   -3.5019 F         1 <0>        -0.1388
     29 H1          1.1591    1.8217    0.4786 H         1 <0>         0.0784
     30 H2          0.2918    1.8369   -1.0757 H         1 <0>         0.0809
     31 H3         -0.6198    1.8759    0.4526 H         1 <0>         0.0782
     32 H4          0.2762   -0.2117   -2.1798 H         1 <0>         0.1839
     33 H5          0.2647    1.1171    2.2584 H         1 <0>         0.0992
     34 H6         -0.7796   -0.1379    2.9676 H         1 <0>         0.0921
     35 H7          0.9909   -0.2917    3.0686 H         1 <0>         0.0909
     36 H8          1.4087   -6.4989    1.1087 H         1 <0>         0.1383
     37 H9          1.3031   -8.6117    2.3645 H         1 <0>         0.1488
     38 H10        -1.5438   -6.8984    5.0401 H         1 <0>         0.1483
     39 H11        -1.4436   -4.7748    3.8021 H         1 <0>         0.1379
     40 H12         0.8694   -8.3926    6.5820 H         1 <0>         0.1321
     41 H13         1.1081  -10.1561    6.5464 H         1 <0>         0.1343
     42 H14         2.0570   -9.1076    5.4654 H         1 <0>         0.1323
     43 H15        -1.9136   -5.8359   -0.2889 H         1 <0>         0.1289
     44 H16        -1.9148   -7.6729   -1.9244 H         1 <0>         0.1374
     45 H17         2.0651   -6.6573   -3.0912 H         1 <0>         0.1372
     46 H18         2.0788   -4.8092   -1.4682 H         1 <0>         0.1291
@<TRIPOS>BOND
     1    1    2 1
     2    1   29 1
     3    1   30 1
     4    1   31 1
     5    2   10 2
     6    2    3 1
     7    3    4 2
     8    3   32 1
     9    4    5 1
    10    5    9 1
    11    5    6 2
    12    6    7 1
    13    6   22 1
    14    7    8 2
    15    7   12 1
    16    8    9 1
    17    9   10 1
    18   10   11 1
    19   11   33 1
    20   11   34 1
    21   11   35 1
    22   12   17 ar
    23   12   13 ar
    24   13   14 ar
    25   13   36 1
    26   14   15 ar
    27   14   37 1
    28   15   16 ar
    29   15   18 1
    30   16   17 ar
    31   16   38 1
    32   17   39 1
    33   18   19 2
    34   18   20 2
    35   18   21 1
    36   21   40 1
    37   21   41 1
    38   21   42 1
    39   22   27 ar
    40   22   23 ar
    41   23   24 ar
    42   23   43 1
    43   24   25 ar
    44   24   44 1
    45   25   26 ar
    46   25   28 1
    47   26   27 ar
    48   26   45 1
    49   27   46 1
@<TRIPOS>MOLECULE
CHEMBL365060
   41    44     0     0     0
SMALL
USER_CHARGES

@<TRIPOS>ATOM
      1 C1         -0.0225    1.8097    0.0120 C.3       1 <0>        -0.6507
      2 S1          0.0021   -0.0041    0.0020 S.o2      1 <0>         2.4978
      3 O1          0.8352   -0.4880    1.0465 O.2       1 <0>        -0.9362
      4 O2         -1.3147   -0.5105   -0.1678 O.2       1 <0>        -0.9364
      5 C2          0.8454   -0.4373   -1.4831 C.ar      1 <0>        -0.6567
      6 C3          0.1314   -0.6121   -2.6550 C.ar      1 <0>        -0.0208
      7 C4          0.7863   -0.9519   -3.8211 C.ar      1 <0>        -0.1256
      8 C5          2.1706   -1.1186   -3.8168 C.ar      1 <0>         0.0143
      9 C6          2.8849   -0.9406   -2.6327 C.ar      1 <0>        -0.1175
     10 C7          2.2196   -0.5958   -1.4739 C.ar      1 <0>        -0.0204
     11 C8          2.8798   -1.4839   -5.0658 C.ar      1 <0>        -0.0413
     12 C9          2.4291   -2.5503   -5.8391 C.ar      1 <0>        -0.0864
     13 C10         3.0887   -2.8907   -7.0024 C.ar      1 <0>        -0.0942
     14 C11         4.2054   -2.1759   -7.4131 C.ar      1 <0>         0.0434
     15 C12         4.6689   -1.1074   -6.6516 C.ar      1 <0>         0.0489
     16 C13         4.0057   -0.7523   -5.4769 C.ar      1 <0>        -0.0141
     17 C14         4.4899    0.3883   -4.6642 C.ar      1 <0>        -0.0572
     18 C15         3.6938    1.5221   -4.5059 C.ar      1 <0>        -0.0669
     19 C16         4.1489    2.5815   -3.7484 C.ar      1 <0>        -0.1516
     20 C17         5.3951    2.5203   -3.1458 C.ar      1 <0>         0.1058
     21 C18         6.1899    1.3960   -3.3006 C.ar      1 <0>        -0.1503
     22 C19         5.7407    0.3289   -4.0507 C.ar      1 <0>        -0.0700
     23 F1          5.8367    3.5604   -2.4052 F         1 <0>        -0.1369
     24 O3          5.7673   -0.5776   -7.2641 O.3       1 <0>        -0.2997
     25 C20         6.2139   -1.5852   -8.1905 C.3       1 <0>         0.2114
     26 O4          5.0139   -2.3161   -8.5046 O.3       1 <0>        -0.3046
     27 H1          1.0001    2.1870    0.0043 H         1 <0>         0.1317
     28 H2         -0.5497    2.1708   -0.8711 H         1 <0>         0.1319
     29 H3         -0.5327    2.1613    0.9088 H         1 <0>         0.1338
     30 H4         -0.9408   -0.4827   -2.6572 H         1 <0>         0.1455
     31 H5          0.2278   -1.0888   -4.7353 H         1 <0>         0.1374
     32 H6          3.9573   -1.0687   -2.6233 H         1 <0>         0.1335
     33 H7          2.7724   -0.4534   -0.5571 H         1 <0>         0.1438
     34 H8          1.5613   -3.1127   -5.5275 H         1 <0>         0.1466
     35 H9          2.7338   -3.7193   -7.5973 H         1 <0>         0.1434
     36 H10         2.7226    1.5710   -4.9758 H         1 <0>         0.1328
     37 H11         3.5330    3.4601   -3.6252 H         1 <0>         0.1387
     38 H12         7.1609    1.3531   -2.8296 H         1 <0>         0.1398
     39 H13         6.3589   -0.5490   -4.1669 H         1 <0>         0.1330
     40 H14         6.6278   -1.1245   -9.0875 H         1 <0>         0.1357
     41 H15         6.9487   -2.2390   -7.7206 H         1 <0>         0.0883
@<TRIPOS>BOND
     1    1    2 1
     2    1   27 1
     3    1   28 1
     4    1   29 1
     5    2    3 2
     6    2    4 2
     7    2    5 1
     8    5   10 ar
     9    5    6 ar
    10    6    7 ar
    11    6   30 1
    12    7    8 ar
    13    7   31 1
    14    8    9 ar
    15    8   11 1
    16    9   10 ar
    17    9   32 1
    18   10   33 1
    19   11   16 ar
    20   11   12 ar
    21   12   13 ar
    22   12   34 1
    23   13   14 ar
    24   13   35 1
    25   14   26 1
    26   14   15 ar
    27   15   16 ar
    28   15   24 1
    29   16   17 1
    30   17   22 ar
    31   17   18 ar
    32   18   19 ar
    33   18   36 1
    34   19   20 ar
    35   19   37 1
    36   20   21 ar
    37   20   23 1
    38   21   22 ar
    39   21   38 1
    40   22   39 1
    41   24   25 1
    42   25   26 1
    43   25   40 1
    44   25   41 1
@<TRIPOS>MOLECULE
CHEMBL332937
   44    46     0     0     0
SMALL
USER_CHARGES

@<TRIPOS>ATOM
      1 C1          0.0566    1.1109   -0.4143 C.3       1 <0>        -0.1376
      2 C2         -0.0024   -0.3918   -0.1324 C.3       1 <0>        -0.0514
      3 C3         -1.4475   -0.8369    0.1944 C.3       1 <0>         0.0538
      4 O1         -1.4933   -0.7454    1.6282 O.3       1 <0>        -0.2893
      5 C4         -0.2434   -0.9301    2.1315 C.ar      1 <0>         0.1539
      6 C5          0.7273   -0.7314    1.1532 C.ar      1 <0>        -0.1694
      7 C6          2.0621   -0.8557    1.4479 C.ar      1 <0>        -0.0242
      8 C7          2.4601   -1.1942    2.7454 C.ar      1 <0>        -0.1899
      9 C8          1.4902   -1.4024    3.7296 C.ar      1 <0>        -0.0236
     10 C9          0.1559   -1.2711    3.4245 C.ar      1 <0>        -0.0989
     11 C10        -0.8822   -1.4982    4.4931 C.3       1 <0>        -0.0225
     12 C11        -0.1892   -1.8566    5.8093 C.3       1 <0>        -0.1491
     13 C12        -1.7072   -0.2235    4.6818 C.3       1 <0>        -0.1410
     14 C13        -1.8039   -2.6448    4.0733 C.3       1 <0>        -0.1413
     15 C14         3.8937   -1.3308    3.0724 C.2       1 <0>         0.4855
     16 O2          4.2318   -1.7444    4.1666 O.2       1 <0>        -0.4442
     17 C15         4.9086   -0.9690    2.0807 C.2       1 <0>        -0.2801
     18 C16         6.2893   -1.1014    2.1525 C.2       1 <0>        -0.0625
     19 C17         6.9874   -0.6691    1.0519 C.2       1 <0>        -0.1878
     20 C18         6.3049   -0.1560   -0.0027 C.2       1 <0>        -0.2337
     21 S1          4.6936   -0.2508    0.4632 S.3       1 <0>         0.2186
     22 C19         0.5633   -1.1890   -1.3094 C.3       1 <0>        -0.1398
     23 H1          1.0969    1.4221   -0.5096 H         1 <0>         0.0649
     24 H2         -0.4740    1.3277   -1.3415 H         1 <0>         0.0671
     25 H3         -0.4111    1.6533    0.4073 H         1 <0>         0.0619
     26 H4         -2.1717   -0.1600   -0.2589 H         1 <0>         0.1110
     27 H5         -1.6188   -1.8624   -0.1326 H         1 <0>         0.0826
     28 H6          2.8034   -0.6923    0.6798 H         1 <0>         0.1262
     29 H7          1.7896   -1.6671    4.7329 H         1 <0>         0.1507
     30 H8          0.4675   -1.0397    6.1084 H         1 <0>         0.0605
     31 H9         -0.9401   -2.0209    6.5822 H         1 <0>         0.0628
     32 H10         0.3985   -2.7647    5.6749 H         1 <0>         0.0607
     33 H11        -2.2008    0.0318    3.7442 H         1 <0>         0.0645
     34 H12        -2.4580   -0.3878    5.4547 H         1 <0>         0.0598
     35 H13        -1.0505    0.5934    4.9809 H         1 <0>         0.0544
     36 H14        -1.2162   -3.5529    3.9389 H         1 <0>         0.0543
     37 H15        -2.5548   -2.8091    4.8462 H         1 <0>         0.0602
     38 H16        -2.2976   -2.3895    3.1356 H         1 <0>         0.0634
     39 H17         6.7822   -1.5175    3.0187 H         1 <0>         0.1500
     40 H18         8.0650   -0.7361    1.0262 H         1 <0>         0.1376
     41 H19         6.7057    0.2229   -0.9313 H         1 <0>         0.1875
     42 H20         1.6057   -0.9127   -1.4678 H         1 <0>         0.0652
     43 H21         0.4992   -2.2549   -1.0906 H         1 <0>         0.0623
     44 H22        -0.0120   -0.9673   -2.2083 H         1 <0>         0.0671
@<TRIPOS>BOND
     1    1    2 1
     2    1   23 1
     3    1   24 1
     4    1   25 1
     5    2    6 1
     6    2    3 1
     7    2   22 1
     8    3    4 1
     9    3   26 1
    10    3   27 1
    11    4    5 1
    12    5   10 ar
    13    5    6 ar
    14    6    7 ar
    15    7    8 ar
    16    7   28 1
    17    8    9 ar
    18    8   15 1
    19    9   10 ar
    20    9   29 1
    21   10   11 1
    22   11   12 1
    23   11   13 1
    24   11   14 1
    25   12   30 1
    26   12   31 1
    27   12   32 1
    28   13   33 1
    29   13   34 1
    30   13   35 1
    31   14   36 1
    32   14   37 1
    33   14   38 1
    34   15   16 2
    35   15   17 1
    36   17   21 1
    37   17   18 2
    38   18   19 1
    39   18   39 1
    40   19   20 2
    41   19   40 1
    42   20   21 1
    43   20   41 1
    44   22   42 1
    45   22   43 1
    46   22   44 1
@<TRIPOS>MOLECULE
CHEMBL161677
   43    45     0     0     0
SMALL
USER_CHARGES

@<TRIPOS>ATOM
      1 C1          0.0565    1.4769    0.3660 C.3       1 <0>        -0.0598
      2 C2          0.0343   -0.0151    0.1554 C.2       1 <0>         0.2042
      3 N1         -1.0314   -0.7658    0.1714 N.2       1 <0>        -0.4737
      4 C3         -0.6702   -2.0380   -0.0531 C.2       1 <0>         0.0398
      5 C4          0.6779   -2.0580   -0.2124 C.2       1 <0>        -0.0368
      6 O1          1.1061   -0.7829   -0.0843 O.3       1 <0>        -0.1920
      7 C5          1.5159   -3.2460   -0.4801 C.ar      1 <0>         0.0466
      8 C6          1.1501   -4.1515   -1.4773 C.ar      1 <0>        -0.1159
      9 C7          1.9366   -5.2583   -1.7220 C.ar      1 <0>        -0.0189
     10 C8          3.0856   -5.4716   -0.9814 C.ar      1 <0>        -0.6540
     11 C9          3.4539   -4.5779    0.0085 C.ar      1 <0>        -0.0194
     12 C10         2.6794   -3.4641    0.2594 C.ar      1 <0>        -0.1170
     13 S1          4.0841   -6.8880   -1.3001 S.o2      1 <0>         2.4995
     14 O2          4.7518   -7.1446   -0.0722 O.2       1 <0>        -0.9344
     15 O3          3.1904   -7.8448   -1.8524 O.2       1 <0>        -0.9339
     16 C11         5.2743   -6.3461   -2.5572 C.3       1 <0>        -0.6499
     17 C12        -1.5927   -3.2280   -0.1167 C.3       1 <0>        -0.0107
     18 C13        -2.5225   -3.0885   -1.3238 C.3       1 <0>        -0.1084
     19 C14        -3.4590   -4.2967   -1.3884 C.3       1 <0>        -0.1197
     20 C15        -4.2929   -4.3647   -0.1075 C.3       1 <0>        -0.1211
     21 C16        -3.3631   -4.5041    1.0996 C.3       1 <0>        -0.1201
     22 C17        -2.4266   -3.2960    1.1642 C.3       1 <0>        -0.1075
     23 H1          1.0822    1.8388    0.2940 H         1 <0>         0.0897
     24 H2         -0.5539    1.9606   -0.3965 H         1 <0>         0.1005
     25 H3         -0.3427    1.7105    1.3531 H         1 <0>         0.1007
     26 H4          0.2532   -3.9863   -2.0558 H         1 <0>         0.1400
     27 H5          1.6545   -5.9599   -2.4931 H         1 <0>         0.1511
     28 H6          4.3519   -4.7504    0.5832 H         1 <0>         0.1494
     29 H7          2.9703   -2.7649    1.0294 H         1 <0>         0.1372
     30 H8          5.8638   -5.5170   -2.1659 H         1 <0>         0.1322
     31 H9          5.9360   -7.1740   -2.8119 H         1 <0>         0.1350
     32 H10         4.7383   -6.0217   -3.4491 H         1 <0>         0.1324
     33 H11        -1.0034   -4.1396   -0.2155 H         1 <0>         0.0872
     34 H12        -3.1118   -2.1769   -1.2251 H         1 <0>         0.0720
     35 H13        -1.9284   -3.0401   -2.2364 H         1 <0>         0.0596
     36 H14        -4.1214   -4.1974   -2.2483 H         1 <0>         0.0658
     37 H15        -2.8697   -5.2083   -1.4871 H         1 <0>         0.0635
     38 H16        -4.8822   -3.4530   -0.0087 H         1 <0>         0.0633
     39 H17        -4.9601   -5.2254   -0.1535 H         1 <0>         0.0632
     40 H18        -3.9572   -4.5526    2.0122 H         1 <0>         0.0653
     41 H19        -2.7738   -5.4158    1.0009 H         1 <0>         0.0626
     42 H20        -1.7642   -3.3953    2.0241 H         1 <0>         0.0594
     43 H21        -3.0159   -2.3843    1.2629 H         1 <0>         0.0728
@<TRIPOS>BOND
     1    1    2 1
     2    1   23 1
     3    1   24 1
     4    1   25 1
     5    2    6 1
     6    2    3 2
     7    3    4 1
     8    4    5 2
     9    4   17 1
    10    5    6 1
    11    5    7 1
    12    7   12 ar
    13    7    8 ar
    14    8    9 ar
    15    8   26 1
    16    9   10 ar
    17    9   27 1
    18   10   11 ar
    19   10   13 1
    20   11   12 ar
    21   11   28 1
    22   12   29 1
    23   13   14 2
    24   13   15 2
    25   13   16 1
    26   16   30 1
    27   16   31 1
    28   16   32 1
    29   17   22 1
    30   17   18 1
    31   17   33 1
    32   18   19 1
    33   18   34 1
    34   18   35 1
    35   19   20 1
    36   19   36 1
    37   19   37 1
    38   20   21 1
    39   20   38 1
    40   20   39 1
    41   21   22 1
    42   21   40 1
    43   21   41 1
    44   22   42 1
    45   22   43 1
@<TRIPOS>MOLECULE
CHEMBL302441
   54    55     0     0     0
SMALL
USER_CHARGES

@<TRIPOS>ATOM
      1 C1         -0.2136    0.9907   -0.0656 C.3       1 <0>        -0.1488
      2 C2         -0.3436   -0.5044   -0.3630 C.3       1 <0>        -0.0213
      3 C3          0.2629   -1.3082    0.7889 C.3       1 <0>        -0.1423
      4 C4         -1.8221   -0.8675   -0.5153 C.3       1 <0>        -0.1429
      5 C5          0.3872   -0.8278   -1.6407 C.ar      1 <0>        -0.0947
      6 C6          1.0382    0.1708   -2.3330 C.ar      1 <0>        -0.0834
      7 C7          1.7147   -0.1297   -3.5163 C.ar      1 <0>        -0.0963
      8 C8          1.7293   -1.4412   -3.9939 C.ar      1 <0>        -0.0877
      9 C9          1.0760   -2.4343   -3.2958 C.ar      1 <0>        -0.0968
     10 C10         0.4087   -2.1323   -2.1160 C.ar      1 <0>         0.1372
     11 O1         -0.2293   -3.1148   -1.4279 O.3       1 <0>        -0.4842
     12 C11         1.0906   -3.8505   -3.8108 C.3       1 <0>        -0.0212
     13 C12         1.8928   -3.9116   -5.1122 C.3       1 <0>        -0.1505
     14 C13         1.7381   -4.7652   -2.7692 C.3       1 <0>        -0.1422
     15 C14        -0.3441   -4.3124   -4.0738 C.3       1 <0>        -0.1429
     16 C15         2.4134    0.9379   -4.2618 C.2       1 <0>         0.0635
     17 C16         3.5387    0.6674   -4.9089 C.2       1 <0>        -0.6933
     18 C17         4.2453   -0.6732   -4.7781 C.3       1 <0>        -0.1062
     19 C18         5.7177   -0.4148   -4.4528 C.3       1 <0>         0.0087
     20 O2          6.3734    0.2719   -5.5161 O.3       1 <0>        -0.1218
     21 N1          5.9488    1.6227   -5.6908 N.pl3     1 <0>        -0.8643
     22 S1          4.3146    1.8456   -5.9911 S.o2      1 <0>         2.6696
     23 O3          4.0666    1.4192   -7.3237 O.2       1 <0>        -0.9276
     24 O4          3.9734    3.1407   -5.5162 O.2       1 <0>        -0.9409
     25 C19         6.8861    2.7461   -5.6159 C.3       1 <0>         0.0965
     26 H1          0.8397    1.2494    0.0429 H         1 <0>         0.0589
     27 H2         -0.6457    1.5634   -0.8862 H         1 <0>         0.0590
     28 H3         -0.7422    1.2246    0.8586 H         1 <0>         0.0618
     29 H4         -0.2657   -1.0743    1.7130 H         1 <0>         0.0560
     30 H5          0.1703   -2.3734    0.5770 H         1 <0>         0.0752
     31 H6          1.3162   -1.0496    0.8973 H         1 <0>         0.0510
     32 H7         -2.2542   -0.2948   -1.3359 H         1 <0>         0.0552
     33 H8         -1.9147   -1.9327   -0.7272 H         1 <0>         0.0581
     34 H9         -2.3507   -0.6336    0.4089 H         1 <0>         0.0625
     35 H10         1.0243    1.1845   -1.9606 H         1 <0>         0.1371
     36 H11         2.2514   -1.6775   -4.9092 H         1 <0>         0.1423
     37 H12        -1.1513   -3.2434   -1.6899 H         1 <0>         0.3855
     38 H13         2.9149   -3.5825   -4.9249 H         1 <0>         0.0584
     39 H14         1.9034   -4.9360   -5.4847 H         1 <0>         0.0631
     40 H15         1.4315   -3.2599   -5.8543 H         1 <0>         0.0593
     41 H16         1.1666   -4.7217   -1.8420 H         1 <0>         0.0755
     42 H17         1.7487   -5.7895   -3.1417 H         1 <0>         0.0563
     43 H18         2.7602   -4.4361   -2.5818 H         1 <0>         0.0509
     44 H19        -0.8053   -3.6607   -4.8158 H         1 <0>         0.0552
     45 H20        -0.3335   -5.3367   -4.4463 H         1 <0>         0.0629
     46 H21        -0.9155   -4.2688   -3.1466 H         1 <0>         0.0579
     47 H22         2.0075    1.9386   -4.2796 H         1 <0>         0.1445
     48 H23         3.7886   -1.2512   -3.9747 H         1 <0>         0.1069
     49 H24         4.1683   -1.2211   -5.7172 H         1 <0>         0.0953
     50 H25         5.7822    0.1872   -3.5464 H         1 <0>         0.0750
     51 H26         6.2178   -1.3682   -4.2823 H         1 <0>         0.1287
     52 H27         7.8893    2.3697   -5.4161 H         1 <0>         0.0958
     53 H28         6.8825    3.2861   -6.5628 H         1 <0>         0.0730
     54 H29         6.5838    3.4186   -4.8131 H         1 <0>         0.0723
@<TRIPOS>BOND
     1    1    2 1
     2    1   26 1
     3    1   27 1
     4    1   28 1
     5    2    3 1
     6    2    4 1
     7    2    5 1
     8    3   29 1
     9    3   30 1
    10    3   31 1
    11    4   32 1
    12    4   33 1
    13    4   34 1
    14    5   10 ar
    15    5    6 ar
    16    6    7 ar
    17    6   35 1
    18    7    8 ar
    19    7   16 1
    20    8    9 ar
    21    8   36 1
    22    9   10 ar
    23    9   12 1
    24   10   11 1
    25   11   37 1
    26   12   13 1
    27   12   14 1
    28   12   15 1
    29   13   38 1
    30   13   39 1
    31   13   40 1
    32   14   41 1
    33   14   42 1
    34   14   43 1
    35   15   44 1
    36   15   45 1
    37   15   46 1
    38   16   17 2
    39   16   47 1
    40   17   22 1
    41   17   18 1
    42   18   19 1
    43   18   48 1
    44   18   49 1
    45   19   20 1
    46   19   50 1
    47   19   51 1
    48   20   21 1
    49   21   22 1
    50   21   25 1
    51   22   23 2
    52   22   24 2
    53   25   52 1
    54   25   53 1
    55   25   54 1
@<TRIPOS>MOLECULE
CHEMBL512400
   34    36     0     0     0
SMALL
USER_CHARGES

@<TRIPOS>ATOM
      1 C1         -0.0187    1.5258    0.0104 C.3       1 <0>        -0.1502
      2 C2          0.0021   -0.0041    0.0020 C.3       1 <0>        -0.0395
      3 C3          0.6725   -0.4747   -1.2853 C.3       1 <0>        -0.1017
      4 C4          2.0670    0.0963   -1.4039 C.3       1 <0>         0.0895
      5 H1          2.5676   -0.3603   -2.2578 H         1 <0>         0.0893
      6 C5          2.9343   -0.1048   -0.1477 C.3       1 <0>        -0.0812
      7 H2          3.3705   -1.1023   -0.0962 H         1 <0>         0.1156
      8 C6          2.1687    0.2628    1.1265 C.3       1 <0>        -0.1133
      9 C7          0.8527   -0.4877    1.1807 C.3       1 <0>        -0.0353
     10 H3          1.0125   -1.5633    1.1066 H         1 <0>         0.0959
     11 C8          0.1112   -0.1526    2.4584 C.2       1 <0>        -0.1904
     12 C9          0.6556    0.5661    3.4382 C.2       1 <0>        -0.1091
     13 C10        -1.2749   -0.6905    2.5308 C.2       1 <0>         0.4186
     14 O1         -1.7780   -1.0335    3.5844 O.2       1 <0>        -0.4474
     15 C11        -2.0052   -0.7835    1.2490 C.2       1 <0>        -0.2245
     16 C12        -1.4020   -0.5006    0.0928 C.2       1 <0>        -0.0525
     17 C13         3.9838    0.9913   -0.3745 C.2       1 <0>        -0.2354
     18 C14         5.2048    1.0696    0.1492 C.2       1 <0>        -0.0580
     19 C15         3.3370    1.9406   -1.3051 C.2       1 <0>         0.5060
     20 O2          3.8541    2.9457   -1.7515 O.2       1 <0>        -0.4466
     21 O3          2.0789    1.5215   -1.5631 O.3       1 <0>        -0.3229
     22 H4          1.0040    1.9030    0.0159 H         1 <0>         0.0845
     23 H5         -0.5344    1.8870   -0.8793 H         1 <0>         0.0633
     24 H6         -0.5404    1.8772    0.9006 H         1 <0>         0.0553
     25 H7          0.7297   -1.5632   -1.2827 H         1 <0>         0.0963
     26 H8          0.0779   -0.1495   -2.1390 H         1 <0>         0.0897
     27 H9          2.7660   -0.0077    1.9973 H         1 <0>         0.0791
     28 H10         1.9826    1.3367    1.1388 H         1 <0>         0.0844
     29 H11         1.6656    0.9356    3.3398 H         1 <0>         0.1181
     30 H12         0.0871    0.7795    4.3313 H         1 <0>         0.1119
     31 H13        -3.0370   -1.1025    1.2443 H         1 <0>         0.1363
     32 H14        -1.9641   -0.6031   -0.8237 H         1 <0>         0.1268
     33 H15         5.5547    0.2995    0.8207 H         1 <0>         0.1255
     34 H16         5.8457    1.9031   -0.0974 H         1 <0>         0.1221
@<TRIPOS>BOND
     1    1    2 1
     2    1   22 1
     3    1   23 1
     4    1   24 1
     5    2    9 1
     6    2   16 1
     7    2    3 1
     8    3    4 1
     9    3   25 1
    10    3   26 1
    11    4    5 1
    12    4   21 1
    13    4    6 1
    14    6    7 1
    15    6    8 1
    16    6   17 1
    17    8    9 1
    18    8   27 1
    19    8   28 1
    20    9   10 1
    21    9   11 1
    22   11   12 2
    23   11   13 1
    24   12   29 1
    25   12   30 1
    26   13   14 2
    27   13   15 1
    28   15   16 2
    29   15   31 1
    30   16   32 1
    31   17   18 2
    32   17   19 1
    33   18   33 1
    34   18   34 1
    35   19   20 2
    36   19   21 1
@<TRIPOS>MOLECULE
CHEMBL283267
   41    43     0     0     0
SMALL
USER_CHARGES

@<TRIPOS>ATOM
      1 C1         -0.0259    1.3216   -0.7170 C.ar      1 <0>        -0.1191
      2 C2          1.1479    2.0439   -0.5979 C.ar      1 <0>        -0.1213
      3 C3          2.3576    1.3878   -0.4948 C.ar      1 <0>        -0.1086
      4 C4          2.3951   -0.0058   -0.5109 C.ar      1 <0>        -0.0483
      5 C5          1.2089   -0.7284   -0.6312 C.ar      1 <0>        -0.1050
      6 C6          0.0052   -0.0613   -0.7336 C.ar      1 <0>        -0.1181
      7 C7          3.6915   -0.7166   -0.4011 C.ar      1 <0>        -0.0181
      8 C8          4.8763    0.0098   -0.2756 C.ar      1 <0>        -0.1310
      9 C9          6.0805   -0.6487   -0.1735 C.ar      1 <0>        -0.0620
     10 C10         6.1163   -2.0460   -0.1956 C.ar      1 <0>        -0.1688
     11 C11         4.9286   -2.7724   -0.3214 C.ar      1 <0>        -0.0450
     12 C12         3.7253   -2.1115   -0.4175 C.ar      1 <0>        -0.1213
     13 C13         7.4076   -2.7539   -0.0867 C.2       1 <0>         0.4584
     14 O1          8.4478   -2.1237   -0.0775 O.2       1 <0>        -0.4540
     15 C14         7.4360   -4.2237    0.0109 C.ar      1 <0>        -0.2427
     16 C15         7.8042   -4.9956   -1.0955 C.ar      1 <0>        -0.0582
     17 C16         7.8286   -6.3689   -0.9974 C.ar      1 <0>        -0.1775
     18 C17         7.4896   -6.9927    0.1937 C.ar      1 <0>        -0.0605
     19 C18         7.1236   -6.2459    1.2944 C.ar      1 <0>        -0.0948
     20 C19         7.0988   -4.8588    1.2177 C.ar      1 <0>         0.2647
     21 N1          6.7369   -4.1049    2.3258 N.pl3     1 <0>        -0.8632
     22 C20         6.7564   -6.9352    2.5833 C.3       1 <0>        -0.1516
     23 C21         5.2610   -7.1080    2.6521 C.2       1 <0>         0.4956
     24 O2          4.5584   -6.7085    1.7393 O.co2     1 <0>        -0.6823
     25 O3          4.7536   -7.6474    3.6207 O.co2     1 <0>        -0.7048
     26 H1         -0.9707    1.8393   -0.7928 H         1 <0>         0.1215
     27 H2          1.1176    3.1234   -0.5859 H         1 <0>         0.1230
     28 H3          3.2734    1.9527   -0.4023 H         1 <0>         0.1258
     29 H4          1.2320   -1.8080   -0.6446 H         1 <0>         0.1299
     30 H5         -0.9144   -0.6200   -0.8265 H         1 <0>         0.1251
     31 H6          4.8484    1.0893   -0.2589 H         1 <0>         0.1287
     32 H7          6.9973   -0.0863   -0.0767 H         1 <0>         0.1333
     33 H8          4.9550   -3.8520   -0.3389 H         1 <0>         0.1444
     34 H9          2.8072   -2.6725   -0.5103 H         1 <0>         0.1328
     35 H10         8.0688   -4.5152   -2.0259 H         1 <0>         0.1148
     36 H11         8.1129   -6.9634   -1.8531 H         1 <0>         0.1165
     37 H12         7.5120   -8.0704    0.2600 H         1 <0>         0.1170
     38 H13         6.6471   -3.1421    2.2490 H         1 <0>         0.3891
     39 H14         6.5739   -4.5409    3.1768 H         1 <0>         0.4038
     40 H15         7.2373   -7.9126    2.6224 H         1 <0>         0.0703
     41 H16         7.0916   -6.3314    3.4265 H         1 <0>         0.0615
@<TRIPOS>BOND
     1    1    6 ar
     2    1    2 ar
     3    1   26 1
     4    2    3 ar
     5    2   27 1
     6    3    4 ar
     7    3   28 1
     8    4    5 ar
     9    4    7 1
    10    5    6 ar
    11    5   29 1
    12    6   30 1
    13    7   12 ar
    14    7    8 ar
    15    8    9 ar
    16    8   31 1
    17    9   10 ar
    18    9   32 1
    19   10   11 ar
    20   10   13 1
    21   11   12 ar
    22   11   33 1
    23   12   34 1
    24   13   14 2
    25   13   15 1
    26   15   20 ar
    27   15   16 ar
    28   16   17 ar
    29   16   35 1
    30   17   18 ar
    31   17   36 1
    32   18   19 ar
    33   18   37 1
    34   19   20 ar
    35   19   22 1
    36   20   21 1
    37   21   38 1
    38   21   39 1
    39   22   23 1
    40   22   40 1
    41   22   41 1
    42   23   24 2
    43   23   25 1
@<TRIPOS>MOLECULE
CHEMBL1096383
   35    36     0     0     0
SMALL
USER_CHARGES

@<TRIPOS>ATOM
      1 C1          0.1701    1.0093    1.0536 C.3       1 <0>        -0.1463
      2 C2          0.1730   -0.4545    0.6084 C.3       1 <0>         0.0925
      3 H1         -0.8457   -0.8419    0.6259 H         1 <0>         0.0651
      4 C3          0.7329   -0.5547   -0.8130 C.3       1 <0>        -0.1762
      5 C4          0.7888   -2.0279   -1.2287 C.3       1 <0>         0.1783
      6 C5          1.6365   -2.8015   -0.2141 C.3       1 <0>        -0.1332
      7 C6          1.0417   -2.6146    1.1841 C.3       1 <0>         0.1076
      8 H2          0.0344   -3.0303    1.2092 H         1 <0>         0.0832
      9 O1          0.9897   -1.2209    1.4960 O.3       1 <0>        -0.3653
     10 C7          1.9169   -3.3352    2.2115 C.3       1 <0>        -0.1211
     11 S1          1.1350   -3.2393    3.8455 S.3       1 <0>         0.0768
     12 C8          2.2599   -4.1112    4.9128 C.1       1 <0>         0.1699
     13 N1          2.9782   -4.6679    5.5944 N.1       1 <0>        -0.3786
     14 C9         -0.6064   -2.5968   -1.2579 C.ar      1 <0>        -0.1190
     15 C10        -1.6400   -1.8643   -1.8109 C.ar      1 <0>        -0.1126
     16 C11        -2.9198   -2.3861   -1.8377 C.ar      1 <0>        -0.1164
     17 C12        -3.1659   -3.6406   -1.3119 C.ar      1 <0>        -0.1136
     18 C13        -2.1321   -4.3735   -0.7596 C.ar      1 <0>        -0.1165
     19 C14        -0.8515   -3.8535   -0.7367 C.ar      1 <0>        -0.1105
     20 O2          1.3784   -2.1366   -2.5258 O.3       1 <0>        -0.5467
     21 H3          1.1888    1.3965    1.0360 H         1 <0>         0.0660
     22 H4         -0.4525    1.5938    0.3762 H         1 <0>         0.0723
     23 H5         -0.2282    1.0804    2.0657 H         1 <0>         0.0683
     24 H6          0.0863   -0.0070   -1.4986 H         1 <0>         0.0812
     25 H7          1.7365   -0.1303   -0.8399 H         1 <0>         0.0872
     26 H8          1.6361   -3.8607   -0.4714 H         1 <0>         0.0899
     27 H9          2.6584   -2.4225   -0.2289 H         1 <0>         0.0909
     28 H10         2.0296   -4.3804    1.9234 H         1 <0>         0.1132
     29 H11         2.8977   -2.8611    2.2496 H         1 <0>         0.1089
     30 H12        -1.4478   -0.8841   -2.2218 H         1 <0>         0.1225
     31 H13        -3.7275   -1.8135   -2.2692 H         1 <0>         0.1247
     32 H14        -4.1659   -4.0480   -1.3322 H         1 <0>         0.1244
     33 H15        -2.3244   -5.3535   -0.3485 H         1 <0>         0.1260
     34 H16        -0.0431   -4.4276   -0.3086 H         1 <0>         0.1270
     35 H17         0.8963   -1.6636   -3.2179 H         1 <0>         0.3803
@<TRIPOS>BOND
     1    1    2 1
     2    1   21 1
     3    1   22 1
     4    1   23 1
     5    2    3 1
     6    2    9 1
     7    2    4 1
     8    4    5 1
     9    4   24 1
    10    4   25 1
    11    5    6 1
    12    5   14 1
    13    5   20 1
    14    6    7 1
    15    6   26 1
    16    6   27 1
    17    7    8 1
    18    7    9 1
    19    7   10 1
    20   10   11 1
    21   10   28 1
    22   10   29 1
    23   11   12 1
    24   12   13 3
    25   14   19 ar
    26   14   15 ar
    27   15   16 ar
    28   15   30 1
    29   16   17 ar
    30   16   31 1
    31   17   18 ar
    32   17   32 1
    33   18   19 ar
    34   18   33 1
    35   19   34 1
    36   20   35 1
@<TRIPOS>MOLECULE
CHEMBL456619
   57    59     0     0     0
SMALL
USER_CHARGES

@<TRIPOS>ATOM
      1 C1          0.0993    2.0231    1.0604 C.3       1 <0>        -0.1406
      2 C2         -0.0054    0.5684    0.5985 C.3       1 <0>        -0.0564
      3 H1         -1.0518    0.2467    0.7662 H         1 <0>         0.0740
      4 C3          0.2776    0.4631   -0.8937 C.3       1 <0>        -0.1086
      5 C4          1.7810    0.4268   -1.1863 C.3       1 <0>        -0.1133
      6 C5          2.3764   -0.7780   -0.4624 C.3       1 <0>        -0.0547
      7 H2          1.6648   -1.6203   -0.6569 H         1 <0>         0.0619
      8 C6          2.3354   -0.5373    1.0396 C.3       1 <0>        -0.0034
      9 C7          0.8831   -0.3256    1.4240 C.2       1 <0>        -0.0639
     10 C8          0.3872   -0.9317    2.5043 C.2       1 <0>        -0.1269
     11 C9         -1.0559   -0.8420    2.8040 C.ar      1 <0>        -0.0837
     12 C10        -1.9958   -1.3468    1.8971 C.ar      1 <0>         0.1436
     13 C11        -3.3470   -1.2601    2.1843 C.ar      1 <0>        -0.2031
     14 C12        -3.7725   -0.6764    3.3644 C.ar      1 <0>        -0.0940
     15 C13        -2.8510   -0.1732    4.2688 C.ar      1 <0>         0.0423
     16 C14        -1.4908   -0.2578    3.9978 C.ar      1 <0>         0.1251
     17 O1         -0.5864    0.2306    4.8872 O.3       1 <0>        -0.4825
     18 O2         -3.2786    0.4000    5.4265 O.3       1 <0>        -0.4913
     19 O3         -1.5820   -1.9205    0.7366 O.3       1 <0>        -0.2994
     20 C15        -2.5962   -2.4136   -0.1411 C.3       1 <0>         0.0234
     21 C16         2.8884   -1.7611    1.7724 C.3       1 <0>        -0.1095
     22 C17         4.3192   -2.0287    1.3008 C.3       1 <0>        -0.1189
     23 C18         4.3300   -2.3427   -0.1889 C.3       1 <0>        -0.1075
     24 C19         3.7092   -1.2193   -1.0209 C.3       1 <0>        -0.0472
     25 C20         3.4733   -1.7988   -2.4373 C.3       1 <0>        -0.1482
     26 C21         4.7001   -0.0645   -1.1648 C.3       1 <0>        -0.1454
     27 C22         3.1307    0.6960    1.4688 C.3       1 <0>        -0.1450
     28 H3          1.1021    2.3980    0.8557 H         1 <0>         0.0583
     29 H4         -0.6314    2.6281    0.5236 H         1 <0>         0.0543
     30 H5         -0.0983    2.0795    2.1308 H         1 <0>         0.0494
     31 H6         -0.1815   -0.4473   -1.2896 H         1 <0>         0.0600
     32 H7         -0.1616    1.3216   -1.4102 H         1 <0>         0.0582
     33 H8          1.9186    0.3221   -2.2652 H         1 <0>         0.0614
     34 H9          2.2427    1.3534   -0.8662 H         1 <0>         0.0662
     35 H10         1.0413   -1.4879    3.1594 H         1 <0>         0.1254
     36 H11        -4.0719   -1.6491    1.4845 H         1 <0>         0.1352
     37 H12        -4.8285   -0.6122    3.5818 H         1 <0>         0.1350
     38 H13        -0.4149    1.1777    4.7939 H         1 <0>         0.3934
     39 H14        -3.3675   -0.2203    6.1631 H         1 <0>         0.3893
     40 H15        -2.1313   -2.8452   -1.0275 H         1 <0>         0.1014
     41 H16        -3.1801   -3.1780    0.3716 H         1 <0>         0.0563
     42 H17        -3.2508   -1.5938   -0.4368 H         1 <0>         0.0561
     43 H18         2.8972   -1.5737    2.8466 H         1 <0>         0.0641
     44 H19         2.2682   -2.6302    1.5534 H         1 <0>         0.0650
     45 H20         4.9648   -1.1841    1.5191 H         1 <0>         0.0655
     46 H21         4.7068   -2.8992    1.8474 H         1 <0>         0.0564
     47 H22         5.3624   -2.4987   -0.5171 H         1 <0>         0.0596
     48 H23         3.7725   -3.2673   -0.3674 H         1 <0>         0.0584
     49 H24         3.0356   -1.0313   -3.0756 H         1 <0>         0.0548
     50 H25         4.4240   -2.1240   -2.8598 H         1 <0>         0.0535
     51 H26         2.7942   -2.6490   -2.3735 H         1 <0>         0.0518
     52 H27         4.9911    0.2899   -0.1760 H         1 <0>         0.0597
     53 H28         5.5838   -0.4089   -1.7020 H         1 <0>         0.0516
     54 H29         4.2320    0.7489   -1.7191 H         1 <0>         0.0555
     55 H30         2.8168    1.5551    0.8760 H         1 <0>         0.0598
     56 H31         2.9480    0.8968    2.5245 H         1 <0>         0.0537
     57 H32         4.1941    0.5153    1.3120 H         1 <0>         0.0641
@<TRIPOS>BOND
     1    1    2 1
     2    1   28 1
     3    1   29 1
     4    1   30 1
     5    2    3 1
     6    2    9 1
     7    2    4 1
     8    4    5 1
     9    4   31 1
    10    4   32 1
    11    5    6 1
    12    5   33 1
    13    5   34 1
    14    6    7 1
    15    6   24 1
    16    6    8 1
    17    8    9 1
    18    8   21 1
    19    8   27 1
    20    9   10 2
    21   10   11 1
    22   10   35 1
    23   11   16 ar
    24   11   12 ar
    25   12   13 ar
    26   12   19 1
    27   13   14 ar
    28   13   36 1
    29   14   15 ar
    30   14   37 1
    31   15   16 ar
    32   15   18 1
    33   16   17 1
    34   17   38 1
    35   18   39 1
    36   19   20 1
    37   20   40 1
    38   20   41 1
    39   20   42 1
    40   21   22 1
    41   21   43 1
    42   21   44 1
    43   22   23 1
    44   22   45 1
    45   22   46 1
    46   23   24 1
    47   23   47 1
    48   23   48 1
    49   24   25 1
    50   24   26 1
    51   25   49 1
    52   25   50 1
    53   25   51 1
    54   26   52 1
    55   26   53 1
    56   26   54 1
    57   27   55 1
    58   27   56 1
    59   27   57 1
@<TRIPOS>MOLECULE
CHEMBL122
   36    38     0     0     0
SMALL
USER_CHARGES

@<TRIPOS>ATOM
      1 C1         -0.0225    1.8097    0.0120 C.3       1 <0>        -0.6496
      2 S1          0.0021   -0.0041    0.0020 S.o2      1 <0>         2.4981
      3 O1          0.8352   -0.4880    1.0465 O.2       1 <0>        -0.9340
      4 O2         -1.3147   -0.5105   -0.1678 O.2       1 <0>        -0.9341
      5 C2          0.8454   -0.4373   -1.4831 C.ar      1 <0>        -0.6507
      6 C3          0.1298   -0.6119   -2.6551 C.ar      1 <0>        -0.0202
      7 C4          0.7818   -0.9504   -3.8215 C.ar      1 <0>        -0.1172
      8 C5          2.1716   -1.1177   -3.8185 C.ar      1 <0>         0.0092
      9 C6          2.8876   -0.9392   -2.6290 C.ar      1 <0>        -0.1081
     10 C7          2.2206   -0.5956   -1.4726 C.ar      1 <0>        -0.0190
     11 C8          2.8747   -1.4788   -5.0567 C.2       1 <0>        -0.0568
     12 C9          3.7864   -0.7210   -5.7283 C.2       1 <0>        -0.1387
     13 C10         4.2326   -1.4690   -6.9092 C.2       1 <0>         0.5050
     14 O3          5.0462   -1.0718   -7.7204 O.2       1 <0>        -0.4360
     15 O4          3.6087   -2.6593   -6.9612 O.3       1 <0>        -0.3106
     16 C11         2.7349   -2.7668   -5.8340 C.3       1 <0>         0.0732
     17 C12         4.2486    0.6295   -5.3334 C.ar      1 <0>        -0.0365
     18 C13         3.3544    1.7001   -5.3220 C.ar      1 <0>        -0.0956
     19 C14         3.7910    2.9559   -4.9532 C.ar      1 <0>        -0.1186
     20 C15         5.1127    3.1546   -4.5957 C.ar      1 <0>        -0.1084
     21 C16         6.0044    2.0969   -4.6056 C.ar      1 <0>        -0.1162
     22 C17         5.5784    0.8350   -4.9660 C.ar      1 <0>        -0.0916
     23 H1          1.0001    2.1870    0.0043 H         1 <0>         0.1324
     24 H2         -0.5497    2.1708   -0.8711 H         1 <0>         0.1323
     25 H3         -0.5327    2.1613    0.9088 H         1 <0>         0.1353
     26 H4         -0.9425   -0.4828   -2.6556 H         1 <0>         0.1495
     27 H5          0.2220   -1.0866   -4.7350 H         1 <0>         0.1396
     28 H6          3.9600   -1.0668   -2.6182 H         1 <0>         0.1374
     29 H7          2.7720   -0.4536   -0.5549 H         1 <0>         0.1489
     30 H8          3.0268   -3.6125   -5.2113 H         1 <0>         0.1274
     31 H9          1.7060   -2.8891   -6.1723 H         1 <0>         0.1261
     32 H10         2.3226    1.5463   -5.6015 H         1 <0>         0.1218
     33 H11         3.0997    3.7856   -4.9439 H         1 <0>         0.1270
     34 H12         5.4498    4.1395   -4.3082 H         1 <0>         0.1262
     35 H13         7.0351    2.2584   -4.3262 H         1 <0>         0.1285
     36 H14         6.2742    0.0090   -4.9684 H         1 <0>         0.1241
@<TRIPOS>BOND
     1    1    2 1
     2    1   23 1
     3    1   24 1
     4    1   25 1
     5    2    3 2
     6    2    4 2
     7    2    5 1
     8    5   10 ar
     9    5    6 ar
    10    6    7 ar
    11    6   26 1
    12    7    8 ar
    13    7   27 1
    14    8    9 ar
    15    8   11 1
    16    9   10 ar
    17    9   28 1
    18   10   29 1
    19   11   16 1
    20   11   12 2
    21   12   13 1
    22   12   17 1
    23   13   14 2
    24   13   15 1
    25   15   16 1
    26   16   30 1
    27   16   31 1
    28   17   22 ar
    29   17   18 ar
    30   18   19 ar
    31   18   32 1
    32   19   20 ar
    33   19   33 1
    34   20   21 ar
    35   20   34 1
    36   21   22 ar
    37   21   35 1
    38   22   36 1
@<TRIPOS>MOLECULE
CHEMBL224136
   29    30     0     0     0
SMALL
USER_CHARGES

@<TRIPOS>ATOM
      1 C1         -0.1014    1.8475   -0.0650 C.3       1 <0>        -0.6353
      2 S1         -0.0637    0.0339   -0.0483 S.o2      1 <0>         2.5293
      3 O1          0.7566   -0.4288    1.0157 O.2       1 <0>        -1.0241
      4 O2         -1.3741   -0.4845   -0.2310 O.2       1 <0>        -1.0229
      5 N1          0.7532   -0.3874   -1.4257 N.2       1 <0>        -1.0701
      6 C2          0.9647   -1.7322   -1.7270 C.ar      1 <0>         0.3091
      7 C3          0.4917   -2.7363   -0.8854 C.ar      1 <0>        -0.2979
      8 C4          0.7210   -4.0557   -1.2189 C.ar      1 <0>         0.1345
      9 N2          1.3785   -4.3734   -2.3180 N.ar      1 <0>        -0.5466
     10 C5          1.8440   -3.4545   -3.1436 C.ar      1 <0>         0.1314
     11 C6          1.6523   -2.1088   -2.8854 C.ar      1 <0>        -0.0651
     12 O3          2.1295   -1.1666   -3.7422 O.3       1 <0>        -0.2096
     13 C7          3.3040   -0.5574   -3.4309 C.ar      1 <0>         0.1759
     14 C8          4.0370   -0.9820   -2.3322 C.ar      1 <0>        -0.1625
     15 C9          5.2304   -0.3616   -2.0174 C.ar      1 <0>        -0.0666
     16 C10         5.6954    0.6832   -2.7966 C.ar      1 <0>        -0.0758
     17 C11         4.9664    1.1092   -3.8927 C.ar      1 <0>        -0.0695
     18 C12         3.7748    0.4869   -4.2154 C.ar      1 <0>        -0.0661
     19 Cl1         2.8642    1.0159   -5.5955 Cl        1 <0>        -0.0553
     20 Cl2         7.1953    1.4611   -2.3979 Cl        1 <0>        -0.0772
     21 H1          0.9185    2.2321   -0.0625 H         1 <0>         0.1170
     22 H2         -0.6175    2.1919   -0.9611 H         1 <0>         0.1179
     23 H3         -0.6279    2.2081    0.8187 H         1 <0>         0.1045
     24 H4         -0.0470   -2.4856    0.0164 H         1 <0>         0.1176
     25 H5          0.3575   -4.8394   -0.5708 H         1 <0>         0.1417
     26 H6          2.3771   -3.7568   -4.0329 H         1 <0>         0.1453
     27 H7          3.6746   -1.7968   -1.7231 H         1 <0>         0.1427
     28 H8          5.8010   -0.6921   -1.1621 H         1 <0>         0.1354
     29 H9          5.3309    1.9250   -4.4993 H         1 <0>         0.1423
@<TRIPOS>BOND
     1    1    2 1
     2    1   21 1
     3    1   22 1
     4    1   23 1
     5    2    3 2
     6    2    4 2
     7    2    5 1
     8    5    6 1
     9    6   11 ar
    10    6    7 ar
    11    7    8 ar
    12    7   24 1
    13    8    9 ar
    14    8   25 1
    15    9   10 ar
    16   10   11 ar
    17   10   26 1
    18   11   12 1
    19   12   13 1
    20   13   18 ar
    21   13   14 ar
    22   14   15 ar
    23   14   27 1
    24   15   16 ar
    25   15   28 1
    26   16   17 ar
    27   16   20 1
    28   17   18 ar
    29   17   29 1
    30   18   19 1
@<TRIPOS>MOLECULE
CHEMBL316866
   55    58     0     0     0
SMALL
USER_CHARGES

@<TRIPOS>ATOM
      1 C1         -0.0154    1.7297   -0.1709 C.3       1 <0>        -0.1077
      2 C2          0.0416    0.2276   -0.0629 C.2       1 <0>         0.1280
      3 C3          0.0496   -0.6190   -1.1019 C.2       1 <0>        -0.1564
      4 C4          0.1119   -1.9779   -0.5527 C.ar      1 <0>        -0.0350
      5 C5          0.1457   -3.2509   -1.1237 C.ar      1 <0>        -0.1125
      6 C6          0.2045   -4.3639   -0.3073 C.ar      1 <0>         0.1152
      7 C7          0.2299   -4.2176    1.0767 C.ar      1 <0>        -0.1746
      8 C8          0.1965   -2.9651    1.6499 C.ar      1 <0>        -0.0815
      9 C9          0.1378   -1.8341    0.8450 C.ar      1 <0>         0.0767
     10 N1          0.0989   -0.4770    1.1150 N.am      1 <0>        -0.5034
     11 C10         0.1120    0.0699    2.3468 C.2       1 <0>         0.6019
     12 O1         -0.9337    0.3570    2.8952 O.2       1 <0>        -0.4263
     13 C11         1.3970    0.3204    3.0298 C.ar      1 <0>        -0.1661
     14 C12         2.6022    0.1006    2.3589 C.ar      1 <0>        -0.0428
     15 C13         3.7988    0.3362    3.0022 C.ar      1 <0>        -0.1205
     16 C14         3.8072    0.7901    4.3109 C.ar      1 <0>         0.0044
     17 C15         2.6153    1.0096    4.9817 C.ar      1 <0>        -0.1230
     18 C16         1.4121    0.7836    4.3474 C.ar      1 <0>        -0.0376
     19 Cl1         5.3179    1.0845    5.1139 Cl        1 <0>        -0.0515
     20 O2          0.2372   -5.6068   -0.8578 O.3       1 <0>        -0.3158
     21 C17         0.2977   -6.7141    0.0434 C.3       1 <0>         0.0268
     22 C18         0.0029   -0.2451   -2.5610 C.3       1 <0>        -0.0322
     23 C19         1.4068   -0.0683   -3.0795 C.2       1 <0>         0.4551
     24 O3          2.3487   -0.2295   -2.3400 O.2       1 <0>        -0.4766
     25 O4          1.6110    0.2682   -4.3629 O.3       1 <0>        -0.2945
     26 C20         2.8919    0.3014   -4.8182 C.ar      1 <0>         0.0495
     27 C21         3.6076   -0.8781   -4.9624 C.ar      1 <0>        -0.0825
     28 C22         4.9087   -0.8444   -5.4244 C.ar      1 <0>        -0.1350
     29 C23         5.4997    0.3690   -5.7446 C.ar      1 <0>         0.1308
     30 C24         4.7839    1.5485   -5.6008 C.ar      1 <0>        -0.1943
     31 C25         3.4810    1.5143   -5.1438 C.ar      1 <0>        -0.0765
     32 O5          6.7807    0.4023   -6.1990 O.3       1 <0>        -0.3143
     33 C26         7.3258    1.6863   -6.5095 C.3       1 <0>         0.0248
     34 H1          0.9975    2.1288   -0.2244 H         1 <0>         0.0871
     35 H2         -0.5638    2.0087   -1.0705 H         1 <0>         0.0948
     36 H3         -0.5210    2.1379    0.7042 H         1 <0>         0.0731
     37 H4          0.1257   -3.3653   -2.1974 H         1 <0>         0.1338
     38 H5          0.2759   -5.0936    1.7068 H         1 <0>         0.1363
     39 H6          0.2159   -2.8624    2.7248 H         1 <0>         0.1233
     40 H7          2.5969   -0.2536    1.3387 H         1 <0>         0.1438
     41 H8          4.7313    0.1663    2.4847 H         1 <0>         0.1451
     42 H9          2.6284    1.3632    6.0021 H         1 <0>         0.1468
     43 H10         0.4835    0.9597    4.8698 H         1 <0>         0.1480
     44 H11         1.1994   -6.6391    0.6511 H         1 <0>         0.0555
     45 H12        -0.5789   -6.7037    0.6912 H         1 <0>         0.0556
     46 H13         0.3186   -7.6442   -0.5246 H         1 <0>         0.1011
     47 H14        -0.4951   -1.0353   -3.1229 H         1 <0>         0.1209
     48 H15        -0.5483    0.6878   -2.6796 H         1 <0>         0.1178
     49 H16         3.1474   -1.8228   -4.7131 H         1 <0>         0.1347
     50 H17         5.4661   -1.7626   -5.5360 H         1 <0>         0.1393
     51 H18         5.2442    2.4933   -5.8498 H         1 <0>         0.1373
     52 H19         2.9224    2.4322   -5.0357 H         1 <0>         0.1350
     53 H20         6.7263    2.1567   -7.2889 H         1 <0>         0.0579
     54 H21         7.3155    2.3110   -5.6164 H         1 <0>         0.0573
     55 H22         8.3513    1.5705   -6.8601 H         1 <0>         0.1030
@<TRIPOS>BOND
     1    1    2 1
     2    1   34 1
     3    1   35 1
     4    1   36 1
     5    2   10 1
     6    2    3 2
     7    3    4 1
     8    3   22 1
     9    4    9 ar
    10    4    5 ar
    11    5    6 ar
    12    5   37 1
    13    6    7 ar
    14    6   20 1
    15    7    8 ar
    16    7   38 1
    17    8    9 ar
    18    8   39 1
    19    9   10 1
    20   10   11 am
    21   11   12 2
    22   11   13 1
    23   13   18 ar
    24   13   14 ar
    25   14   15 ar
    26   14   40 1
    27   15   16 ar
    28   15   41 1
    29   16   17 ar
    30   16   19 1
    31   17   18 ar
    32   17   42 1
    33   18   43 1
    34   20   21 1
    35   21   44 1
    36   21   45 1
    37   21   46 1
    38   22   23 1
    39   22   47 1
    40   22   48 1
    41   23   24 2
    42   23   25 1
    43   25   26 1
    44   26   31 ar
    45   26   27 ar
    46   27   28 ar
    47   27   49 1
    48   28   29 ar
    49   28   50 1
    50   29   30 ar
    51   29   32 1
    52   30   31 ar
    53   30   51 1
    54   31   52 1
    55   32   33 1
    56   33   53 1
    57   33   54 1
    58   33   55 1
@<TRIPOS>MOLECULE
CHEMBL49394
   49    51     0     0     0
SMALL
USER_CHARGES

@<TRIPOS>ATOM
      1 C1         -0.0274    1.8618   -0.0214 C.3       1 <0>        -0.6499
      2 S1         -0.0586    0.0483   -0.0485 S.o2      1 <0>         2.4978
      3 O1          0.7390   -0.4708    1.0067 O.2       1 <0>        -0.9357
      4 O2         -1.3870   -0.4154   -0.2480 O.2       1 <0>        -0.9355
      5 C2          0.7992   -0.3974   -1.5216 C.ar      1 <0>        -0.6554
      6 C3          0.1027   -0.5393   -2.7083 C.ar      1 <0>        -0.0194
      7 C4          0.7692   -0.8886   -3.8652 C.ar      1 <0>        -0.1255
      8 C5          2.1469   -1.0982   -3.8363 C.ar      1 <0>         0.0209
      9 C6          2.8436   -0.9534   -2.6377 C.ar      1 <0>        -0.1124
     10 C7          2.1673   -0.5986   -1.4882 C.ar      1 <0>        -0.0218
     11 C8          2.8687   -1.4742   -5.0759 C.ar      1 <0>        -0.1162
     12 C9          2.4898   -2.6030   -5.8028 C.ar      1 <0>        -0.0025
     13 C10         3.1957   -2.9126   -6.9546 C.ar      1 <0>        -0.2444
     14 C11         4.2444   -2.1031   -7.3471 C.ar      1 <0>         0.1756
     15 N1          4.5855   -1.0399   -6.6438 N.ar      1 <0>        -0.4852
     16 C12         3.9398   -0.6983   -5.5405 C.ar      1 <0>         0.4307
     17 N2          4.3291    0.4322   -4.8357 N.pl3     1 <0>        -0.6589
     18 C13         3.6438    1.7154   -5.0415 C.3       1 <0>         0.1492
     19 C14         4.6886    2.7838   -5.3786 C.3       1 <0>        -0.1373
     20 C15         5.7570    2.8104   -4.2831 C.3       1 <0>        -0.1058
     21 C16         6.4586    1.4518   -4.2195 C.3       1 <0>        -0.1044
     22 C17         5.4302    0.3670   -3.8651 C.3       1 <0>         0.1520
     23 C18         7.5486    1.4897   -3.1465 C.3       1 <0>         0.0809
     24 O3          8.5625    2.4208   -3.5301 O.3       1 <0>        -0.5710
     25 C19         2.8228   -4.1225   -7.7720 C.3       1 <0>         0.5179
     26 F1          1.8734   -3.7610   -8.7339 F         1 <0>        -0.1720
     27 F2          3.9630   -4.6251   -8.4080 F         1 <0>        -0.1719
     28 F3          2.2857   -5.1047   -6.9329 F         1 <0>        -0.1735
     29 H1          1.0064    2.2072   -0.0062 H         1 <0>         0.1317
     30 H2         -0.5262    2.2471   -0.9106 H         1 <0>         0.1319
     31 H3         -0.5435    2.2208    0.8690 H         1 <0>         0.1342
     32 H4         -0.9648   -0.3766   -2.7295 H         1 <0>         0.1460
     33 H5          0.2244   -0.9998   -4.7910 H         1 <0>         0.1343
     34 H6          3.9111   -1.1145   -2.6095 H         1 <0>         0.1329
     35 H7          2.7067   -0.4822   -0.5598 H         1 <0>         0.1452
     36 H8          1.6666   -3.2208   -5.4758 H         1 <0>         0.1531
     37 H9          4.7945   -2.3448   -8.2445 H         1 <0>         0.1721
     38 H10         2.9360    1.6237   -5.8653 H         1 <0>         0.0678
     39 H11         3.1140    1.9968   -4.1314 H         1 <0>         0.0595
     40 H12         5.1544    2.5481   -6.3354 H         1 <0>         0.0685
     41 H13         4.2054    3.7590   -5.4391 H         1 <0>         0.0718
     42 H14         6.4885    3.5866   -4.5080 H         1 <0>         0.0716
     43 H15         5.2871    3.0218   -3.3226 H         1 <0>         0.0597
     44 H16         6.9078    1.2285   -5.1872 H         1 <0>         0.0848
     45 H17         5.0431    0.5406   -2.8611 H         1 <0>         0.0646
     46 H18         5.9014   -0.6147   -3.9126 H         1 <0>         0.0709
     47 H19         7.1126    1.7984   -2.1964 H         1 <0>         0.0468
     48 H20         7.9879    0.4979   -3.0395 H         1 <0>         0.0454
     49 H21         9.2875    2.4968   -2.8947 H         1 <0>         0.3812
@<TRIPOS>BOND
     1    1    2 1
     2    1   29 1
     3    1   30 1
     4    1   31 1
     5    2    3 2
     6    2    4 2
     7    2    5 1
     8    5   10 ar
     9    5    6 ar
    10    6    7 ar
    11    6   32 1
    12    7    8 ar
    13    7   33 1
    14    8    9 ar
    15    8   11 1
    16    9   10 ar
    17    9   34 1
    18   10   35 1
    19   11   16 ar
    20   11   12 ar
    21   12   13 ar
    22   12   36 1
    23   13   14 ar
    24   13   25 1
    25   14   15 ar
    26   14   37 1
    27   15   16 ar
    28   16   17 1
    29   17   22 1
    30   17   18 1
    31   18   19 1
    32   18   38 1
    33   18   39 1
    34   19   20 1
    35   19   40 1
    36   19   41 1
    37   20   21 1
    38   20   42 1
    39   20   43 1
    40   21   22 1
    41   21   23 1
    42   21   44 1
    43   22   45 1
    44   22   46 1
    45   23   24 1
    46   23   47 1
    47   23   48 1
    48   24   49 1
    49   25   26 1
    50   25   27 1
    51   25   28 1
@<TRIPOS>MOLECULE
CHEMBL49394__1
   49    51     0     0     0
SMALL
USER_CHARGES

@<TRIPOS>ATOM
      1 C1         -0.0270    1.8610   -0.0207 C.3       1 <0>        -0.6501
      2 S1         -0.0577    0.0475   -0.0477 S.o2      1 <0>         2.4978
      3 O1          0.7403   -0.4713    1.0073 O.2       1 <0>        -0.9354
      4 O2         -1.3860   -0.4166   -0.2469 O.2       1 <0>        -0.9356
      5 C2          0.7999   -0.3980   -1.5210 C.ar      1 <0>        -0.6556
      6 C3          0.1031   -0.5401   -2.7076 C.ar      1 <0>        -0.0200
      7 C4          0.7695   -0.8893   -3.8646 C.ar      1 <0>        -0.1261
      8 C5          2.1473   -1.0985   -3.8360 C.ar      1 <0>         0.0206
      9 C6          2.8442   -0.9534   -2.6376 C.ar      1 <0>        -0.1115
     10 C7          2.1681   -0.5988   -1.4879 C.ar      1 <0>        -0.0216
     11 C8          2.8689   -1.4744   -5.0757 C.ar      1 <0>        -0.1156
     12 C9          2.4900   -2.6031   -5.8027 C.ar      1 <0>        -0.0027
     13 C10         3.1956   -2.9126   -6.9546 C.ar      1 <0>        -0.2443
     14 C11         4.2442   -2.1029   -7.3472 C.ar      1 <0>         0.1756
     15 N1          4.5854   -1.0398   -6.6440 N.ar      1 <0>        -0.4853
     16 C12         3.9398   -0.6983   -5.5405 C.ar      1 <0>         0.4305
     17 N2          4.3291    0.4322   -4.8357 N.pl3     1 <0>        -0.6585
     18 C13         5.4342    0.3684   -3.8695 C.3       1 <0>         0.1432
     19 C14         6.4589    1.4517   -4.2203 C.3       1 <0>        -0.1379
     20 C15         5.7574    2.8104   -4.2840 C.3       1 <0>        -0.1057
     21 C16         4.6886    2.7837   -5.3791 C.3       1 <0>        -0.1051
     22 C17         3.6478    1.7169   -5.0459 C.3       1 <0>         0.1581
     23 C18         4.0104    4.1525   -5.4641 C.3       1 <0>         0.0823
     24 O3          4.9621    5.1302   -5.8888 O.3       1 <0>        -0.5705
     25 C19         2.8227   -4.1225   -7.7720 C.3       1 <0>         0.5179
     26 F1          1.8732   -3.7610   -8.7337 F         1 <0>        -0.1721
     27 F2          3.9629   -4.6249   -8.4083 F         1 <0>        -0.1718
     28 F3          2.2860   -5.1048   -6.9329 F         1 <0>        -0.1734
     29 H1          1.0066    2.2067   -0.0058 H         1 <0>         0.1317
     30 H2         -0.5261    2.2462   -0.9099 H         1 <0>         0.1316
     31 H3         -0.5430    2.2199    0.8698 H         1 <0>         0.1342
     32 H4         -0.9644   -0.3778   -2.7286 H         1 <0>         0.1458
     33 H5          0.2245   -1.0007   -4.7903 H         1 <0>         0.1341
     34 H6          3.9118   -1.1142   -2.6097 H         1 <0>         0.1338
     35 H7          2.7076   -0.4822   -0.5596 H         1 <0>         0.1454
     36 H8          1.6669   -3.2210   -5.4755 H         1 <0>         0.1531
     37 H9          4.7942   -2.3446   -8.2447 H         1 <0>         0.1720
     38 H10         5.0506    0.5401   -2.8638 H         1 <0>         0.0631
     39 H11         5.9074   -0.6123   -3.9199 H         1 <0>         0.0698
     40 H12         7.2357    1.4788   -3.4561 H         1 <0>         0.0723
     41 H13         6.9077    1.2283   -5.1881 H         1 <0>         0.0695
     42 H14         5.2878    3.0220   -3.3233 H         1 <0>         0.0598
     43 H15         6.4888    3.5865   -4.5092 H         1 <0>         0.0716
     44 H16         5.1541    2.5478   -6.3360 H         1 <0>         0.0833
     45 H17         2.9428    1.6257   -5.8722 H         1 <0>         0.0686
     46 H18         3.1154    2.0010   -4.1383 H         1 <0>         0.0607
     47 H19         3.1907    4.1079   -6.1812 H         1 <0>         0.0448
     48 H20         3.6209    4.4266   -4.4836 H         1 <0>         0.0464
     49 H21         4.6007    6.0239   -5.9650 H         1 <0>         0.3812
@<TRIPOS>BOND
     1    1    2 1
     2    1   29 1
     3    1   30 1
     4    1   31 1
     5    2    3 2
     6    2    4 2
     7    2    5 1
     8    5   10 ar
     9    5    6 ar
    10    6    7 ar
    11    6   32 1
    12    7    8 ar
    13    7   33 1
    14    8    9 ar
    15    8   11 1
    16    9   10 ar
    17    9   34 1
    18   10   35 1
    19   11   16 ar
    20   11   12 ar
    21   12   13 ar
    22   12   36 1
    23   13   14 ar
    24   13   25 1
    25   14   15 ar
    26   14   37 1
    27   15   16 ar
    28   16   17 1
    29   17   22 1
    30   17   18 1
    31   18   19 1
    32   18   38 1
    33   18   39 1
    34   19   20 1
    35   19   40 1
    36   19   41 1
    37   20   21 1
    38   20   42 1
    39   20   43 1
    40   21   22 1
    41   21   23 1
    42   21   44 1
    43   22   45 1
    44   22   46 1
    45   23   24 1
    46   23   47 1
    47   23   48 1
    48   24   49 1
    49   25   26 1
    50   25   27 1
    51   25   28 1
@<TRIPOS>MOLECULE
CHEMBL436539
   42    43     0     0     0
SMALL
USER_CHARGES

@<TRIPOS>ATOM
      1 C1         -0.0187    1.5258    0.0104 C.3       1 <0>        -0.1412
      2 C2          0.0021   -0.0041    0.0020 C.3       1 <0>         0.0443
      3 C3          0.7421   -0.5109    1.2415 C.3       1 <0>        -0.1416
      4 C4         -1.4333   -0.5336    0.0129 C.3       1 <0>        -0.1417
      5 C5          0.6911   -0.4788   -1.2091 C.1       1 <0>        -0.1208
      6 C6          1.2406   -0.8574   -2.1750 C.1       1 <0>        -0.1424
      7 C7          1.9108   -1.3192   -3.3531 C.2       1 <0>        -0.0862
      8 C8          2.4476   -0.4968   -4.3066 C.2       1 <0>         0.0006
      9 C9          3.0739   -1.3223   -5.4024 C.3       1 <0>        -0.0944
     10 C10         2.8545   -2.7901   -5.0019 C.3       1 <0>        -0.1740
     11 C11         2.1133   -2.7270   -3.6855 C.2       1 <0>         0.3992
     12 O1          1.7492   -3.6770   -3.0239 O.2       1 <0>        -0.4316
     13 C12         2.4180    0.9696   -4.2683 C.ar      1 <0>         0.0016
     14 C13         1.6967    1.6850   -5.2326 C.ar      1 <0>        -0.1174
     15 C14         1.6744    3.0624   -5.1891 C.ar      1 <0>        -0.0214
     16 C15         2.3621    3.7388   -4.1960 C.ar      1 <0>        -0.6540
     17 C16         3.0776    3.0397   -3.2389 C.ar      1 <0>        -0.0208
     18 C17         3.1061    1.6620   -3.2638 C.ar      1 <0>        -0.1126
     19 S1          2.3271    5.4999   -4.1504 S.o2      1 <0>         2.4979
     20 O2          3.5301    5.8695   -3.4904 O.2       1 <0>        -0.9348
     21 O3          2.0883    5.8928   -5.4950 O.2       1 <0>        -0.9349
     22 C18         0.8950    5.9110   -3.1156 C.3       1 <0>        -0.6500
     23 H1          1.0039    1.9031    0.0027 H         1 <0>         0.0598
     24 H2         -0.5459    1.8868   -0.8726 H         1 <0>         0.0587
     25 H3         -0.5289    1.8773    0.9072 H         1 <0>         0.0692
     26 H4          0.2319   -0.1594    2.1383 H         1 <0>         0.0690
     27 H5          0.7568   -1.6008    1.2356 H         1 <0>         0.0613
     28 H6          1.7647   -0.1336    1.2338 H         1 <0>         0.0598
     29 H7         -1.9605   -0.1726   -0.8702 H         1 <0>         0.0591
     30 H8         -1.4185   -1.6235    0.0069 H         1 <0>         0.0613
     31 H9         -1.9435   -0.1821    0.9097 H         1 <0>         0.0691
     32 H10         2.5853   -1.1155   -6.3546 H         1 <0>         0.1042
     33 H11         4.1402   -1.1072   -5.4721 H         1 <0>         0.1047
     34 H12         2.2549   -3.3028   -5.7541 H         1 <0>         0.1160
     35 H13         3.8118   -3.2945   -4.8705 H         1 <0>         0.1153
     36 H14         1.1600    1.1588   -6.0082 H         1 <0>         0.1387
     37 H15         1.1191    3.6156   -5.9320 H         1 <0>         0.1481
     38 H16         3.6113    3.5754   -2.4677 H         1 <0>         0.1473
     39 H17         3.6608    1.1180   -2.5136 H         1 <0>         0.1356
     40 H18         1.0305    5.4845   -2.1217 H         1 <0>         0.1320
     41 H19         0.8028    6.9942   -3.0367 H         1 <0>         0.1350
     42 H20        -0.0087    5.5013   -3.5667 H         1 <0>         0.1321
@<TRIPOS>BOND
     1    1    2 1
     2    1   23 1
     3    1   24 1
     4    1   25 1
     5    2    3 1
     6    2    4 1
     7    2    5 1
     8    3   26 1
     9    3   27 1
    10    3   28 1
    11    4   29 1
    12    4   30 1
    13    4   31 1
    14    5    6 3
    15    6    7 1
    16    7   11 1
    17    7    8 2
    18    8    9 1
    19    8   13 1
    20    9   10 1
    21    9   32 1
    22    9   33 1
    23   10   11 1
    24   10   34 1
    25   10   35 1
    26   11   12 2
    27   13   18 ar
    28   13   14 ar
    29   14   15 ar
    30   14   36 1
    31   15   16 ar
    32   15   37 1
    33   16   17 ar
    34   16   19 1
    35   17   18 ar
    36   17   38 1
    37   18   39 1
    38   19   20 2
    39   19   21 2
    40   19   22 1
    41   22   40 1
    42   22   41 1
    43   22   42 1
@<TRIPOS>MOLECULE
CHEMBL420987
   41    43     0     0     0
SMALL
USER_CHARGES

@<TRIPOS>ATOM
      1 C1         -0.0187    1.5258    0.0104 C.3       1 <0>        -0.1393
      2 C2          0.0021   -0.0041    0.0020 C.3       1 <0>        -0.0807
      3 C3          0.7492   -0.5927   -1.1750 C.2       1 <0>        -0.0153
      4 C4          1.7001   -1.1164   -0.3355 C.2       1 <0>        -0.1504
      5 C5          1.0732   -0.5995    0.8891 C.2       1 <0>         0.4043
      6 O1          1.3093   -0.6344    2.0792 O.2       1 <0>        -0.4027
      7 C6          2.9230   -1.9178   -0.5775 C.ar      1 <0>        -0.0381
      8 C7          2.8237   -3.2031   -1.1093 C.ar      1 <0>        -0.1000
      9 C8          3.9659   -3.9445   -1.3323 C.ar      1 <0>        -0.1182
     10 C9          5.2076   -3.4151   -1.0296 C.ar      1 <0>        -0.1118
     11 C10         5.3124   -2.1408   -0.5014 C.ar      1 <0>        -0.1171
     12 C11         4.1778   -1.3874   -0.2797 C.ar      1 <0>        -0.0970
     13 C12         0.5405   -0.6010   -2.6278 C.ar      1 <0>         0.0216
     14 C13         0.6061    0.5937   -3.3555 C.ar      1 <0>        -0.1152
     15 C14         0.4093    0.5767   -4.7196 C.ar      1 <0>        -0.0206
     16 C15         0.1470   -0.6167   -5.3704 C.ar      1 <0>        -0.6534
     17 C16         0.0799   -1.8023   -4.6587 C.ar      1 <0>        -0.0201
     18 C17         0.2803   -1.8045   -3.2950 C.ar      1 <0>        -0.1141
     19 S1         -0.1035   -0.6267   -7.1144 S.o2      1 <0>         2.4985
     20 O2         -0.9152   -1.7674   -7.3577 O.2       1 <0>        -0.9347
     21 O3         -0.5770    0.6778   -7.4202 O.2       1 <0>        -0.9346
     22 C18         1.5488   -0.8733   -7.8213 C.3       1 <0>        -0.6498
     23 C19        -1.3827   -0.6175    0.2188 C.3       1 <0>        -0.1374
     24 H1          1.0039    1.9031    0.0027 H         1 <0>         0.0640
     25 H2         -0.5459    1.8868   -0.8726 H         1 <0>         0.0751
     26 H3         -0.5289    1.8773    0.9072 H         1 <0>         0.0762
     27 H4          1.8548   -3.6175   -1.3457 H         1 <0>         0.1221
     28 H5          3.8902   -4.9402   -1.7438 H         1 <0>         0.1271
     29 H6          6.0988   -3.9992   -1.2059 H         1 <0>         0.1255
     30 H7          6.2845   -1.7329   -0.2667 H         1 <0>         0.1272
     31 H8          4.2611   -0.3909    0.1281 H         1 <0>         0.1230
     32 H9          0.8100    1.5257   -2.8493 H         1 <0>         0.1389
     33 H10         0.4596    1.4971   -5.2824 H         1 <0>         0.1489
     34 H11        -0.1260   -2.7288   -5.1742 H         1 <0>         0.1487
     35 H12         0.2320   -2.7309   -2.7420 H         1 <0>         0.1366
     36 H13         1.9579   -1.8195   -7.4673 H         1 <0>         0.1322
     37 H14         1.4796   -0.8915   -8.9090 H         1 <0>         0.1349
     38 H15         2.2016   -0.0569   -7.5124 H         1 <0>         0.1322
     39 H16        -2.0032   -0.4328   -0.6582 H         1 <0>         0.0745
     40 H17        -1.2839   -1.6918    0.3743 H         1 <0>         0.0635
     41 H18        -1.8476   -0.1648    1.0946 H         1 <0>         0.0757
@<TRIPOS>BOND
     1    1    2 1
     2    1   24 1
     3    1   25 1
     4    1   26 1
     5    2    5 1
     6    2    3 1
     7    2   23 1
     8    3    4 2
     9    3   13 1
    10    4    5 1
    11    4    7 1
    12    5    6 2
    13    7   12 ar
    14    7    8 ar
    15    8    9 ar
    16    8   27 1
    17    9   10 ar
    18    9   28 1
    19   10   11 ar
    20   10   29 1
    21   11   12 ar
    22   11   30 1
    23   12   31 1
    24   13   18 ar
    25   13   14 ar
    26   14   15 ar
    27   14   32 1
    28   15   16 ar
    29   15   33 1
    30   16   17 ar
    31   16   19 1
    32   17   18 ar
    33   17   34 1
    34   18   35 1
    35   19   20 2
    36   19   21 2
    37   19   22 1
    38   22   36 1
    39   22   37 1
    40   22   38 1
    41   23   39 1
    42   23   40 1
    43   23   41 1
@<TRIPOS>MOLECULE
CHEMBL261429
   43    46     0     0     0
SMALL
USER_CHARGES

@<TRIPOS>ATOM
      1 C1         -0.0167    1.3837    0.0096 C.ar      1 <0>        -0.1274
      2 C2          1.1507    2.0940    0.0023 C.ar      1 <0>        -0.0675
      3 C3          2.3730    1.4193   -0.0129 C.ar      1 <0>        -0.0793
      4 C4          3.7732    1.8495   -0.0244 C.2       1 <0>        -0.1999
      5 C5          4.5254    0.7378   -0.0378 C.2       1 <0>         0.0942
      6 N1          3.7216   -0.3693   -0.0358 N.pl3     1 <0>        -0.5811
      7 H1          4.0366   -1.2867   -0.0436 H         1 <0>         0.4229
      8 C6          2.3985    0.0129   -0.0207 C.ar      1 <0>         0.1063
      9 C7          1.1977   -0.6908   -0.0133 C.ar      1 <0>        -0.0435
     10 C8          0.0021   -0.0041    0.0020 C.ar      1 <0>        -0.0838
     11 Cl1         1.2052   -2.4268   -0.0227 Cl        1 <0>        -0.0694
     12 C9          4.2742    3.2708   -0.0222 C.3       1 <0>         0.1955
     13 C10         4.3157    3.8355   -1.4567 C.3       1 <0>        -0.1118
     14 C11         5.7781    4.1491   -1.6788 C.2       1 <0>        -0.0150
     15 N2          6.4442    3.8485   -0.6403 N.2       1 <0>        -0.1589
     16 N3          5.6829    3.3244    0.4026 N.pl3     1 <0>        -0.4568
     17 C12         6.1744    2.9180    1.6444 C.ar      1 <0>         0.2767
     18 C13         5.3082    2.4050    2.6023 C.ar      1 <0>        -0.1850
     19 C14         5.7979    2.0040    3.8296 C.ar      1 <0>         0.0187
     20 C15         7.1486    2.1129    4.1061 C.ar      1 <0>        -0.7136
     21 C16         8.0136    2.6231    3.1553 C.ar      1 <0>         0.0211
     22 C17         7.5319    3.0202    1.9236 C.ar      1 <0>        -0.1783
     23 S1          7.7687    1.6011    5.6740 S.o2      1 <0>         2.7035
     24 O1          8.9812    2.3121    5.8829 O.2       1 <0>        -0.9634
     25 O2          6.6792    1.6693    6.5836 O.2       1 <0>        -0.9623
     26 N4          8.1750    0.0012    5.5412 N.pl3     1 <0>        -1.2492
     27 C18         6.3579    4.7304   -2.9424 C.3       1 <0>         0.5566
     28 F1          7.7400    4.8869   -2.7924 F         1 <0>        -0.1606
     29 F2          6.0998    3.8683   -4.0136 F         1 <0>        -0.1617
     30 F3          5.7722    5.9757   -3.1945 F         1 <0>        -0.1610
     31 H2         -0.9617    1.9064    0.0260 H         1 <0>         0.1363
     32 H3          1.1279    3.1737    0.0079 H         1 <0>         0.1302
     33 H4          5.6052    0.7199   -0.0486 H         1 <0>         0.1679
     34 H5         -0.9289   -0.5515    0.0079 H         1 <0>         0.1393
     35 H6          3.6544    3.8948    0.6217 H         1 <0>         0.1106
     36 H7          3.9714    3.0887   -2.1721 H         1 <0>         0.1173
     37 H8          3.7146    4.7418   -1.5288 H         1 <0>         0.1175
     38 H9          4.2532    2.3203    2.3873 H         1 <0>         0.1395
     39 H10         5.1253    1.6052    4.5745 H         1 <0>         0.1469
     40 H11         9.0677    2.7070    3.3748 H         1 <0>         0.1475
     41 H12         8.2087    3.4144    1.1798 H         1 <0>         0.1436
     42 H13         8.8950   -0.3626    6.0799 H         1 <0>         0.4216
     43 H14         7.6930   -0.5721    4.9249 H         1 <0>         0.4161
@<TRIPOS>BOND
     1    1   10 ar
     2    1    2 ar
     3    1   31 1
     4    2    3 ar
     5    2   32 1
     6    3    8 ar
     7    3    4 1
     8    4    5 2
     9    4   12 1
    10    5    6 1
    11    5   33 1
    12    6    7 1
    13    6    8 1
    14    8    9 ar
    15    9   10 ar
    16    9   11 1
    17   10   34 1
    18   12   16 1
    19   12   13 1
    20   12   35 1
    21   13   14 1
    22   13   36 1
    23   13   37 1
    24   14   15 2
    25   14   27 1
    26   15   16 1
    27   16   17 1
    28   17   22 ar
    29   17   18 ar
    30   18   19 ar
    31   18   38 1
    32   19   20 ar
    33   19   39 1
    34   20   21 ar
    35   20   23 1
    36   21   22 ar
    37   21   40 1
    38   22   41 1
    39   23   24 2
    40   23   25 2
    41   23   26 1
    42   26   42 1
    43   26   43 1
    44   27   28 1
    45   27   29 1
    46   27   30 1
@<TRIPOS>MOLECULE
CHEMBL261429__1
   43    46     0     0     0
SMALL
USER_CHARGES

@<TRIPOS>ATOM
      1 C1         -0.0167    1.3837    0.0096 C.ar      1 <0>        -0.1274
      2 C2          1.1507    2.0940    0.0023 C.ar      1 <0>        -0.0684
      3 C3          2.3730    1.4193   -0.0129 C.ar      1 <0>        -0.0790
      4 C4          3.7732    1.8495   -0.0244 C.2       1 <0>        -0.2021
      5 C5          4.5254    0.7378   -0.0378 C.2       1 <0>         0.0966
      6 N1          3.7216   -0.3693   -0.0358 N.pl3     1 <0>        -0.5804
      7 H1          4.0366   -1.2867   -0.0436 H         1 <0>         0.4235
      8 C6          2.3985    0.0129   -0.0207 C.ar      1 <0>         0.1062
      9 C7          1.1977   -0.6908   -0.0133 C.ar      1 <0>        -0.0428
     10 C8          0.0021   -0.0041    0.0020 C.ar      1 <0>        -0.0845
     11 Cl1         1.2052   -2.4268   -0.0227 Cl        1 <0>        -0.0687
     12 C9          4.2742    3.2708   -0.0222 C.3       1 <0>         0.1964
     13 C10         4.4624    3.7792    1.4216 C.3       1 <0>        -0.1119
     14 C11         5.9404    4.0868    1.5060 C.2       1 <0>        -0.0158
     15 N2          6.4969    3.8283    0.3942 N.2       1 <0>        -0.1591
     16 N3          5.6326    3.3437   -0.5855 N.pl3     1 <0>        -0.4566
     17 C12         5.9946    2.9870   -1.8857 C.ar      1 <0>         0.2774
     18 C13         5.0324    2.5207   -2.7734 C.ar      1 <0>        -0.1841
     19 C14         5.3941    2.1688   -4.0587 C.ar      1 <0>         0.0186
     20 C15         6.7121    2.2794   -4.4629 C.ar      1 <0>        -0.7138
     21 C16         7.6723    2.7431   -3.5821 C.ar      1 <0>         0.0209
     22 C17         7.3168    3.1028   -2.2972 C.ar      1 <0>        -0.1785
     23 S1          7.1691    1.8281   -6.1036 S.o2      1 <0>         2.7038
     24 O1          8.5528    1.5068   -6.0659 O.2       1 <0>        -0.9643
     25 O2          6.1860    0.9096   -6.5609 O.2       1 <0>        -0.9631
     26 N4          7.0235    3.1840   -7.0430 N.pl3     1 <0>        -1.2488
     27 C18         6.6466    4.6205    2.7256 C.3       1 <0>         0.5566
     28 F1          8.0067    4.7852    2.4422 F         1 <0>        -0.1607
     29 F2          6.0921    5.8541    3.0832 F         1 <0>        -0.1612
     30 F3          6.4968    3.7175    3.7836 F         1 <0>        -0.1616
     31 H2         -0.9617    1.9064    0.0260 H         1 <0>         0.1361
     32 H3          1.1279    3.1737    0.0079 H         1 <0>         0.1298
     33 H4          5.6052    0.7199   -0.0486 H         1 <0>         0.1678
     34 H5         -0.9289   -0.5515    0.0079 H         1 <0>         0.1392
     35 H6          3.5934    3.9182   -0.5749 H         1 <0>         0.1103
     36 H7          3.8735    4.6809    1.5897 H         1 <0>         0.1174
     37 H8          4.1911    3.0044    2.1386 H         1 <0>         0.1172
     38 H9          4.0031    2.4334   -2.4583 H         1 <0>         0.1393
     39 H10         4.6469    1.8063   -4.7492 H         1 <0>         0.1467
     40 H11         8.7007    2.8279   -3.9010 H         1 <0>         0.1473
     41 H12         8.0664    3.4690   -1.6113 H         1 <0>         0.1434
     42 H13         7.5973    3.3024   -7.8161 H         1 <0>         0.4216
     43 H14         6.3644    3.8599   -6.8202 H         1 <0>         0.4170
@<TRIPOS>BOND
     1    1   10 ar
     2    1    2 ar
     3    1   31 1
     4    2    3 ar
     5    2   32 1
     6    3    8 ar
     7    3    4 1
     8    4    5 2
     9    4   12 1
    10    5    6 1
    11    5   33 1
    12    6    7 1
    13    6    8 1
    14    8    9 ar
    15    9   10 ar
    16    9   11 1
    17   10   34 1
    18   12   16 1
    19   12   13 1
    20   12   35 1
    21   13   14 1
    22   13   36 1
    23   13   37 1
    24   14   15 2
    25   14   27 1
    26   15   16 1
    27   16   17 1
    28   17   22 ar
    29   17   18 ar
    30   18   19 ar
    31   18   38 1
    32   19   20 ar
    33   19   39 1
    34   20   21 ar
    35   20   23 1
    36   21   22 ar
    37   21   40 1
    38   22   41 1
    39   23   24 2
    40   23   25 2
    41   23   26 1
    42   26   42 1
    43   26   43 1
    44   27   28 1
    45   27   29 1
    46   27   30 1
@<TRIPOS>MOLECULE
CHEMBL441769
   59    62     0     0     0
SMALL
USER_CHARGES

@<TRIPOS>ATOM
      1 C1         -0.0182    1.5027    0.0102 C.3       1 <0>        -0.1030
      2 C2          0.0021   -0.0042    0.0020 C.2       1 <0>         0.1172
      3 C3          0.0074   -0.7679   -1.0995 C.2       1 <0>        -0.1400
      4 C4          0.0293   -2.1662   -0.6567 C.ar      1 <0>        -0.0357
      5 C5          0.0428   -3.3917   -1.3243 C.ar      1 <0>        -0.1099
      6 C6          0.0625   -4.5656   -0.5961 C.ar      1 <0>         0.1119
      7 C7          0.0688   -4.5275    0.7953 C.ar      1 <0>        -0.1755
      8 C8          0.0551   -3.3226    1.4635 C.ar      1 <0>        -0.0835
      9 C9          0.0357   -2.1316    0.7482 C.ar      1 <0>         0.0770
     10 N1          0.0240   -0.7990    1.1223 N.am      1 <0>        -0.5048
     11 C10         0.0297   -0.3494    2.3928 C.2       1 <0>         0.6028
     12 O1         -1.0174   -0.0751    2.9450 O.2       1 <0>        -0.4284
     13 C11         1.3084   -0.1902    3.1139 C.ar      1 <0>        -0.1658
     14 C12         2.5190   -0.3985    2.4491 C.ar      1 <0>        -0.0420
     15 C13         3.7097   -0.2483    3.1279 C.ar      1 <0>        -0.1208
     16 C14         3.7070    0.1084    4.4664 C.ar      1 <0>         0.0038
     17 C15         2.5096    0.3160    5.1314 C.ar      1 <0>        -0.1234
     18 C16         1.3125    0.1750    4.4621 C.ar      1 <0>        -0.0382
     19 Cl1         5.2103    0.2955    5.3141 Cl        1 <0>        -0.0524
     20 O2          0.0753   -5.7626   -1.2410 O.3       1 <0>        -0.3168
     21 C17         0.0954   -6.9375   -0.4278 C.3       1 <0>         0.0272
     22 C18        -0.0069   -0.2812   -2.5257 C.3       1 <0>        -0.0654
     23 C19         1.4090   -0.0991   -3.0085 C.2       1 <0>         0.5136
     24 O3          2.3382   -0.3408   -2.2676 O.2       1 <0>        -0.5266
     25 N2          1.6427    0.3323   -4.2638 N.am      1 <0>        -0.7302
     26 C20         3.0191    0.5092   -4.7333 C.3       1 <0>         0.0946
     27 C21         3.0046    1.0034   -6.1812 C.3       1 <0>         0.1394
     28 H1          2.4214    0.3159   -6.7939 H         1 <0>         0.1152
     29 C22         4.4165    1.0682   -6.7041 C.ar      1 <0>        -0.1199
     30 C23         5.2261    2.1399   -6.3772 C.ar      1 <0>        -0.1094
     31 C24         6.5212    2.1993   -6.8568 C.ar      1 <0>        -0.1160
     32 C25         7.0068    1.1868   -7.6629 C.ar      1 <0>        -0.1152
     33 C26         6.1975    0.1146   -7.9891 C.ar      1 <0>        -0.1167
     34 C27         4.9038    0.0531   -7.5059 C.ar      1 <0>        -0.1060
     35 O4          2.4167    2.3048   -6.2345 O.3       1 <0>        -0.5502
     36 H2          1.0044    1.8799    0.0025 H         1 <0>         0.0851
     37 H3         -0.5453    1.8638   -0.8729 H         1 <0>         0.0921
     38 H4         -0.5284    1.8543    0.9070 H         1 <0>         0.0699
     39 H5          0.0376   -3.4222   -2.4038 H         1 <0>         0.1322
     40 H6          0.0842   -5.4504    1.3560 H         1 <0>         0.1352
     41 H7          0.0595   -3.3039    2.5434 H         1 <0>         0.1222
     42 H8          2.5224   -0.6770    1.4056 H         1 <0>         0.1446
     43 H9          4.6464   -0.4095    2.6151 H         1 <0>         0.1449
     44 H10         2.5140    0.5936    6.1751 H         1 <0>         0.1463
     45 H11         0.3798    0.3418    4.9804 H         1 <0>         0.1477
     46 H12         0.9887   -6.9318    0.1968 H         1 <0>         0.0551
     47 H13        -0.7911   -6.9558    0.2062 H         1 <0>         0.0552
     48 H14         0.1040   -7.8210   -1.0660 H         1 <0>         0.1004
     49 H15        -0.5139   -1.0132   -3.1543 H         1 <0>         0.1059
     50 H16        -0.5343    0.6712   -2.5793 H         1 <0>         0.1039
     51 H17         0.8995    0.5256   -4.8565 H         1 <0>         0.4049
     52 H18         3.5261    1.2413   -4.1046 H         1 <0>         0.0717
     53 H19         3.5465   -0.4431   -4.6797 H         1 <0>         0.0787
     54 H20         4.8466    2.9309   -5.7474 H         1 <0>         0.1204
     55 H21         7.1535    3.0370   -6.6020 H         1 <0>         0.1249
     56 H22         8.0185    1.2336   -8.0382 H         1 <0>         0.1243
     57 H23         6.5769   -0.6763   -8.6191 H         1 <0>         0.1255
     58 H24         4.2727   -0.7864   -7.7577 H         1 <0>         0.1249
     59 H25         2.8847    2.9695   -5.7109 H         1 <0>         0.3771
@<TRIPOS>BOND
     1    1    2 1
     2    1   36 1
     3    1   37 1
     4    1   38 1
     5    2   10 1
     6    2    3 2
     7    3    4 1
     8    3   22 1
     9    4    9 ar
    10    4    5 ar
    11    5    6 ar
    12    5   39 1
    13    6    7 ar
    14    6   20 1
    15    7    8 ar
    16    7   40 1
    17    8    9 ar
    18    8   41 1
    19    9   10 1
    20   10   11 am
    21   11   12 2
    22   11   13 1
    23   13   18 ar
    24   13   14 ar
    25   14   15 ar
    26   14   42 1
    27   15   16 ar
    28   15   43 1
    29   16   17 ar
    30   16   19 1
    31   17   18 ar
    32   17   44 1
    33   18   45 1
    34   20   21 1
    35   21   46 1
    36   21   47 1
    37   21   48 1
    38   22   23 1
    39   22   49 1
    40   22   50 1
    41   23   24 2
    42   23   25 am
    43   25   26 1
    44   25   51 1
    45   26   27 1
    46   26   52 1
    47   26   53 1
    48   27   28 1
    49   27   29 1
    50   27   35 1
    51   29   34 ar
    52   29   30 ar
    53   30   31 ar
    54   30   54 1
    55   31   32 ar
    56   31   55 1
    57   32   33 ar
    58   32   56 1
    59   33   34 ar
    60   33   57 1
    61   34   58 1
    62   35   59 1
@<TRIPOS>MOLECULE
CHEMBL47644
   33    33     0     0     0
SMALL
USER_CHARGES

@<TRIPOS>ATOM
      1 C1         -0.0180    1.4754    0.0102 C.2       1 <0>        -0.1416
      2 C2          1.2625    1.8810    0.0001 C.2       1 <0>        -0.1416
      3 C3          2.0977    0.6597   -0.0144 C.2       1 <0>         0.5383
      4 O1          3.3113    0.6294   -0.0258 O.2       1 <0>        -0.4536
      5 N1          1.2840   -0.4115   -0.0124 N.am      1 <0>        -0.5884
      6 C4          0.0021   -0.0041    0.0020 C.2       1 <0>         0.5383
      7 O2         -0.9729   -0.7274    0.0081 O.2       1 <0>        -0.4536
      8 C5          1.7262   -1.8081   -0.0251 C.3       1 <0>         0.1127
      9 C6          1.8949   -2.3028    1.4129 C.3       1 <0>        -0.1364
     10 C7          2.3567   -3.7613    1.3996 C.3       1 <0>        -0.1148
     11 C8          2.5254   -4.2560    2.8376 C.3       1 <0>        -0.1180
     12 C9          2.9872   -5.7145    2.8244 C.3       1 <0>        -0.1203
     13 C10         3.1559   -6.2092    4.2624 C.3       1 <0>        -0.0936
     14 C11         3.6177   -7.6677    4.2491 C.3       1 <0>        -0.1838
     15 C12         3.7838   -8.1549    5.6655 C.2       1 <0>         0.4871
     16 O3          3.5541   -7.4051    6.5990 O.co2     1 <0>        -0.7000
     17 O4          4.1479   -9.2990    5.8779 O.co2     1 <0>        -0.7099
     18 H1         -0.8936    2.1075    0.0259 H         1 <0>         0.1827
     19 H2          1.6147    2.9019    0.0022 H         1 <0>         0.1827
     20 H3          0.9823   -2.4202   -0.5350 H         1 <0>         0.0955
     21 H4          2.6791   -1.8828   -0.5491 H         1 <0>         0.0955
     22 H5          2.6388   -1.6907    1.9228 H         1 <0>         0.0689
     23 H6          0.9420   -2.2281    1.9369 H         1 <0>         0.0689
     24 H7          1.6128   -4.3734    0.8898 H         1 <0>         0.0648
     25 H8          3.3096   -3.8360    0.8756 H         1 <0>         0.0648
     26 H9          3.2693   -3.6439    3.3475 H         1 <0>         0.0611
     27 H10         1.5725   -4.1813    3.3616 H         1 <0>         0.0611
     28 H11         2.2433   -6.3266    2.3145 H         1 <0>         0.0550
     29 H12         3.9401   -5.7892    2.3004 H         1 <0>         0.0550
     30 H13         3.8998   -5.5971    4.7722 H         1 <0>         0.0573
     31 H14         2.2030   -6.1345    4.7864 H         1 <0>         0.0573
     32 H15         2.8738   -8.2798    3.7393 H         1 <0>         0.0543
     33 H16         4.5706   -7.7424    3.7251 H         1 <0>         0.0543
@<TRIPOS>BOND
     1    1    6 1
     2    1    2 2
     3    1   18 1
     4    2    3 1
     5    2   19 1
     6    3    4 2
     7    3    5 am
     8    5    6 am
     9    5    8 1
    10    6    7 2
    11    8    9 1
    12    8   20 1
    13    8   21 1
    14    9   10 1
    15    9   22 1
    16    9   23 1
    17   10   11 1
    18   10   24 1
    19   10   25 1
    20   11   12 1
    21   11   26 1
    22   11   27 1
    23   12   13 1
    24   12   28 1
    25   12   29 1
    26   13   14 1
    27   13   30 1
    28   13   31 1
    29   14   15 1
    30   14   32 1
    31   14   33 1
    32   15   16 2
    33   15   17 1
@<TRIPOS>MOLECULE
CHEMBL108201
   43    45     0     0     0
SMALL
USER_CHARGES

@<TRIPOS>ATOM
      1 C1         -0.0173    1.4248    0.0099 C.3       1 <0>         0.0260
      2 O1          0.0021   -0.0041    0.0020 O.3       1 <0>        -0.3171
      3 C2          0.6256   -0.6182    1.0411 C.ar      1 <0>         0.1310
      4 C3          1.2016    0.1428    2.0503 C.ar      1 <0>        -0.2067
      5 C4          1.8347   -0.4755    3.1065 C.ar      1 <0>        -0.0639
      6 C5          1.8968   -1.8709    3.1613 C.ar      1 <0>        -0.0795
      7 C6          1.3156   -2.6324    2.1433 C.ar      1 <0>        -0.0613
      8 C7          0.6801   -2.0051    1.0939 C.ar      1 <0>        -0.1504
      9 C8          2.5730   -2.5369    4.2883 C.2       1 <0>        -0.0635
     10 C9          1.9641   -3.3194    5.1890 C.2       1 <0>        -0.1070
     11 C10         2.9593   -3.8343    6.2029 C.3       1 <0>        -0.0838
     12 C11         4.3431   -3.6029    5.5549 C.3       1 <0>        -0.1221
     13 C12         4.0514   -2.4376    4.5855 C.3       1 <0>        -0.0883
     14 C13         0.5242   -3.6339    5.1912 C.ar      1 <0>         0.0291
     15 C14        -0.4154   -2.6209    5.4004 C.ar      1 <0>        -0.1225
     16 C15        -1.7611   -2.9226    5.4006 C.ar      1 <0>        -0.0208
     17 C16        -2.1817   -4.2248    5.1947 C.ar      1 <0>        -0.6618
     18 C17        -1.2571   -5.2332    4.9873 C.ar      1 <0>        -0.0213
     19 C18         0.0917   -4.9455    4.9782 C.ar      1 <0>        -0.1299
     20 S1         -3.9032   -4.6008    5.1973 S.o2      1 <0>         2.4989
     21 O2         -3.9752   -5.9677    5.5789 O.2       1 <0>        -0.9377
     22 O3         -4.4936   -3.5912    6.0044 O.2       1 <0>        -0.9380
     23 C19        -4.4255   -4.4056    3.4711 C.3       1 <0>        -0.6505
     24 H1          1.0053    1.8021    0.0021 H         1 <0>         0.0567
     25 H2         -0.5445    1.7859   -0.8732 H         1 <0>         0.1019
     26 H3         -0.5275    1.7763    0.9067 H         1 <0>         0.0566
     27 H4          1.1535    1.2209    2.0069 H         1 <0>         0.1303
     28 H5          2.2826    0.1170    3.8905 H         1 <0>         0.1259
     29 H6          1.3613   -3.7108    2.1813 H         1 <0>         0.1277
     30 H7          0.2272   -2.5927    0.3090 H         1 <0>         0.1320
     31 H8          2.8777   -3.2725    7.1334 H         1 <0>         0.0805
     32 H9          2.7992   -4.8970    6.3854 H         1 <0>         0.0752
     33 H10         5.0809   -3.3150    6.3038 H         1 <0>         0.0782
     34 H11         4.6700   -4.4871    5.0077 H         1 <0>         0.0738
     35 H12         4.6307   -2.5511    3.6692 H         1 <0>         0.0763
     36 H13         4.2789   -1.4847    5.0632 H         1 <0>         0.0805
     37 H14        -0.0885   -1.6043    5.5618 H         1 <0>         0.1306
     38 H15        -2.4885   -2.1408    5.5621 H         1 <0>         0.1420
     39 H16        -1.5927   -6.2473    4.8281 H         1 <0>         0.1433
     40 H17         0.8121   -5.7327    4.8115 H         1 <0>         0.1337
     41 H18        -3.8632   -5.0949    2.8412 H         1 <0>         0.1316
     42 H19        -5.4903   -4.6229    3.3869 H         1 <0>         0.1333
     43 H20        -4.2369   -3.3819    3.1479 H         1 <0>         0.1313
@<TRIPOS>BOND
     1    1    2 1
     2    1   24 1
     3    1   25 1
     4    1   26 1
     5    2    3 1
     6    3    8 ar
     7    3    4 ar
     8    4    5 ar
     9    4   27 1
    10    5    6 ar
    11    5   28 1
    12    6    7 ar
    13    6    9 1
    14    7    8 ar
    15    7   29 1
    16    8   30 1
    17    9   13 1
    18    9   10 2
    19   10   11 1
    20   10   14 1
    21   11   12 1
    22   11   31 1
    23   11   32 1
    24   12   13 1
    25   12   33 1
    26   12   34 1
    27   13   35 1
    28   13   36 1
    29   14   19 ar
    30   14   15 ar
    31   15   16 ar
    32   15   37 1
    33   16   17 ar
    34   16   38 1
    35   17   18 ar
    36   17   20 1
    37   18   19 ar
    38   18   39 1
    39   19   40 1
    40   20   21 2
    41   20   22 2
    42   20   23 1
    43   23   41 1
    44   23   42 1
    45   23   43 1
@<TRIPOS>MOLECULE
CHEMBL38368
   36    38     0     0     0
SMALL
USER_CHARGES

@<TRIPOS>ATOM
      1 C1          0.5396    1.5709    0.6197 C.3       1 <0>        -0.0749
      2 C2          0.4345    0.0731    0.4900 C.2       1 <0>        -0.1278
      3 C3         -0.6769   -0.7064    0.4784 C.2       1 <0>        -0.1696
      4 C4         -0.5388   -2.0710    0.3474 C.2       1 <0>        -0.1067
      5 C5          0.7216   -2.5968    0.2328 C.2       1 <0>        -0.1067
      6 S1          1.7389   -1.1313    0.3043 S.3       1 <0>         0.0754
      7 C6          1.1311   -4.0068    0.0833 C.2       1 <0>         0.1083
      8 C7          2.1280   -4.4910   -0.7431 C.2       1 <0>        -0.0123
      9 O1          2.1597   -5.8301   -0.5606 O.3       1 <0>        -0.1839
     10 C8          1.2204   -6.1479    0.3401 C.2       1 <0>         0.2137
     11 N1          0.6071   -5.0694    0.7324 N.2       1 <0>        -0.4659
     12 C9          0.9232   -7.5420    0.8291 C.3       1 <0>        -0.0621
     13 C10         2.9873   -3.7023   -1.6456 C.ar      1 <0>         0.0438
     14 C11         4.3691   -3.9107   -1.6595 C.ar      1 <0>        -0.1137
     15 C12         5.1663   -3.1697   -2.5065 C.ar      1 <0>        -0.0146
     16 C13         4.6011   -2.2214   -3.3409 C.ar      1 <0>        -0.6661
     17 C14         3.2335   -2.0094   -3.3327 C.ar      1 <0>        -0.0119
     18 C15         2.4231   -2.7469   -2.4952 C.ar      1 <0>        -0.1043
     19 S2          5.6278   -1.2787   -4.4188 S.o2      1 <0>         2.7009
     20 O2          4.9232   -0.0779   -4.7037 O.2       1 <0>        -0.9585
     21 O3          6.9283   -1.2813   -3.8462 O.2       1 <0>        -0.9592
     22 N2          5.7369   -2.1131   -5.8451 N.pl3     1 <0>        -1.2492
     23 H1          1.5884    1.8658    0.5854 H         1 <0>         0.0751
     24 H2          0.0018    2.0453   -0.2011 H         1 <0>         0.0854
     25 H3          0.1047    1.8848    1.5686 H         1 <0>         0.0849
     26 H4         -1.6571   -0.2624    0.5710 H         1 <0>         0.1392
     27 H5         -1.4067   -2.7137    0.3356 H         1 <0>         0.1378
     28 H6          1.5367   -7.7588    1.7036 H         1 <0>         0.0992
     29 H7         -0.1307   -7.6160    1.0972 H         1 <0>         0.1065
     30 H8          1.1487   -8.2596    0.0402 H         1 <0>         0.0938
     31 H9          4.8116   -4.6500   -1.0083 H         1 <0>         0.1401
     32 H10         6.2343   -3.3297   -2.5183 H         1 <0>         0.1517
     33 H11         2.7994   -1.2674   -3.9864 H         1 <0>         0.1526
     34 H12         1.3555   -2.5834   -2.4928 H         1 <0>         0.1391
     35 H13         5.2736   -2.9590   -5.9488 H         1 <0>         0.4173
     36 H14         6.2641   -1.7560   -6.5768 H         1 <0>         0.4225
@<TRIPOS>BOND
     1    1    2 1
     2    1   23 1
     3    1   24 1
     4    1   25 1
     5    2    6 1
     6    2    3 2
     7    3    4 1
     8    3   26 1
     9    4    5 2
    10    4   27 1
    11    5    6 1
    12    5    7 1
    13    7   11 1
    14    7    8 2
    15    8    9 1
    16    8   13 1
    17    9   10 1
    18   10   11 2
    19   10   12 1
    20   12   28 1
    21   12   29 1
    22   12   30 1
    23   13   18 ar
    24   13   14 ar
    25   14   15 ar
    26   14   31 1
    27   15   16 ar
    28   15   32 1
    29   16   17 ar
    30   16   19 1
    31   17   18 ar
    32   17   33 1
    33   18   34 1
    34   19   20 2
    35   19   21 2
    36   19   22 1
    37   22   35 1
    38   22   36 1
@<TRIPOS>MOLECULE
CHEMBL298296
   45    48     0     0     0
SMALL
USER_CHARGES

@<TRIPOS>ATOM
      1 C1          0.7979    1.1187    0.7496 C.3       1 <0>        -0.6494
      2 S1          0.8709   -0.6845    0.5656 S.o2      1 <0>         2.4986
      3 O1          1.8615   -1.2249    1.4293 O.2       1 <0>        -0.9309
      4 O2         -0.4421   -1.2274    0.5400 O.2       1 <0>        -0.9315
      5 C2          1.4985   -0.9488   -1.0594 C.ar      1 <0>        -0.6546
      6 C3          0.6266   -1.0479   -2.1282 C.ar      1 <0>        -0.0053
      7 C4          1.1155   -1.2555   -3.4031 C.ar      1 <0>        -0.1319
      8 C5          2.4840   -1.3643   -3.6112 C.ar      1 <0>         0.1665
      9 C6          3.3569   -1.2639   -2.5361 C.ar      1 <0>        -0.1261
     10 C7          2.8622   -1.0511   -1.2642 C.ar      1 <0>        -0.0070
     11 N1          2.9830   -1.5753   -4.9033 N.pl3     1 <0>        -0.4169
     12 C8          2.6558   -2.6060   -5.7423 C.2       1 <0>        -0.0183
     13 C9          3.3662   -2.4241   -6.8881 C.2       1 <0>         0.0550
     14 N2          4.1072   -1.3096   -6.7484 N.2       1 <0>        -0.4488
     15 C10         3.8836   -0.7870   -5.5645 C.2       1 <0>         0.2600
     16 C11         4.5046    0.4455   -5.0338 C.ar      1 <0>        -0.0156
     17 C12         5.6893    0.9289   -5.5910 C.ar      1 <0>        -0.0607
     18 C13         6.2637    2.0795   -5.0921 C.ar      1 <0>        -0.1069
     19 C14         5.6674    2.7544   -4.0403 C.ar      1 <0>        -0.0227
     20 C15         4.4918    2.2796   -3.4833 C.ar      1 <0>        -0.1070
     21 C16         3.9051    1.1332   -3.9776 C.ar      1 <0>        -0.1004
     22 Cl1         6.3967    4.2012   -3.4169 Cl        1 <0>        -0.0603
     23 C17         3.3307   -3.3022   -8.0834 C.ar      1 <0>        -0.0087
     24 C18         2.5112   -4.4293   -8.0991 C.ar      1 <0>        -0.1093
     25 C19         2.4819   -5.2424   -9.2139 C.ar      1 <0>        -0.1180
     26 C20         3.2638   -4.9403  -10.3142 C.ar      1 <0>        -0.1169
     27 C21         4.0794   -3.8231  -10.3040 C.ar      1 <0>        -0.1193
     28 C22         4.1124   -2.9998   -9.1968 C.ar      1 <0>        -0.0920
     29 H1          1.7974    1.5368    0.6305 H         1 <0>         0.1336
     30 H2          0.1369    1.5350   -0.0105 H         1 <0>         0.1333
     31 H3          0.4155    1.3677    1.7395 H         1 <0>         0.1370
     32 H4         -0.4377   -0.9632   -1.9657 H         1 <0>         0.1561
     33 H5          0.4340   -1.3335   -4.2373 H         1 <0>         0.1446
     34 H6          4.4219   -1.3481   -2.6948 H         1 <0>         0.1433
     35 H7          3.5410   -0.9685   -0.4282 H         1 <0>         0.1564
     36 H8          1.9657   -3.4103   -5.5343 H         1 <0>         0.1863
     37 H9          6.1557    0.4030   -6.4110 H         1 <0>         0.1467
     38 H10         7.1805    2.4545   -5.5225 H         1 <0>         0.1431
     39 H11         4.0312    2.8101   -2.6631 H         1 <0>         0.1396
     40 H12         2.9861    0.7661   -3.5452 H         1 <0>         0.1329
     41 H13         1.9006   -4.6663   -7.2404 H         1 <0>         0.1214
     42 H14         1.8474   -6.1163   -9.2271 H         1 <0>         0.1254
     43 H15         3.2377   -5.5794  -11.1845 H         1 <0>         0.1233
     44 H16         4.6884   -3.5924  -11.1655 H         1 <0>         0.1251
     45 H17         4.7462   -2.1254   -9.1915 H         1 <0>         0.1304
@<TRIPOS>BOND
     1    1    2 1
     2    1   29 1
     3    1   30 1
     4    1   31 1
     5    2    3 2
     6    2    4 2
     7    2    5 1
     8    5   10 ar
     9    5    6 ar
    10    6    7 ar
    11    6   32 1
    12    7    8 ar
    13    7   33 1
    14    8    9 ar
    15    8   11 1
    16    9   10 ar
    17    9   34 1
    18   10   35 1
    19   11   15 1
    20   11   12 1
    21   12   13 2
    22   12   36 1
    23   13   14 1
    24   13   23 1
    25   14   15 2
    26   15   16 1
    27   16   21 ar
    28   16   17 ar
    29   17   18 ar
    30   17   37 1
    31   18   19 ar
    32   18   38 1
    33   19   20 ar
    34   19   22 1
    35   20   21 ar
    36   20   39 1
    37   21   40 1
    38   23   28 ar
    39   23   24 ar
    40   24   25 ar
    41   24   41 1
    42   25   26 ar
    43   25   42 1
    44   26   27 ar
    45   26   43 1
    46   27   28 ar
    47   27   44 1
    48   28   45 1
@<TRIPOS>MOLECULE
CHEMBL367739
   32    34     0     0     0
SMALL
USER_CHARGES

@<TRIPOS>ATOM
      1 C1         -4.0205   -0.0482   -1.0677 C.3       1 <0>        -0.0478
      2 C2         -3.0400   -1.1750   -0.8680 C.2       1 <0>        -0.2467
      3 C3         -1.7110   -1.1281   -0.6052 C.2       1 <0>         0.0734
      4 N1         -1.0839   -2.2827   -0.4748 N.2       1 <0>        -0.5294
      5 C4         -1.7281   -3.4236   -0.5961 C.2       1 <0>         0.3108
      6 S1         -3.3102   -2.9394   -0.9045 S.3       1 <0>         0.0526
      7 N2         -1.2258   -4.7135   -0.4897 N.am      1 <0>        -0.6378
      8 C5          0.0822   -4.9080   -0.2292 C.2       1 <0>         0.5656
      9 O1          0.8370   -3.9540   -0.1541 O.2       1 <0>        -0.4646
     10 C6          0.5781   -6.2171   -0.0433 C.2       1 <0>        -0.2123
     11 C7          1.9408   -6.3973    0.0509 C.2       1 <0>         0.3202
     12 C8          2.5076   -7.7185    0.1979 C.2       1 <0>        -0.0383
     13 C9          1.8139   -8.9199   -0.0079 C.2       1 <0>        -0.6933
     14 C10         2.5285  -10.0788    0.1817 C.2       1 <0>        -0.0736
     15 C11         3.8379  -10.0191    0.5490 C.2       1 <0>        -0.2272
     16 S2          4.1287   -8.2578    0.6475 S.3       1 <0>         0.1657
     17 S3          0.1010   -8.7979   -0.4866 S.o2      1 <0>         2.7004
     18 O2         -0.6212   -9.7405    0.2939 O.2       1 <0>        -0.9667
     19 O3          0.0623   -8.7797   -1.9069 O.2       1 <0>        -0.9555
     20 N3         -0.3425   -7.2787    0.0431 N.pl3     1 <0>        -0.9107
     21 C12        -1.6813   -7.0491    0.5918 C.3       1 <0>         0.0658
     22 O4          2.7617   -5.3197    0.0046 O.3       1 <0>        -0.5958
     23 H1         -5.0124   -0.4588   -1.2564 H         1 <0>         0.0663
     24 H2         -4.0485    0.5722   -0.1719 H         1 <0>         0.0728
     25 H3         -3.7099    0.5571   -1.9193 H         1 <0>         0.0730
     26 H4         -1.1883   -0.1881   -0.5072 H         1 <0>         0.1663
     27 H5         -1.8162   -5.4747   -0.6028 H         1 <0>         0.4176
     28 H6          2.0510  -11.0369    0.0388 H         1 <0>         0.1335
     29 H7          4.5265  -10.8302    0.7344 H         1 <0>         0.1889
     30 H8         -1.7809   -6.0030    0.8811 H         1 <0>         0.0943
     31 H9         -2.4296   -7.2901   -0.1633 H         1 <0>         0.0586
     32 H10        -1.8296   -7.6835    1.4656 H         1 <0>         0.0738
@<TRIPOS>BOND
     1    1    2 1
     2    1   23 1
     3    1   24 1
     4    1   25 1
     5    2    6 1
     6    2    3 2
     7    3    4 1
     8    3   26 1
     9    4    5 2
    10    5    6 1
    11    5    7 1
    12    7    8 am
    13    7   27 1
    14    8    9 2
    15    8   10 1
    16   10   20 1
    17   10   11 2
    18   11   12 1
    19   11   22 1
    20   12   16 1
    21   12   13 2
    22   13   14 1
    23   13   17 1
    24   14   15 2
    25   14   28 1
    26   15   16 1
    27   15   29 1
    28   17   18 2
    29   17   19 2
    30   17   20 1
    31   20   21 1
    32   21   30 1
    33   21   31 1
    34   21   32 1
@<TRIPOS>MOLECULE
CHEMBL301586
   33    35     0     0     0
SMALL
USER_CHARGES

@<TRIPOS>ATOM
      1 C1          0.0787    1.5140   -0.3782 C.ar      1 <0>        -0.1613
      2 C2          1.2522    2.1640   -0.0354 C.ar      1 <0>        -0.0769
      3 C3          2.4342    1.4579    0.0786 C.ar      1 <0>        -0.1903
      4 C4          2.4514    0.0895   -0.1506 C.ar      1 <0>         0.2245
      5 C5          1.2646   -0.5715   -0.4979 C.ar      1 <0>        -0.0494
      6 C6          0.0782    0.1540   -0.6095 C.ar      1 <0>        -0.0716
      7 C7          1.2706   -2.0280   -0.7448 C.2       1 <0>         0.1660
      8 N1          0.1880   -2.8034   -1.0910 N.pl3     1 <0>        -0.5949
      9 C8          0.6703   -4.0761   -1.2132 C.2       1 <0>         0.3823
     10 N2          1.9570   -4.0316   -0.9516 N.2       1 <0>        -0.3319
     11 N3          2.3112   -2.8263   -0.6808 N.2       1 <0>        -0.3017
     12 S1         -0.2601   -5.5098   -1.6413 S.3       1 <0>        -0.7997
     13 N4          3.6436   -0.6250   -0.0364 N.pl3     1 <0>        -0.6702
     14 C9          4.7871    0.0001    0.4669 C.ar      1 <0>         0.1803
     15 C10         4.6918    0.8474    1.5641 C.ar      1 <0>        -0.1272
     16 C11         5.8240    1.4636    2.0589 C.ar      1 <0>        -0.0942
     17 C12         7.0520    1.2386    1.4635 C.ar      1 <0>        -0.1054
     18 C13         7.1504    0.3964    0.3713 C.ar      1 <0>        -0.1552
     19 C14         6.0230   -0.2284   -0.1248 C.ar      1 <0>        -0.1052
     20 C15         8.4904    0.1552   -0.2746 C.3       1 <0>         0.5089
     21 F1          9.4727    0.8861    0.4021 F         1 <0>        -0.1785
     22 F2          8.7987   -1.2081   -0.2138 F         1 <0>        -0.1747
     23 F3          8.4437    0.5635   -1.6119 F         1 <0>        -0.1764
     24 H1         -0.8413    2.0736   -0.4606 H         1 <0>         0.1232
     25 H2          1.2436    3.2290    0.1435 H         1 <0>         0.1236
     26 H3          3.3458    1.9715    0.3461 H         1 <0>         0.1326
     27 H4         -0.8398   -0.3486   -0.8764 H         1 <0>         0.1205
     28 H5          3.6789   -1.5560   -0.3065 H         1 <0>         0.4350
     29 H6          3.7331    1.0240    2.0290 H         1 <0>         0.1388
     30 H7          5.7506    2.1223    2.9117 H         1 <0>         0.1364
     31 H8          7.9359    1.7222    1.8524 H         1 <0>         0.1365
     32 H9          6.1013   -0.8899   -0.9749 H         1 <0>         0.1373
     33 H10        -0.7269   -2.5083   -1.2209 H         1 <0>         0.4188
@<TRIPOS>BOND
     1    1    6 ar
     2    1    2 ar
     3    1   24 1
     4    2    3 ar
     5    2   25 1
     6    3    4 ar
     7    3   26 1
     8    4    5 ar
     9    4   13 1
    10    5    6 ar
    11    5    7 1
    12    6   27 1
    13    7    8 1
    14    7   11 2
    15    8    9 1
    16    8   33 1
    17    9   12 1
    18    9   10 2
    19   10   11 1
    20   13   14 1
    21   13   28 1
    22   14   19 ar
    23   14   15 ar
    24   15   16 ar
    25   15   29 1
    26   16   17 ar
    27   16   30 1
    28   17   18 ar
    29   17   31 1
    30   18   19 ar
    31   18   20 1
    32   19   32 1
    33   20   21 1
    34   20   22 1
    35   20   23 1
@<TRIPOS>MOLECULE
CHEMBL284705
   33    35     0     0     0
SMALL
USER_CHARGES

@<TRIPOS>ATOM
      1 C1         -0.0187    1.5258    0.0104 C.3       1 <0>        -0.1127
      2 C2          0.0021   -0.0041    0.0020 C.3       1 <0>        -0.1341
      3 C3         -1.4117   -0.5257    0.0127 C.ar      1 <0>        -0.0102
      4 C4         -2.2583   -0.2035    1.0573 C.ar      1 <0>        -0.0989
      5 C5         -3.5521   -0.6916    1.0842 C.ar      1 <0>        -0.1119
      6 C6         -4.0016   -1.5014    0.0512 C.ar      1 <0>         0.0442
      7 C7         -3.1625   -1.7970   -1.0054 C.ar      1 <0>         0.0663
      8 C8         -1.8623   -1.3218   -1.0260 C.ar      1 <0>        -0.1091
      9 O1         -3.6691   -2.5095   -2.0367 O.3       1 <0>        -0.2657
     10 C9         -4.0782   -3.7890   -1.8970 C.ar      1 <0>         0.1340
     11 C10        -3.6523   -4.6755   -2.8923 C.ar      1 <0>        -0.1346
     12 C11        -4.0065   -6.0048   -2.8535 C.ar      1 <0>        -0.0960
     13 C12        -4.7946   -6.4699   -1.8164 C.ar      1 <0>        -0.1378
     14 C13        -5.2163   -5.6009   -0.8356 C.ar      1 <0>        -0.0957
     15 C14        -4.8630   -4.2516   -0.8649 C.ar      1 <0>        -0.1706
     16 C15        -5.3969   -3.4188    0.2717 C.3       1 <0>         0.1127
     17 O2         -5.2465   -2.0289    0.0838 O.3       1 <0>        -0.3184
     18 C16         0.7309   -0.5033    1.2229 C.2       1 <0>         0.5026
     19 O3          1.1912    0.2909    2.0254 O.co2     1 <0>        -0.6893
     20 O4          0.8604   -1.7014    1.4082 O.co2     1 <0>        -0.6928
     21 H1          1.0039    1.9031    0.0027 H         1 <0>         0.0571
     22 H2         -0.5459    1.8868   -0.8726 H         1 <0>         0.0351
     23 H3         -0.5289    1.8773    0.9072 H         1 <0>         0.0548
     24 H4          0.5123   -0.3556   -0.8948 H         1 <0>         0.0738
     25 H5         -1.9074    0.4324    1.8566 H         1 <0>         0.1342
     26 H6         -4.2090   -0.4434    1.9048 H         1 <0>         0.1330
     27 H7         -1.2036   -1.5737   -1.8440 H         1 <0>         0.1331
     28 H8         -3.0369   -4.3117   -3.7019 H         1 <0>         0.1328
     29 H9         -3.6720   -6.6797   -3.6274 H         1 <0>         0.1306
     30 H10        -5.0783   -7.5112   -1.7763 H         1 <0>         0.1267
     31 H11        -5.8314   -5.9704   -0.0285 H         1 <0>         0.1263
     32 H12        -6.4570   -3.6399    0.3962 H         1 <0>         0.1145
     33 H13        -4.8762   -3.7040    1.1858 H         1 <0>         0.0661
@<TRIPOS>BOND
     1    1    2 1
     2    1   21 1
     3    1   22 1
     4    1   23 1
     5    2    3 1
     6    2   18 1
     7    2   24 1
     8    3    8 ar
     9    3    4 ar
    10    4    5 ar
    11    4   25 1
    12    5    6 ar
    13    5   26 1
    14    6   17 1
    15    6    7 ar
    16    7    8 ar
    17    7    9 1
    18    8   27 1
    19    9   10 1
    20   10   15 ar
    21   10   11 ar
    22   11   12 ar
    23   11   28 1
    24   12   13 ar
    25   12   29 1
    26   13   14 ar
    27   13   30 1
    28   14   15 ar
    29   14   31 1
    30   15   16 1
    31   16   17 1
    32   16   32 1
    33   16   33 1
    34   18   19 2
    35   18   20 1
@<TRIPOS>MOLECULE
CHEMBL284705__1
   33    35     0     0     0
SMALL
USER_CHARGES

@<TRIPOS>ATOM
      1 C1         -0.0187    1.5258    0.0104 C.3       1 <0>        -0.1186
      2 C2          0.0021   -0.0041    0.0020 C.3       1 <0>        -0.1338
      3 C3          0.7309   -0.5033    1.2229 C.ar      1 <0>        -0.0122
      4 C4          0.2618   -0.1865    2.4844 C.ar      1 <0>        -0.0671
      5 C5          0.9338   -0.6258    3.6105 C.ar      1 <0>        -0.1184
      6 C6          2.0795   -1.3956    3.4692 C.ar      1 <0>         0.0463
      7 C7          2.5284   -1.7349    2.2079 C.ar      1 <0>         0.0606
      8 C8          1.8656   -1.2828    1.0795 C.ar      1 <0>        -0.1157
      9 O1          3.5919   -2.5645    2.1157 O.3       1 <0>        -0.2640
     10 C9          4.8217   -2.2110    2.5477 C.ar      1 <0>         0.1354
     11 C10         5.8781   -2.4987    1.6763 C.ar      1 <0>        -0.1366
     12 C11         7.1753   -2.1824    2.0097 C.ar      1 <0>        -0.0961
     13 C12         7.4377   -1.5723    3.2229 C.ar      1 <0>        -0.1398
     14 C13         6.4014   -1.2883    4.0833 C.ar      1 <0>        -0.0959
     15 C14         5.0826   -1.6043    3.7555 C.ar      1 <0>        -0.1725
     16 C15         4.0531   -1.2372    4.7928 C.3       1 <0>         0.1136
     17 O2          2.7784   -1.7931    4.5568 O.3       1 <0>        -0.3176
     18 C16        -1.4117   -0.5257    0.0127 C.2       1 <0>         0.5009
     19 O3         -2.1751   -0.2365   -0.8929 O.co2     1 <0>        -0.6949
     20 O4         -1.7922   -1.2369    0.9270 O.co2     1 <0>        -0.6843
     21 H1          1.0039    1.9031    0.0027 H         1 <0>         0.0408
     22 H2         -0.5459    1.8868   -0.8726 H         1 <0>         0.0625
     23 H3         -0.5289    1.8773    0.9072 H         1 <0>         0.0490
     24 H4          0.5123   -0.3556   -0.8948 H         1 <0>         0.0741
     25 H5         -0.6339    0.4075    2.5909 H         1 <0>         0.1316
     26 H6          0.5686   -0.3714    4.5945 H         1 <0>         0.1311
     27 H7          2.2332   -1.5332    0.0954 H         1 <0>         0.1303
     28 H8          5.6726   -2.9751    0.7291 H         1 <0>         0.1327
     29 H9          7.9826   -2.4093    1.3291 H         1 <0>         0.1300
     30 H10         8.4521   -1.3199    3.4943 H         1 <0>         0.1260
     31 H11         6.6130   -0.8118    5.0291 H         1 <0>         0.1257
     32 H12         4.4052   -1.5764    5.7670 H         1 <0>         0.1133
     33 H13         3.9589   -0.1516    4.8197 H         1 <0>         0.0637
@<TRIPOS>BOND
     1    1    2 1
     2    1   21 1
     3    1   22 1
     4    1   23 1
     5    2    3 1
     6    2   18 1
     7    2   24 1
     8    3    8 ar
     9    3    4 ar
    10    4    5 ar
    11    4   25 1
    12    5    6 ar
    13    5   26 1
    14    6   17 1
    15    6    7 ar
    16    7    8 ar
    17    7    9 1
    18    8   27 1
    19    9   10 1
    20   10   15 ar
    21   10   11 ar
    22   11   12 ar
    23   11   28 1
    24   12   13 ar
    25   12   29 1
    26   13   14 ar
    27   13   30 1
    28   14   15 ar
    29   14   31 1
    30   15   16 1
    31   16   17 1
    32   16   32 1
    33   16   33 1
    34   18   19 2
    35   18   20 1
@<TRIPOS>MOLECULE
CHEMBL516680
   40    42     0     0     0
SMALL
USER_CHARGES

@<TRIPOS>ATOM
      1 C1          0.8142    0.0999   -0.9728 C.ar      1 <0>        -0.1354
      2 C2          2.0371    0.7355   -0.8832 C.ar      1 <0>         0.0051
      3 C3          2.5226    1.1334    0.3489 C.ar      1 <0>        -0.6726
      4 C4          1.7859    0.8965    1.4950 C.ar      1 <0>         0.0035
      5 C5          0.5625    0.2610    1.4122 C.ar      1 <0>        -0.1222
      6 C6          0.0720   -0.1394    0.1762 C.ar      1 <0>         0.1998
      7 N1         -1.1687   -0.7833    0.0888 N.pl3     1 <0>        -0.3045
      8 C7         -1.4641   -1.8612   -0.6990 C.2       1 <0>         0.1213
      9 C8         -2.7890   -2.1723   -0.4789 C.2       1 <0>        -0.1823
     10 C9         -3.2880   -1.2647    0.4541 C.2       1 <0>        -0.0044
     11 N2         -2.3279   -0.4426    0.7969 N.2       1 <0>        -0.2107
     12 C10        -4.6982   -1.2373    0.9847 C.3       1 <0>         0.5581
     13 F1         -4.7824   -2.0407    2.1269 F         1 <0>        -0.1628
     14 F2         -5.0478    0.0771    1.3123 F         1 <0>        -0.1626
     15 F3         -5.5737   -1.7229    0.0074 F         1 <0>        -0.1596
     16 C11        -0.5392   -2.5597   -1.6128 C.2       1 <0>         0.0575
     17 C12         0.6422   -3.1623   -1.1193 C.2       1 <0>        -0.2018
     18 C13         1.4760   -3.7965   -1.9698 C.2       1 <0>         0.1465
     19 N3          1.1992   -3.8663   -3.2992 N.am      1 <0>        -0.5512
     20 C14         0.0872   -3.3071   -3.8105 C.2       1 <0>         0.5201
     21 O1         -0.1378   -3.3846   -5.0082 O.2       1 <0>        -0.5050
     22 C15        -0.8161   -2.6419   -2.9719 C.2       1 <0>        -0.1877
     23 C16         2.1292   -4.5627   -4.1915 C.3       1 <0>         0.4663
     24 F4          1.5023   -4.8101   -5.4175 F         1 <0>        -0.1542
     25 F5          3.2610   -3.7669   -4.3987 F         1 <0>        -0.1848
     26 S1          4.0835    1.9435    0.4590 S.o2      1 <0>         2.7028
     27 O2          4.5616    1.7263    1.7794 O.2       1 <0>        -0.9565
     28 O3          4.8228    1.5586   -0.6919 O.2       1 <0>        -0.9565
     29 N4          3.8023    3.5694    0.3189 N.pl3     1 <0>        -1.2486
     30 H1          0.4336   -0.2066   -1.9359 H         1 <0>         0.1416
     31 H2          2.6150    0.9216   -1.7764 H         1 <0>         0.1574
     32 H3          2.1678    1.2085    2.4558 H         1 <0>         0.1585
     33 H4         -0.0121    0.0756    2.3077 H         1 <0>         0.1492
     34 H5         -3.3411   -2.9748   -0.9455 H         1 <0>         0.1782
     35 H6          0.8758   -3.1146   -0.0659 H         1 <0>         0.1541
     36 H7          2.3766   -4.2552   -1.5891 H         1 <0>         0.1786
     37 H8         -1.7123   -2.1953   -3.3765 H         1 <0>         0.1654
     38 H9          2.4279   -5.5082   -3.7389 H         1 <0>         0.1579
     39 H10         2.8968    3.8966    0.2009 H         1 <0>         0.4179
     40 H11         4.5430    4.1946    0.3548 H         1 <0>         0.4238
@<TRIPOS>BOND
     1    1    6 ar
     2    1    2 ar
     3    1   30 1
     4    2    3 ar
     5    2   31 1
     6    3    4 ar
     7    3   26 1
     8    4    5 ar
     9    4   32 1
    10    5    6 ar
    11    5   33 1
    12    6    7 1
    13    7   11 1
    14    7    8 1
    15    8    9 2
    16    8   16 1
    17    9   10 1
    18    9   34 1
    19   10   11 2
    20   10   12 1
    21   12   13 1
    22   12   14 1
    23   12   15 1
    24   16   22 2
    25   16   17 1
    26   17   18 2
    27   17   35 1
    28   18   19 1
    29   18   36 1
    30   19   20 am
    31   19   23 1
    32   20   21 2
    33   20   22 1
    34   22   37 1
    35   23   24 1
    36   23   25 1
    37   23   38 1
    38   26   27 2
    39   26   28 2
    40   26   29 1
    41   29   39 1
    42   29   40 1
@<TRIPOS>MOLECULE
CHEMBL1316
   30    32     0     0     0
SMALL
USER_CHARGES

@<TRIPOS>ATOM
      1 C1         -0.0187    1.5258    0.0104 C.3       1 <0>        -0.1121
      2 C2          0.0021   -0.0041    0.0020 C.3       1 <0>        -0.1351
      3 C3         -1.4117   -0.5257    0.0127 C.ar      1 <0>         0.0182
      4 C4         -2.2566   -0.1996    1.0627 C.ar      1 <0>        -0.1313
      5 C5         -3.5515   -0.6706    1.0834 C.ar      1 <0>        -0.0615
      6 C6         -4.0112   -1.4771    0.0448 C.ar      1 <0>        -0.1251
      7 C7         -5.3026   -2.1311   -0.2359 C.ar      1 <0>        -0.0827
      8 C8         -6.5210   -2.1738    0.4380 C.ar      1 <0>        -0.0533
      9 C9         -7.5725   -2.8908   -0.0932 C.ar      1 <0>        -0.0702
     10 C10        -7.4194   -3.5684   -1.2943 C.ar      1 <0>        -0.0834
     11 C11        -6.2190   -3.5337   -1.9703 C.ar      1 <0>        -0.1332
     12 C12        -5.1467   -2.8151   -1.4503 C.ar      1 <0>         0.1439
     13 N1         -3.8553   -2.6099   -1.9038 N.pl3     1 <0>        -0.6151
     14 H1         -3.4914   -2.9757   -2.7252 H         1 <0>         0.4158
     15 C13        -3.1579   -1.8081   -1.0181 C.ar      1 <0>         0.1436
     16 C14        -1.8553   -1.3180   -1.0239 C.ar      1 <0>        -0.1470
     17 Cl1        -9.0924   -2.9463    0.7438 Cl        1 <0>        -0.0790
     18 C15         0.7309   -0.5033    1.2229 C.2       1 <0>         0.5030
     19 O1          1.1912    0.2909    2.0254 O.co2     1 <0>        -0.6899
     20 O2          0.8604   -1.7014    1.4082 O.co2     1 <0>        -0.6927
     21 H2          1.0039    1.9031    0.0027 H         1 <0>         0.0558
     22 H3         -0.5459    1.8868   -0.8726 H         1 <0>         0.0337
     23 H4         -0.5289    1.8773    0.9072 H         1 <0>         0.0554
     24 H5          0.5123   -0.3556   -0.8948 H         1 <0>         0.0713
     25 H6         -1.8985    0.4255    1.8673 H         1 <0>         0.1289
     26 H7         -4.2077   -0.4157    1.9024 H         1 <0>         0.1225
     27 H8         -6.6417   -1.6476    1.3733 H         1 <0>         0.1339
     28 H9         -8.2479   -4.1280   -1.7028 H         1 <0>         0.1348
     29 H10        -6.1103   -4.0649   -2.9044 H         1 <0>         0.1300
     30 H11        -1.1904   -1.5624   -1.8391 H         1 <0>         0.1207
@<TRIPOS>BOND
     1    1    2 1
     2    1   21 1
     3    1   22 1
     4    1   23 1
     5    2    3 1
     6    2   18 1
     7    2   24 1
     8    3   16 ar
     9    3    4 ar
    10    4    5 ar
    11    4   25 1
    12    5    6 ar
    13    5   26 1
    14    6   15 ar
    15    6    7 1
    16    7   12 ar
    17    7    8 ar
    18    8    9 ar
    19    8   27 1
    20    9   10 ar
    21    9   17 1
    22   10   11 ar
    23   10   28 1
    24   11   12 ar
    25   11   29 1
    26   12   13 1
    27   13   14 1
    28   13   15 1
    29   15   16 ar
    30   16   30 1
    31   18   19 2
    32   18   20 1
@<TRIPOS>MOLECULE
CHEMBL1316__1
   30    32     0     0     0
SMALL
USER_CHARGES

@<TRIPOS>ATOM
      1 C1         -0.0187    1.5258    0.0104 C.3       1 <0>        -0.1182
      2 C2          0.0021   -0.0041    0.0020 C.3       1 <0>        -0.1354
      3 C3          0.7309   -0.5033    1.2229 C.ar      1 <0>         0.0177
      4 C4          0.2563   -0.1827    2.4856 C.ar      1 <0>        -0.0985
      5 C5          0.9143   -0.6334    3.6095 C.ar      1 <0>        -0.0689
      6 C6          2.0602   -1.4138    3.4740 C.ar      1 <0>        -0.1227
      7 C7          2.9792   -2.0421    4.4408 C.ar      1 <0>        -0.0826
      8 C8          3.0272   -2.0783    5.8325 C.ar      1 <0>        -0.0533
      9 C9          4.0391   -2.7695    6.4651 C.ar      1 <0>        -0.0708
     10 C10         5.0074   -3.4269    5.7199 C.ar      1 <0>        -0.0842
     11 C11         4.9708   -3.3984    4.3426 C.ar      1 <0>        -0.1341
     12 C12         3.9571   -2.7066    3.6864 C.ar      1 <0>         0.1434
     13 N1          3.6785   -2.5138    2.3445 N.pl3     1 <0>        -0.6159
     14 H1          4.2047   -2.8710    1.6120 H         1 <0>         0.4147
     15 C13         2.5418   -1.7391    2.1975 C.ar      1 <0>         0.1380
     16 C14         1.8602   -1.2791    1.0746 C.ar      1 <0>        -0.1541
     17 Cl1         4.1019   -2.8168    8.1994 Cl        1 <0>        -0.0799
     18 C15        -1.4117   -0.5257    0.0127 C.2       1 <0>         0.5009
     19 O1         -2.1751   -0.2365   -0.8929 O.co2     1 <0>        -0.6966
     20 O2         -1.7922   -1.2369    0.9270 O.co2     1 <0>        -0.6840
     21 H2          1.0039    1.9031    0.0027 H         1 <0>         0.0409
     22 H3         -0.5459    1.8868   -0.8726 H         1 <0>         0.0612
     23 H4         -0.5289    1.8773    0.9072 H         1 <0>         0.0497
     24 H5          0.5123   -0.3556   -0.8948 H         1 <0>         0.0717
     25 H6         -0.6321    0.4228    2.5888 H         1 <0>         0.1257
     26 H7          0.5430   -0.3822    4.5920 H         1 <0>         0.1205
     27 H8          2.2747   -1.5666    6.4141 H         1 <0>         0.1336
     28 H9          5.7967   -3.9653    6.2235 H         1 <0>         0.1342
     29 H10         5.7296   -3.9132    3.7720 H         1 <0>         0.1293
     30 H11         2.2189   -1.5267    0.0865 H         1 <0>         0.1178
@<TRIPOS>BOND
     1    1    2 1
     2    1   21 1
     3    1   22 1
     4    1   23 1
     5    2    3 1
     6    2   18 1
     7    2   24 1
     8    3   16 ar
     9    3    4 ar
    10    4    5 ar
    11    4   25 1
    12    5    6 ar
    13    5   26 1
    14    6   15 ar
    15    6    7 1
    16    7   12 ar
    17    7    8 ar
    18    8    9 ar
    19    8   27 1
    20    9   10 ar
    21    9   17 1
    22   10   11 ar
    23   10   28 1
    24   11   12 ar
    25   11   29 1
    26   12   13 1
    27   13   14 1
    28   13   15 1
    29   15   16 ar
    30   16   30 1
    31   18   19 2
    32   18   20 1
@<TRIPOS>MOLECULE
CHEMBL463232
   37    39     0     0     0
SMALL
USER_CHARGES

@<TRIPOS>ATOM
      1 C1         -1.1565   -0.7603    0.2298 C.3       1 <0>        -0.6492
      2 S1          0.6325   -0.8919    0.4994 S.o2      1 <0>         2.4997
      3 O1          1.1518    0.3504    0.9535 O.2       1 <0>        -0.9302
      4 O2          0.9365   -2.0985    1.1857 O.2       1 <0>        -0.9304
      5 C2          1.3185   -1.1048   -1.1096 C.ar      1 <0>        -0.6539
      6 C3          1.4774   -2.3764   -1.6292 C.ar      1 <0>        -0.0031
      7 C4          2.0152   -2.5466   -2.8899 C.ar      1 <0>        -0.1189
      8 C5          2.3960   -1.4391   -3.6360 C.ar      1 <0>         0.1862
      9 C6          2.2347   -0.1634   -3.1116 C.ar      1 <0>        -0.1335
     10 C7          1.6915    0.0004   -1.8523 C.ar      1 <0>        -0.0053
     11 N1          2.9422   -1.6084   -4.9147 N.pl3     1 <0>        -0.3092
     12 C8          4.0467   -0.9751   -5.4097 C.2       1 <0>         0.1302
     13 C9          4.2340   -1.4245   -6.6869 C.2       1 <0>        -0.1843
     14 C10         3.2251   -2.3455   -6.9688 C.2       1 <0>        -0.0059
     15 N2          2.4577   -2.4621   -5.9140 N.2       1 <0>        -0.2053
     16 C11         3.0508   -3.0878   -8.2687 C.3       1 <0>         0.5584
     17 F1          3.7601   -4.2925   -8.2165 F         1 <0>        -0.1624
     18 F2          1.6931   -3.3545   -8.4750 F         1 <0>        -0.1625
     19 F3          3.5376   -2.3053   -9.3214 F         1 <0>        -0.1597
     20 C12         4.8839    0.0135   -4.6965 C.ar      1 <0>         0.0159
     21 C13         4.9478    0.0263   -3.2978 C.ar      1 <0>        -0.1601
     22 C14         5.7412    0.9647   -2.6730 C.ar      1 <0>         0.1333
     23 N3          6.4340    1.8423   -3.3744 N.ar      1 <0>        -0.4643
     24 C15         6.4027    1.8655   -4.6942 C.ar      1 <0>         0.1828
     25 C16         5.6384    0.9578   -5.4008 C.ar      1 <0>        -0.1246
     26 Cl1         7.3398    3.0481   -5.5526 Cl        1 <0>        -0.0127
     27 H1         -1.3650    0.0944   -0.4138 H         1 <0>         0.1332
     28 H2         -1.5202   -1.6708   -0.2464 H         1 <0>         0.1335
     29 H3         -1.6593   -0.6253    1.1874 H         1 <0>         0.1370
     30 H4          1.1810   -3.2374   -1.0484 H         1 <0>         0.1583
     31 H5          2.1397   -3.5400   -3.2948 H         1 <0>         0.1479
     32 H6          2.5304    0.6999   -3.6892 H         1 <0>         0.1425
     33 H7          1.5621    0.9924   -1.4455 H         1 <0>         0.1587
     34 H8          5.0229   -1.1201   -7.3588 H         1 <0>         0.1776
     35 H9          4.3835   -0.6882   -2.7169 H         1 <0>         0.1463
     36 H10         5.7963    0.9824   -1.5945 H         1 <0>         0.1768
     37 H11         5.6206    0.9790   -6.4804 H         1 <0>         0.1571
@<TRIPOS>BOND
     1    1    2 1
     2    1   27 1
     3    1   28 1
     4    1   29 1
     5    2    3 2
     6    2    4 2
     7    2    5 1
     8    5   10 ar
     9    5    6 ar
    10    6    7 ar
    11    6   30 1
    12    7    8 ar
    13    7   31 1
    14    8    9 ar
    15    8   11 1
    16    9   10 ar
    17    9   32 1
    18   10   33 1
    19   11   15 1
    20   11   12 1
    21   12   13 2
    22   12   20 1
    23   13   14 1
    24   13   34 1
    25   14   15 2
    26   14   16 1
    27   16   17 1
    28   16   18 1
    29   16   19 1
    30   20   25 ar
    31   20   21 ar
    32   21   22 ar
    33   21   35 1
    34   22   23 ar
    35   22   36 1
    36   23   24 ar
    37   24   25 ar
    38   24   26 1
    39   25   37 1
@<TRIPOS>MOLECULE
CHEMBL7162
   38    39     0     0     0
SMALL
USER_CHARGES

@<TRIPOS>ATOM
      1 C1          0.2127    1.7212    0.2031 C.3       1 <0>        -0.6338
      2 S1         -0.0163   -0.0679    0.0103 S.o2      1 <0>         2.5267
      3 O1          0.6837   -0.7639    1.0325 O.2       1 <0>        -1.0204
      4 O2         -1.3799   -0.3603   -0.2620 O.2       1 <0>        -1.0203
      5 N1          0.7853   -0.4514   -1.3871 N.2       1 <0>        -1.0560
      6 C2          0.8097   -1.7759   -1.8389 C.ar      1 <0>         0.3189
      7 C3          0.1583   -2.7679   -1.1206 C.ar      1 <0>        -0.2458
      8 C4          0.1839   -4.0752   -1.5688 C.ar      1 <0>        -0.0134
      9 C5          0.8576   -4.3975   -2.7323 C.ar      1 <0>        -0.1308
     10 C6          1.5096   -3.4140   -3.4533 C.ar      1 <0>        -0.1230
     11 C7          1.4835   -2.1006   -3.0143 C.ar      1 <0>         0.0762
     12 O3          2.1189   -1.1312   -3.7259 O.3       1 <0>        -0.2762
     13 C8          2.8930   -1.5537   -4.8503 C.3       1 <0>         0.0791
     14 C9          1.9835   -1.6908   -6.0730 C.3       1 <0>        -0.1456
     15 C10         2.8123   -2.1432   -7.2769 C.3       1 <0>        -0.1168
     16 C11         3.9011   -1.1076   -7.5647 C.3       1 <0>        -0.1211
     17 C12         4.8105   -0.9704   -6.3420 C.3       1 <0>        -0.1155
     18 C13         3.9817   -0.5181   -5.1381 C.3       1 <0>        -0.1114
     19 N2          0.8815   -5.7991   -3.2072 N.pl3     1 <0>         0.0677
     20 O4          0.3123   -6.6604   -2.5779 O.2       1 <0>        -0.2097
     21 O5          1.4701   -6.0828   -4.2244 O.3       1 <0>        -0.2116
     22 H1          1.2769    1.9458    0.2741 H         1 <0>         0.1187
     23 H2         -0.2107    2.2366   -0.6590 H         1 <0>         0.1188
     24 H3         -0.2907    2.0563    1.1100 H         1 <0>         0.1065
     25 H4         -0.3684   -2.5189   -0.2112 H         1 <0>         0.1297
     26 H5         -0.3233   -4.8468   -1.0086 H         1 <0>         0.1346
     27 H6          2.0352   -3.6693   -4.3616 H         1 <0>         0.1416
     28 H7          3.3556   -2.5162   -4.6319 H         1 <0>         0.0672
     29 H8          1.2078   -2.4287   -5.8680 H         1 <0>         0.0689
     30 H9          1.5208   -0.7284   -6.2915 H         1 <0>         0.0722
     31 H10         3.2750   -3.1057   -7.0585 H         1 <0>         0.0645
     32 H11         2.1644   -2.2409   -8.1480 H         1 <0>         0.0642
     33 H12         4.4915   -1.4298   -8.4224 H         1 <0>         0.0609
     34 H13         3.4384   -0.1451   -7.7832 H         1 <0>         0.0625
     35 H14         5.2732   -1.9329   -6.1236 H         1 <0>         0.0634
     36 H15         5.5862   -0.2326   -6.5471 H         1 <0>         0.0662
     37 H16         3.5191    0.4444   -5.3566 H         1 <0>         0.0724
     38 H17         4.6297   -0.4204   -4.2671 H         1 <0>         0.0707
@<TRIPOS>BOND
     1    1    2 1
     2    1   22 1
     3    1   23 1
     4    1   24 1
     5    2    3 2
     6    2    4 2
     7    2    5 1
     8    5    6 1
     9    6   11 ar
    10    6    7 ar
    11    7    8 ar
    12    7   25 1
    13    8    9 ar
    14    8   26 1
    15    9   10 ar
    16    9   19 1
    17   10   11 ar
    18   10   27 1
    19   11   12 1
    20   12   13 1
    21   13   18 1
    22   13   14 1
    23   13   28 1
    24   14   15 1
    25   14   29 1
    26   14   30 1
    27   15   16 1
    28   15   31 1
    29   15   32 1
    30   16   17 1
    31   16   33 1
    32   16   34 1
    33   17   18 1
    34   17   35 1
    35   17   36 1
    36   18   37 1
    37   18   38 1
    38   19   20 2
    39   19   21 1
@<TRIPOS>MOLECULE
CHEMBL18797
   40    42     0     0     0
SMALL
USER_CHARGES

@<TRIPOS>ATOM
      1 C1         -0.0439    1.3635   -0.6440 C.3       1 <0>        -0.0874
      2 C2         -0.0025   -0.0397   -0.0960 C.2       1 <0>        -0.1309
      3 C3         -1.0756   -0.7895    0.2220 C.2       1 <0>        -0.0100
      4 C4         -0.6392   -2.0946    0.7226 C.ar      1 <0>        -0.0059
      5 C5         -1.3387   -3.2167    1.1780 C.ar      1 <0>        -0.1272
      6 C6         -0.6462   -4.3331    1.5994 C.ar      1 <0>         0.1014
      7 C7          0.7427   -4.3545    1.5760 C.ar      1 <0>        -0.1658
      8 C8          1.4511   -3.2580    1.1303 C.ar      1 <0>        -0.0710
      9 C9          0.7717   -2.1225    0.7012 C.ar      1 <0>        -0.0956
     10 C10         1.2127   -0.8159    0.1730 C.2       1 <0>        -0.0141
     11 C11         2.5125   -0.4047   -0.0252 C.2       1 <0>        -0.0858
     12 C12         3.6081   -1.3706    0.0692 C.ar      1 <0>        -0.0550
     13 C13         3.4905   -2.6298   -0.5385 C.ar      1 <0>        -0.0770
     14 C14         4.5151   -3.5269   -0.4481 C.ar      1 <0>        -0.1023
     15 C15         5.6770   -3.1939    0.2465 C.ar      1 <0>        -0.0838
     16 C16         5.7986   -1.9440    0.8520 C.ar      1 <0>        -0.1356
     17 C17         4.7817   -1.0381    0.7627 C.ar      1 <0>        -0.0863
     18 S1          6.9960   -4.3567    0.3601 S.3       1 <0>        -0.1220
     19 C18         8.2592   -3.4936    1.3348 C.3       1 <0>        -0.1438
     20 F1         -1.3249   -5.4153    2.0392 F         1 <0>        -0.1428
     21 C19        -2.5106   -0.3507    0.0836 C.3       1 <0>        -0.1489
     22 C20        -3.0571   -0.8291   -1.2368 C.2       1 <0>         0.4994
     23 O1         -2.3472   -1.4673   -1.9952 O.co2     1 <0>        -0.6840
     24 O2         -4.2093   -0.5780   -1.5467 O.co2     1 <0>        -0.7005
     25 H1          0.9730    1.7183   -0.8115 H         1 <0>         0.0583
     26 H2         -0.5907    1.3693   -1.5869 H         1 <0>         0.0728
     27 H3         -0.5440    2.0178    0.0700 H         1 <0>         0.0650
     28 H4         -2.4185   -3.2093    1.2002 H         1 <0>         0.1355
     29 H5          1.2713   -5.2353    1.9092 H         1 <0>         0.1331
     30 H6          2.5308   -3.2809    1.1149 H         1 <0>         0.1382
     31 H7          2.7230    0.6304   -0.2502 H         1 <0>         0.1360
     32 H8          2.5906   -2.8888   -1.0765 H         1 <0>         0.1358
     33 H9          4.4254   -4.4966   -0.9152 H         1 <0>         0.1302
     34 H10         6.7007   -1.6906    1.3890 H         1 <0>         0.1224
     35 H11         4.8786   -0.0685    1.2282 H         1 <0>         0.1283
     36 H12         8.5584   -2.5826    0.8165 H         1 <0>         0.0833
     37 H13         7.8517   -3.2380    2.3129 H         1 <0>         0.0835
     38 H14         9.1266   -4.1416    1.4606 H         1 <0>         0.1074
     39 H15        -3.1003   -0.7750    0.8961 H         1 <0>         0.0703
     40 H16        -2.5635    0.7372    0.1260 H         1 <0>         0.0748
@<TRIPOS>BOND
     1    1    2 1
     2    1   25 1
     3    1   26 1
     4    1   27 1
     5    2   10 1
     6    2    3 2
     7    3    4 1
     8    3   21 1
     9    4    9 ar
    10    4    5 ar
    11    5    6 ar
    12    5   28 1
    13    6    7 ar
    14    6   20 1
    15    7    8 ar
    16    7   29 1
    17    8    9 ar
    18    8   30 1
    19    9   10 1
    20   10   11 2
    21   11   12 1
    22   11   31 1
    23   12   17 ar
    24   12   13 ar
    25   13   14 ar
    26   13   32 1
    27   14   15 ar
    28   14   33 1
    29   15   16 ar
    30   15   18 1
    31   16   17 ar
    32   16   34 1
    33   17   35 1
    34   18   19 1
    35   19   36 1
    36   19   37 1
    37   19   38 1
    38   21   22 1
    39   21   39 1
    40   21   40 1
    41   22   23 2
    42   22   24 1
@<TRIPOS>MOLECULE
CHEMBL563322
   48    50     0     0     0
SMALL
USER_CHARGES

@<TRIPOS>ATOM
      1 C1         -0.0225    1.8097    0.0120 C.3       1 <0>        -0.6494
      2 S1          0.0021   -0.0041    0.0020 S.o2      1 <0>         2.4984
      3 O1          0.8352   -0.4880    1.0465 O.2       1 <0>        -0.9333
      4 O2         -1.3147   -0.5105   -0.1678 O.2       1 <0>        -0.9335
      5 C2          0.8454   -0.4373   -1.4831 C.ar      1 <0>        -0.6425
      6 C3          0.1315   -0.6121   -2.6550 C.ar      1 <0>        -0.0295
      7 C4          0.7868   -0.9510   -3.8213 C.ar      1 <0>        -0.0882
      8 C5          2.1707   -1.1172   -3.8169 C.ar      1 <0>        -0.0100
      9 C6          2.8848   -0.9398   -2.6332 C.ar      1 <0>        -0.1073
     10 C7          2.2196   -0.5958   -1.4740 C.ar      1 <0>        -0.0266
     11 C8          2.8805   -1.4819   -5.0670 C.ar      1 <0>         0.2672
     12 C9          4.2671   -1.6561   -5.0705 C.ar      1 <0>        -0.2331
     13 C10         4.8856   -1.9960   -6.2603 C.ar      1 <0>         0.1441
     14 N1          4.1519   -2.1451   -7.3520 N.ar      1 <0>        -0.5300
     15 C11         2.8384   -1.9736   -7.3196 C.ar      1 <0>         0.5823
     16 N2          2.2061   -1.6535   -6.2015 N.ar      1 <0>        -0.5402
     17 N3          2.1079   -2.1385   -8.4837 N.pl3     1 <0>        -0.6878
     18 C12         2.7880   -2.4982   -9.7305 C.3       1 <0>         0.1387
     19 C13         1.7592   -2.6174  -10.8566 C.3       1 <0>        -0.1030
     20 C14         1.1359   -1.2449  -11.1287 C.3       1 <0>        -0.1526
     21 C15         0.1665   -1.3581  -12.3081 C.3       1 <0>         0.0598
     22 O3          0.8654   -1.8544  -13.4515 O.3       1 <0>        -0.3813
     23 C16         1.4292   -3.1551  -13.2715 C.3       1 <0>         0.0605
     24 C17         2.4493   -3.1141  -12.1307 C.3       1 <0>        -0.1481
     25 C18         6.3786   -2.1940   -6.3131 C.3       1 <0>         0.5256
     26 F1          6.6811   -3.5338   -6.0472 F         1 <0>        -0.1635
     27 F2          6.8494   -1.8534   -7.5857 F         1 <0>        -0.1584
     28 F3          6.9913   -1.3786   -5.3556 F         1 <0>        -0.1640
     29 H1          1.0001    2.1870    0.0043 H         1 <0>         0.1328
     30 H2         -0.5497    2.1708   -0.8711 H         1 <0>         0.1325
     31 H3         -0.5327    2.1613    0.9088 H         1 <0>         0.1353
     32 H4         -0.9408   -0.4834   -2.6571 H         1 <0>         0.1498
     33 H5          0.2284   -1.0875   -4.7356 H         1 <0>         0.1476
     34 H6          3.9572   -1.0677   -2.6240 H         1 <0>         0.1424
     35 H7          2.7724   -0.4538   -0.5572 H         1 <0>         0.1516
     36 H8          4.8424   -1.5281   -4.1655 H         1 <0>         0.1627
     37 H9          1.1457   -2.0160   -8.4741 H         1 <0>         0.4182
     38 H10         3.5155   -1.7268   -9.9831 H         1 <0>         0.0745
     39 H11         3.2995   -3.4522   -9.6032 H         1 <0>         0.0738
     40 H12         0.9801   -3.3219  -10.5656 H         1 <0>         0.0810
     41 H13         0.5954   -0.9085  -10.2439 H         1 <0>         0.0729
     42 H14         1.9218   -0.5294  -11.3705 H         1 <0>         0.0765
     43 H15        -0.6413   -2.0430  -12.0503 H         1 <0>         0.0514
     44 H16        -0.2479   -0.3755  -12.5337 H         1 <0>         0.0958
     45 H17         0.6379   -3.8635  -13.0262 H         1 <0>         0.0517
     46 H18         1.9244   -3.4671  -14.1910 H         1 <0>         0.0978
     47 H19         3.2618   -2.4364  -12.3928 H         1 <0>         0.0781
     48 H20         2.8481   -4.1145  -11.9626 H         1 <0>         0.0794
@<TRIPOS>BOND
     1    1    2 1
     2    1   29 1
     3    1   30 1
     4    1   31 1
     5    2    3 2
     6    2    4 2
     7    2    5 1
     8    5   10 ar
     9    5    6 ar
    10    6    7 ar
    11    6   32 1
    12    7    8 ar
    13    7   33 1
    14    8    9 ar
    15    8   11 1
    16    9   10 ar
    17    9   34 1
    18   10   35 1
    19   11   16 ar
    20   11   12 ar
    21   12   13 ar
    22   12   36 1
    23   13   14 ar
    24   13   25 1
    25   14   15 ar
    26   15   16 ar
    27   15   17 1
    28   17   18 1
    29   17   37 1
    30   18   19 1
    31   18   38 1
    32   18   39 1
    33   19   24 1
    34   19   20 1
    35   19   40 1
    36   20   21 1
    37   20   41 1
    38   20   42 1
    39   21   22 1
    40   21   43 1
    41   21   44 1
    42   22   23 1
    43   23   24 1
    44   23   45 1
    45   23   46 1
    46   24   47 1
    47   24   48 1
    48   25   26 1
    49   25   27 1
    50   25   28 1
@<TRIPOS>MOLECULE
CHEMBL113138
   52    53     0     0     0
SMALL
USER_CHARGES

@<TRIPOS>ATOM
      1 C1          0.0016    1.5276    0.0259 C.3       1 <0>        -0.1432
      2 C2          0.0031   -0.0022    0.0067 C.3       1 <0>        -0.0213
      3 C3          0.7356   -0.5271    1.2431 C.3       1 <0>        -0.1414
      4 C4         -1.4388   -0.5137    0.0128 C.3       1 <0>        -0.1416
      5 C5          0.7033   -0.4883   -1.2361 C.ar      1 <0>        -0.0970
      6 C6          1.2222    0.4191   -2.1319 C.ar      1 <0>        -0.0862
      7 C7          1.8725   -0.0339   -3.2861 C.ar      1 <0>        -0.0929
      8 C8          1.9913   -1.4088   -3.5226 C.ar      1 <0>        -0.0818
      9 C9          1.4687   -2.3076   -2.6202 C.ar      1 <0>        -0.0992
     10 C10         0.8290   -1.8524   -1.4730 C.ar      1 <0>         0.1355
     11 O1          0.3203   -2.7431   -0.5836 O.3       1 <0>        -0.4843
     12 C11         1.5958   -3.7877   -2.8735 C.3       1 <0>        -0.0204
     13 C12         2.3407   -4.0178   -4.1899 C.3       1 <0>        -0.1482
     14 C13         2.3741   -4.4363   -1.7270 C.3       1 <0>        -0.1423
     15 C14         0.2015   -4.4117   -2.9606 C.3       1 <0>        -0.1423
     16 C15         2.4278    0.9299   -4.2457 C.2       1 <0>         0.0079
     17 C16         2.2097    2.2563   -4.0768 C.2       1 <0>        -0.0880
     18 C17         2.5906    3.3492   -4.9902 C.2       1 <0>         0.5163
     19 O2          3.1704    3.2459   -6.0595 O.2       1 <0>        -0.4677
     20 N1          2.1692    4.4793   -4.4059 N.2       1 <0>        -0.6839
     21 C18         1.5845    4.1897   -3.2565 C.2       1 <0>         0.5924
     22 O3          1.5867    2.8644   -3.0304 O.3       1 <0>        -0.2263
     23 N2          1.0545    5.0979   -2.4273 N.2       1 <0>        -0.6100
     24 C19         0.9866    6.3685   -2.7932 C.2       1 <0>         0.7149
     25 N3          1.5588    6.7728   -3.9639 N.pl3     1 <0>        -0.8325
     26 N4          0.3443    7.2735   -1.9996 N.pl3     1 <0>        -0.8082
     27 H1          1.0289    1.8921    0.0215 H         1 <0>         0.0591
     28 H2         -0.5203    1.9015   -0.8550 H         1 <0>         0.0590
     29 H3         -0.5048    1.8793    0.9247 H         1 <0>         0.0587
     30 H4          0.2292   -0.1755    2.1420 H         1 <0>         0.0548
     31 H5          0.7367   -1.6170    1.2295 H         1 <0>         0.0741
     32 H6          1.7629   -0.1626    1.2388 H         1 <0>         0.0509
     33 H7         -1.9607   -0.1399   -0.8681 H         1 <0>         0.0539
     34 H8         -1.4378   -1.6037   -0.0009 H         1 <0>         0.0570
     35 H9         -1.9453   -0.1621    0.9117 H         1 <0>         0.0614
     36 H10         1.1276    1.4786   -1.9448 H         1 <0>         0.1547
     37 H11         2.4916   -1.7636   -4.4116 H         1 <0>         0.1365
     38 H12        -0.5959   -2.9964   -0.7610 H         1 <0>         0.3837
     39 H13         3.3340   -3.5732   -4.1278 H         1 <0>         0.0595
     40 H14         2.4326   -5.0884   -4.3731 H         1 <0>         0.0605
     41 H15         1.7862   -3.5557   -5.0067 H         1 <0>         0.0587
     42 H16         1.8434   -4.2724   -0.7891 H         1 <0>         0.0751
     43 H17         2.4660   -5.5069   -1.9101 H         1 <0>         0.0547
     44 H18         3.3673   -3.9917   -1.6649 H         1 <0>         0.0515
     45 H19        -0.3529   -3.9497   -3.7774 H         1 <0>         0.0547
     46 H20         0.2934   -5.4823   -3.1438 H         1 <0>         0.0614
     47 H21        -0.3292   -4.2478   -2.0228 H         1 <0>         0.0575
     48 H22         3.0099    0.5810   -5.0859 H         1 <0>         0.1669
     49 H23         1.9408    6.1176   -4.5687 H         1 <0>         0.4413
     50 H24         1.5837    7.7154   -4.1915 H         1 <0>         0.3949
     51 H25        -0.0625    6.9861   -1.1673 H         1 <0>         0.4305
     52 H26         0.2945    8.2044   -2.2677 H         1 <0>         0.4205
@<TRIPOS>BOND
     1    1    2 1
     2    1   27 1
     3    1   28 1
     4    1   29 1
     5    2    3 1
     6    2    4 1
     7    2    5 1
     8    3   30 1
     9    3   31 1
    10    3   32 1
    11    4   33 1
    12    4   34 1
    13    4   35 1
    14    5   10 ar
    15    5    6 ar
    16    6    7 ar
    17    6   36 1
    18    7    8 ar
    19    7   16 1
    20    8    9 ar
    21    8   37 1
    22    9   10 ar
    23    9   12 1
    24   10   11 1
    25   11   38 1
    26   12   13 1
    27   12   14 1
    28   12   15 1
    29   13   39 1
    30   13   40 1
    31   13   41 1
    32   14   42 1
    33   14   43 1
    34   14   44 1
    35   15   45 1
    36   15   46 1
    37   15   47 1
    38   16   17 2
    39   16   48 1
    40   17   22 1
    41   17   18 1
    42   18   19 2
    43   18   20 1
    44   20   21 2
    45   21   22 1
    46   21   23 1
    47   23   24 2
    48   24   25 1
    49   24   26 1
    50   25   49 1
    51   25   50 1
    52   26   51 1
    53   26   52 1
@<TRIPOS>MOLECULE
CHEMBL113138__1
   51    52     0     0     0
SMALL
USER_CHARGES

@<TRIPOS>ATOM
      1 C1          0.0016    1.5276    0.0259 C.3       1 <0>        -0.1440
      2 C2          0.0031   -0.0022    0.0067 C.3       1 <0>        -0.0214
      3 C3          0.7356   -0.5271    1.2431 C.3       1 <0>        -0.1384
      4 C4         -1.4388   -0.5137    0.0128 C.3       1 <0>        -0.1391
      5 C5          0.7033   -0.4883   -1.2361 C.ar      1 <0>        -0.0910
      6 C6          1.2222    0.4191   -2.1319 C.ar      1 <0>        -0.0983
      7 C7          1.8725   -0.0339   -3.2861 C.ar      1 <0>        -0.0604
      8 C8          1.9913   -1.4088   -3.5226 C.ar      1 <0>        -0.0997
      9 C9          1.4687   -2.3076   -2.6202 C.ar      1 <0>        -0.1003
     10 C10         0.8290   -1.8524   -1.4730 C.ar      1 <0>         0.1130
     11 O1          0.3203   -2.7431   -0.5836 O.3       1 <0>        -0.4860
     12 C11         1.5958   -3.7877   -2.8735 C.3       1 <0>        -0.0183
     13 C12         2.3407   -4.0178   -4.1899 C.3       1 <0>        -0.1462
     14 C13         2.3741   -4.4363   -1.7270 C.3       1 <0>        -0.1402
     15 C14         0.2015   -4.4117   -2.9606 C.3       1 <0>        -0.1406
     16 C15         2.4278    0.9299   -4.2457 C.2       1 <0>        -0.0706
     17 C16         2.2097    2.2563   -4.0768 C.2       1 <0>        -0.0356
     18 C17         2.5906    3.3492   -4.9902 C.2       1 <0>         0.5035
     19 O2          3.1704    3.2459   -6.0595 O.2       1 <0>        -0.5211
     20 N1          2.1692    4.4793   -4.4059 N.2       1 <0>        -0.6987
     21 C18         1.5845    4.1897   -3.2565 C.2       1 <0>         0.5513
     22 O3          1.5867    2.8644   -3.0304 O.3       1 <0>        -0.2467
     23 N2          1.0545    5.0979   -2.4273 N.2       1 <0>        -0.5731
     24 C19         0.9866    6.3685   -2.7932 C.2       1 <0>         0.6115
     25 N3          1.5588    6.7728   -3.9639 N.pl3     1 <0>        -0.9096
     26 N4          0.3443    7.2735   -1.9996 N.2       1 <0>        -0.8416
     27 H1          1.0289    1.8921    0.0215 H         1 <0>         0.0614
     28 H2         -0.5203    1.9015   -0.8550 H         1 <0>         0.0628
     29 H3         -0.5048    1.8793    0.9247 H         1 <0>         0.0563
     30 H4          0.2292   -0.1755    2.1420 H         1 <0>         0.0518
     31 H5          0.7367   -1.6170    1.2295 H         1 <0>         0.0711
     32 H6          1.7629   -0.1626    1.2388 H         1 <0>         0.0503
     33 H7         -1.9607   -0.1399   -0.8681 H         1 <0>         0.0539
     34 H8         -1.4378   -1.6037   -0.0009 H         1 <0>         0.0542
     35 H9         -1.9453   -0.1621    0.9117 H         1 <0>         0.0584
     36 H10         1.1276    1.4786   -1.9448 H         1 <0>         0.1599
     37 H11         2.4916   -1.7636   -4.4116 H         1 <0>         0.1306
     38 H12        -0.5959   -2.9964   -0.7610 H         1 <0>         0.3767
     39 H13         3.3340   -3.5732   -4.1278 H         1 <0>         0.0591
     40 H14         2.4326   -5.0884   -4.3731 H         1 <0>         0.0557
     41 H15         1.7862   -3.5557   -5.0067 H         1 <0>         0.0585
     42 H16         1.8434   -4.2724   -0.7891 H         1 <0>         0.0747
     43 H17         2.4660   -5.5069   -1.9101 H         1 <0>         0.0500
     44 H18         3.3673   -3.9917   -1.6649 H         1 <0>         0.0505
     45 H19        -0.3529   -3.9497   -3.7774 H         1 <0>         0.0539
     46 H20         0.2934   -5.4823   -3.1438 H         1 <0>         0.0566
     47 H21        -0.3292   -4.2478   -2.0228 H         1 <0>         0.0576
     48 H22         3.0099    0.5810   -5.0859 H         1 <0>         0.1552
     49 H23         1.9408    6.1176   -4.5687 H         1 <0>         0.4122
     50 H24         1.5837    7.7154   -4.1915 H         1 <0>         0.3658
     51 H25         0.2945    8.2044   -2.2677 H         1 <0>         0.3045
@<TRIPOS>BOND
     1    1    2 1
     2    1   27 1
     3    1   28 1
     4    1   29 1
     5    2    3 1
     6    2    4 1
     7    2    5 1
     8    3   30 1
     9    3   31 1
    10    3   32 1
    11    4   33 1
    12    4   34 1
    13    4   35 1
    14    5   10 ar
    15    5    6 ar
    16    6    7 ar
    17    6   36 1
    18    7    8 ar
    19    7   16 1
    20    8    9 ar
    21    8   37 1
    22    9   10 ar
    23    9   12 1
    24   10   11 1
    25   11   38 1
    26   12   13 1
    27   12   14 1
    28   12   15 1
    29   13   39 1
    30   13   40 1
    31   13   41 1
    32   14   42 1
    33   14   43 1
    34   14   44 1
    35   15   45 1
    36   15   46 1
    37   15   47 1
    38   16   17 2
    39   16   48 1
    40   17   22 1
    41   17   18 1
    42   18   19 2
    43   18   20 1
    44   20   21 2
    45   21   22 1
    46   21   23 1
    47   23   24 2
    48   24   25 1
    49   24   26 1
    50   25   49 1
    51   25   50 1
    52   26   51 1
@<TRIPOS>MOLECULE
CHEMBL113138__2
   51    52     0     0     0
SMALL
USER_CHARGES

@<TRIPOS>ATOM
      1 C1          0.0250    1.5244    0.0352 C.3       1 <0>        -0.1431
      2 C2          0.0270   -0.0055    0.0157 C.3       1 <0>        -0.0205
      3 C3          0.7713   -0.5301    1.2453 C.3       1 <0>        -0.1382
      4 C4         -1.4145   -0.5177    0.0351 C.3       1 <0>        -0.1388
      5 C5          0.7159   -0.4910   -1.2335 C.ar      1 <0>        -0.0917
      6 C6          1.2261    0.4169   -2.1339 C.ar      1 <0>        -0.1029
      7 C7          1.8659   -0.0357   -3.2942 C.ar      1 <0>        -0.0509
      8 C8          1.9832   -1.4105   -3.5321 C.ar      1 <0>        -0.1042
      9 C9          1.4694   -2.3097   -2.6250 C.ar      1 <0>        -0.0990
     10 C10         0.8401   -1.8549   -1.4719 C.ar      1 <0>         0.1066
     11 O1          0.3402   -2.7460   -0.5779 O.3       1 <0>        -0.4865
     12 C11         1.5949   -3.7897   -2.8796 C.3       1 <0>        -0.0182
     13 C12         2.3277   -4.0192   -4.2030 C.3       1 <0>        -0.1461
     14 C13         2.3841   -4.4381   -1.7405 C.3       1 <0>        -0.1398
     15 C14         0.2002   -4.4144   -2.9540 C.3       1 <0>        -0.1402
     16 C15         2.4118    0.9285   -4.2588 C.2       1 <0>        -0.0913
     17 C16         2.1910    2.2545   -4.0900 C.2       1 <0>        -0.0282
     18 C17         2.5618    3.3474   -5.0076 C.2       1 <0>         0.4819
     19 O2          3.1339    3.2443   -6.0811 O.2       1 <0>        -0.5263
     20 N1          2.1415    4.4770   -4.4216 N.2       1 <0>        -0.6001
     21 C18         1.5663    4.1872   -3.2675 C.2       1 <0>         0.5552
     22 O3          1.5741    2.8622   -3.0397 O.3       1 <0>        -0.2628
     23 N2          1.0399    5.0949   -2.4355 N.2       1 <0>        -0.6195
     24 C19         1.0755    6.3804   -2.7500 C.2       1 <0>         0.5783
     25 N3          1.6484    6.7804   -3.9219 N.2       1 <0>        -0.7981
     26 N4          0.5392    7.3052   -1.9023 N.pl3     1 <0>        -0.8788
     27 H1          1.0520    1.8894    0.0214 H         1 <0>         0.0613
     28 H2         -0.5052    1.8982   -0.8408 H         1 <0>         0.0627
     29 H3         -0.4733    1.8756    0.9388 H         1 <0>         0.0537
     30 H4          0.2730   -0.1789    2.1489 H         1 <0>         0.0504
     31 H5          0.7728   -1.6200    1.2314 H         1 <0>         0.0715
     32 H6          1.7983   -0.1652    1.2315 H         1 <0>         0.0501
     33 H7         -1.9447   -0.1439   -0.8408 H         1 <0>         0.0536
     34 H8         -1.4131   -1.6076    0.0213 H         1 <0>         0.0547
     35 H9         -1.9128   -0.1665    0.9387 H         1 <0>         0.0570
     36 H10         1.1326    1.4762   -1.9458 H         1 <0>         0.1601
     37 H11         2.4754   -1.7648   -4.4256 H         1 <0>         0.1296
     38 H12        -0.5775   -2.9998   -0.7468 H         1 <0>         0.3750
     39 H13         3.3213   -3.5742   -4.1500 H         1 <0>         0.0592
     40 H14         2.4184   -5.0897   -4.3871 H         1 <0>         0.0550
     41 H15         1.7654   -3.5573   -5.0145 H         1 <0>         0.0587
     42 H16         1.8620   -4.2746   -0.7977 H         1 <0>         0.0744
     43 H17         2.4748   -5.5086   -1.9247 H         1 <0>         0.0494
     44 H18         3.3777   -3.9930   -1.6875 H         1 <0>         0.0504
     45 H19        -0.3621   -3.9525   -3.7655 H         1 <0>         0.0537
     46 H20         0.2909   -5.4849   -3.1381 H         1 <0>         0.0560
     47 H21        -0.3219   -4.2509   -2.0112 H         1 <0>         0.0572
     48 H22         2.9891    0.5803   -5.1025 H         1 <0>         0.1517
     49 H23         1.6745    7.7223   -4.1523 H         1 <0>         0.2829
     50 H24         0.1318    7.0209   -1.0692 H         1 <0>         0.3833
     51 H25         0.5652    8.2471   -2.1328 H         1 <0>         0.3916
@<TRIPOS>BOND
     1    1    2 1
     2    1   27 1
     3    1   28 1
     4    1   29 1
     5    2    3 1
     6    2    4 1
     7    2    5 1
     8    3   30 1
     9    3   31 1
    10    3   32 1
    11    4   33 1
    12    4   34 1
    13    4   35 1
    14    5   10 ar
    15    5    6 ar
    16    6    7 ar
    17    6   36 1
    18    7    8 ar
    19    7   16 1
    20    8    9 ar
    21    8   37 1
    22    9   10 ar
    23    9   12 1
    24   10   11 1
    25   11   38 1
    26   12   13 1
    27   12   14 1
    28   12   15 1
    29   13   39 1
    30   13   40 1
    31   13   41 1
    32   14   42 1
    33   14   43 1
    34   14   44 1
    35   15   45 1
    36   15   46 1
    37   15   47 1
    38   16   17 2
    39   16   48 1
    40   17   22 1
    41   17   18 1
    42   18   19 2
    43   18   20 1
    44   20   21 2
    45   21   22 1
    46   21   23 1
    47   23   24 2
    48   24   25 1
    49   24   26 1
    50   25   49 1
    51   26   50 1
    52   26   51 1
@<TRIPOS>MOLECULE
CHEMBL134543
   64    68     0     0     0
SMALL
USER_CHARGES

@<TRIPOS>ATOM
      1 C1          0.8180    2.5586   -0.2079 C.ar      1 <0>        -0.1114
      2 C2          2.0201    3.2096   -0.0033 C.ar      1 <0>        -0.1194
      3 C3          3.2015    2.4919    0.0094 C.ar      1 <0>        -0.1193
      4 C4          3.1806    1.1230   -0.1821 C.ar      1 <0>        -0.0938
      5 C5          1.9784    0.4718   -0.3858 C.ar      1 <0>        -0.0936
      6 C6          0.7972    1.1898   -0.3998 C.ar      1 <0>        -0.1163
      7 C7          4.4686    0.3407   -0.1693 C.3       1 <0>         0.0978
      8 N1          4.7587   -0.1026    1.2009 N.3       1 <0>        -0.5331
      9 C8          5.0430    1.0433    2.0761 C.3       1 <0>         0.0235
     10 C9          5.2806    0.5447    3.5032 C.3       1 <0>        -0.0012
     11 N2          6.4111   -0.3930    3.5126 N.4       1 <0>        -0.3824
     12 C10         6.1023   -1.5437    2.6536 C.3       1 <0>        -0.0097
     13 C11         5.8715   -1.0624    1.2194 C.3       1 <0>         0.0303
     14 C12         6.6503   -0.8574    4.8856 C.3       1 <0>         0.0122
     15 C13         7.9030   -1.7353    4.9161 C.3       1 <0>        -0.1403
     16 S1          8.1983   -2.3089    6.6115 S.3       1 <0>        -0.1892
     17 C14         9.6299   -3.4124    6.4583 C.3       1 <0>         0.0400
     18 C15        10.7879   -2.5558    6.1205 C.ar      1 <0>        -0.0613
     19 C16        11.0567   -1.5893    7.1119 C.ar      1 <0>        -0.1032
     20 C17        12.1292   -0.7392    7.0196 C.ar      1 <0>        -0.1150
     21 C18        12.9749   -0.8401    5.9295 C.ar      1 <0>        -0.1100
     22 C19        12.6958   -1.7647    4.9549 C.ar      1 <0>        -0.1234
     23 C20        11.5699   -2.6074    5.0341 C.ar      1 <0>        -0.1057
     24 C21        11.3997   -3.4067    3.7616 C.3       1 <0>         0.1137
     25 O1         10.9826   -4.7255    3.9520 O.3       1 <0>        -0.3129
     26 C22         9.7866   -5.0417    4.5252 C.ar      1 <0>         0.1255
     27 C23         9.1909   -4.5601    5.6347 C.ar      1 <0>        -0.1573
     28 C24         8.0112   -5.1583    6.0992 C.ar      1 <0>        -0.0514
     29 C25         7.4014   -6.1936    5.4002 C.ar      1 <0>        -0.1430
     30 C26         7.9802   -6.6358    4.2051 C.ar      1 <0>        -0.0477
     31 C27         9.1504   -6.0683    3.7847 C.ar      1 <0>        -0.1671
     32 C28         6.1674   -6.8152    5.9090 C.2       1 <0>         0.5190
     33 O2          5.6704   -6.4211    6.9550 O.co2     1 <0>        -0.6816
     34 O3          5.6392   -7.7257    5.2857 O.co2     1 <0>        -0.6811
     35 H1         -0.1054    3.1187   -0.2133 H         1 <0>         0.1249
     36 H2          2.0364    4.2791    0.1463 H         1 <0>         0.1239
     37 H3          4.1408    3.0007    0.1685 H         1 <0>         0.1170
     38 H4          1.9622   -0.5976   -0.5357 H         1 <0>         0.1252
     39 H5         -0.1420    0.6810   -0.5594 H         1 <0>         0.1264
     40 H6          4.3721   -0.5287   -0.8197 H         1 <0>         0.0968
     41 H7          5.2814    0.9731   -0.5263 H         1 <0>         0.0539
     42 H8          5.9330    1.5616    1.7191 H         1 <0>         0.0583
     43 H9          4.1947    1.7277    2.0664 H         1 <0>         0.1256
     44 H10         5.5057    1.3918    4.1513 H         1 <0>         0.1352
     45 H11         4.3856    0.0384    3.8649 H         1 <0>         0.1403
     46 H12         6.9365   -2.2449    2.6717 H         1 <0>         0.1360
     47 H13         5.2031   -2.0393    3.0196 H         1 <0>         0.1442
     48 H14         5.6277   -1.9144    0.5847 H         1 <0>         0.1256
     49 H15         6.7751   -0.5788    0.8483 H         1 <0>         0.0591
     50 H16         6.7931    0.0023    5.5403 H         1 <0>         0.1385
     51 H17         5.7925   -1.4363    5.2279 H         1 <0>         0.1442
     52 H18         7.7602   -2.5950    4.2614 H         1 <0>         0.1045
     53 H19         8.7608   -1.1564    4.5738 H         1 <0>         0.0962
     54 H20         9.8143   -3.8015    7.4597 H         1 <0>         0.1333
     55 H21        10.4008   -1.5170    7.9669 H         1 <0>         0.1305
     56 H22        12.3106   -0.0012    7.7870 H         1 <0>         0.1291
     57 H23        13.8413   -0.2006    5.8467 H         1 <0>         0.1279
     58 H24        13.3570   -1.8489    4.1050 H         1 <0>         0.1248
     59 H25        10.6675   -2.9010    3.1322 H         1 <0>         0.0507
     60 H26        12.3527   -3.4196    3.2326 H         1 <0>         0.1144
     61 H27         7.5668   -4.8074    7.0188 H         1 <0>         0.1415
     62 H28         7.5091   -7.4144    3.6235 H         1 <0>         0.1372
     63 H29         9.6009   -6.4106    2.8648 H         1 <0>         0.1262
     64 H30         7.2368    0.0726    3.1669 H         1 <0>         0.4169
@<TRIPOS>BOND
     1    1    6 ar
     2    1    2 ar
     3    1   35 1
     4    2    3 ar
     5    2   36 1
     6    3    4 ar
     7    3   37 1
     8    4    5 ar
     9    4    7 1
    10    5    6 ar
    11    5   38 1
    12    6   39 1
    13    7    8 1
    14    7   40 1
    15    7   41 1
    16    8   13 1
    17    8    9 1
    18    9   10 1
    19    9   42 1
    20    9   43 1
    21   10   11 1
    22   10   44 1
    23   10   45 1
    24   11   12 1
    25   11   14 1
    26   11   64 1
    27   12   13 1
    28   12   46 1
    29   12   47 1
    30   13   48 1
    31   13   49 1
    32   14   15 1
    33   14   50 1
    34   14   51 1
    35   15   16 1
    36   15   52 1
    37   15   53 1
    38   16   17 1
    39   17   27 1
    40   17   18 1
    41   17   54 1
    42   18   23 ar
    43   18   19 ar
    44   19   20 ar
    45   19   55 1
    46   20   21 ar
    47   20   56 1
    48   21   22 ar
    49   21   57 1
    50   22   23 ar
    51   22   58 1
    52   23   24 1
    53   24   25 1
    54   24   59 1
    55   24   60 1
    56   25   26 1
    57   26   31 ar
    58   26   27 ar
    59   27   28 ar
    60   28   29 ar
    61   28   61 1
    62   29   30 ar
    63   29   32 1
    64   30   31 ar
    65   30   62 1
    66   31   63 1
    67   32   33 2
    68   32   34 1
@<TRIPOS>MOLECULE
CHEMBL134543__1
   63    67     0     0     0
SMALL
USER_CHARGES

@<TRIPOS>ATOM
      1 C1          0.7654    2.6172   -0.1436 C.ar      1 <0>        -0.1219
      2 C2          1.9710    3.2639    0.0540 C.ar      1 <0>        -0.1222
      3 C3          3.1505    2.5430    0.0524 C.ar      1 <0>        -0.1153
      4 C4          3.1242    1.1752   -0.1463 C.ar      1 <0>        -0.0759
      5 C5          1.9185    0.5284   -0.3430 C.ar      1 <0>        -0.0976
      6 C6          0.7392    1.2496   -0.3428 C.ar      1 <0>        -0.1208
      7 C7          4.4101    0.3894   -0.1490 C.3       1 <0>         0.0935
      8 N1          4.7109   -0.0622    1.2161 N.3       1 <0>        -0.5336
      9 C8          5.0037    1.0782    2.0955 C.3       1 <0>         0.0574
     10 C9          5.2329    0.5732    3.5220 C.3       1 <0>         0.0582
     11 N2          6.3431   -0.3895    3.5256 N.3       1 <0>        -0.5356
     12 C10         6.0503   -1.5299    2.6462 C.3       1 <0>         0.0517
     13 C11         5.8211   -1.0250    1.2197 C.3       1 <0>         0.0608
     14 C12         6.6439   -0.8411    4.8908 C.3       1 <0>         0.0741
     15 C13         7.9494   -1.6389    4.8880 C.3       1 <0>        -0.0773
     16 S1          8.3208   -2.1966    6.5737 S.3       1 <0>        -0.2390
     17 C14         9.8145   -3.2080    6.3823 C.3       1 <0>         0.0348
     18 C15        10.9082   -2.2799    6.0199 C.ar      1 <0>        -0.0488
     19 C16        11.1399   -1.3007    7.0082 C.ar      1 <0>        -0.0992
     20 C17        12.1546   -0.3849    6.8934 C.ar      1 <0>        -0.1200
     21 C18        12.9784   -0.4303    5.7830 C.ar      1 <0>        -0.1166
     22 C19        12.7343   -1.3684    4.8119 C.ar      1 <0>        -0.1237
     23 C20        11.6654   -2.2801    4.9149 C.ar      1 <0>        -0.1056
     24 C21        11.5149   -3.0857    3.6440 C.3       1 <0>         0.1121
     25 O1         11.1857   -4.4285    3.8395 O.3       1 <0>        -0.3167
     26 C22        10.0261   -4.8201    4.4399 C.ar      1 <0>         0.1241
     27 C23         9.4284   -4.3791    5.5651 C.ar      1 <0>        -0.1461
     28 C24         8.2999   -5.0511    6.0556 C.ar      1 <0>        -0.0454
     29 C25         7.7393   -6.1210    5.3676 C.ar      1 <0>        -0.1477
     30 C26         8.3156   -6.5234    4.1573 C.ar      1 <0>        -0.0521
     31 C27         9.4376   -5.8829    3.7112 C.ar      1 <0>        -0.1675
     32 C28         6.5593   -6.8196    5.9035 C.2       1 <0>         0.5228
     33 O2          6.0639   -6.4597    6.9626 O.co2     1 <0>        -0.6837
     34 O3          6.0741   -7.7601    5.2897 O.co2     1 <0>        -0.6885
     35 H1         -0.1565    3.1799   -0.1379 H         1 <0>         0.1194
     36 H2          1.9915    4.3325    0.2093 H         1 <0>         0.1199
     37 H3          4.0925    3.0483    0.2061 H         1 <0>         0.1177
     38 H4          1.8980   -0.5401   -0.4986 H         1 <0>         0.1229
     39 H5         -0.2028    0.7443   -0.4969 H         1 <0>         0.1213
     40 H6          4.3056   -0.4761   -0.8033 H         1 <0>         0.0840
     41 H7          5.2215    1.0216   -0.5097 H         1 <0>         0.0429
     42 H8          5.8994    1.5892    1.7424 H         1 <0>         0.0404
     43 H9          4.1619    1.7706    2.0857 H         1 <0>         0.0824
     44 H10         5.4787    1.4142    4.1704 H         1 <0>         0.0786
     45 H11         4.3279    0.0861    3.8852 H         1 <0>         0.0449
     46 H12         6.8922   -2.2223    2.6560 H         1 <0>         0.0822
     47 H13         5.1547   -2.0410    2.9994 H         1 <0>         0.0490
     48 H14         5.5753   -1.8660    0.5713 H         1 <0>         0.0814
     49 H15         6.7261   -0.5378    0.8566 H         1 <0>         0.0419
     50 H16         6.7484    0.0244    5.5450 H         1 <0>         0.0810
     51 H17         5.8325   -1.4733    5.2514 H         1 <0>         0.0497
     52 H18         7.8449   -2.5045    4.2337 H         1 <0>         0.0814
     53 H19         8.7608   -1.0067    4.5274 H         1 <0>         0.0821
     54 H20        10.0470   -3.5870    7.3775 H         1 <0>         0.1240
     55 H21        10.5016   -1.2714    7.8789 H         1 <0>         0.1299
     56 H22        12.3080    0.3613    7.6589 H         1 <0>         0.1251
     57 H23        13.8009    0.2624    5.6818 H         1 <0>         0.1232
     58 H24        13.3786   -1.4092    3.9461 H         1 <0>         0.1211
     59 H25        10.7375   -2.6255    3.0342 H         1 <0>         0.0569
     60 H26        12.4538   -3.0377    3.0923 H         1 <0>         0.1106
     61 H27         7.8567   -4.7306    6.9869 H         1 <0>         0.1406
     62 H28         7.8802   -7.3287    3.5843 H         1 <0>         0.1335
     63 H29         9.8863   -6.1943    2.7795 H         1 <0>         0.1229
@<TRIPOS>BOND
     1    1    6 ar
     2    1    2 ar
     3    1   35 1
     4    2    3 ar
     5    2   36 1
     6    3    4 ar
     7    3   37 1
     8    4    5 ar
     9    4    7 1
    10    5    6 ar
    11    5   38 1
    12    6   39 1
    13    7    8 1
    14    7   40 1
    15    7   41 1
    16    8   13 1
    17    8    9 1
    18    9   10 1
    19    9   42 1
    20    9   43 1
    21   10   11 1
    22   10   44 1
    23   10   45 1
    24   11   12 1
    25   11   14 1
    26   12   13 1
    27   12   46 1
    28   12   47 1
    29   13   48 1
    30   13   49 1
    31   14   15 1
    32   14   50 1
    33   14   51 1
    34   15   16 1
    35   15   52 1
    36   15   53 1
    37   16   17 1
    38   17   27 1
    39   17   18 1
    40   17   54 1
    41   18   23 ar
    42   18   19 ar
    43   19   20 ar
    44   19   55 1
    45   20   21 ar
    46   20   56 1
    47   21   22 ar
    48   21   57 1
    49   22   23 ar
    50   22   58 1
    51   23   24 1
    52   24   25 1
    53   24   59 1
    54   24   60 1
    55   25   26 1
    56   26   31 ar
    57   26   27 ar
    58   27   28 ar
    59   28   29 ar
    60   28   61 1
    61   29   30 ar
    62   29   32 1
    63   30   31 ar
    64   30   62 1
    65   31   63 1
    66   32   33 2
    67   32   34 1
@<TRIPOS>MOLECULE
CHEMBL134543__2
   64    68     0     0     0
SMALL
USER_CHARGES

@<TRIPOS>ATOM
      1 C1          0.6984    2.6672   -0.1110 C.ar      1 <0>        -0.0861
      2 C2          1.9076    3.3096    0.0787 C.ar      1 <0>        -0.1148
      3 C3          3.0849    2.5854    0.0629 C.ar      1 <0>        -0.0972
      4 C4          3.0530    1.2187   -0.1421 C.ar      1 <0>        -0.1594
      5 C5          1.8437    0.5762   -0.3310 C.ar      1 <0>        -0.0931
      6 C6          0.6665    1.3006   -0.3166 C.ar      1 <0>        -0.1132
      7 C7          4.3366    0.4293   -0.1603 C.3       1 <0>         0.0452
      8 N1          4.6485   -0.0297    1.1998 N.4       1 <0>        -0.3853
      9 C8          4.9165    1.1313    2.0587 C.3       1 <0>        -0.0038
     10 C9          5.2230    0.6546    3.4801 C.3       1 <0>         0.0275
     11 N2          6.3912   -0.2369    3.4536 N.3       1 <0>        -0.5345
     12 C10         6.1467   -1.3916    2.5777 C.3       1 <0>         0.0171
     13 C11         5.8326   -0.8980    1.1637 C.3       1 <0>         0.0001
     14 C12         6.7524   -0.6717    4.8095 C.3       1 <0>         0.0734
     15 C13         8.1048   -1.3863    4.7725 C.3       1 <0>        -0.0883
     16 S1          8.5510   -1.9232    6.4468 S.3       1 <0>        -0.2283
     17 C14        10.0999   -2.8388    6.2159 C.3       1 <0>         0.0372
     18 C15        11.1244   -1.8433    5.8309 C.ar      1 <0>        -0.0532
     19 C16        11.3182   -0.8536    6.8169 C.ar      1 <0>        -0.1008
     20 C17        12.2705    0.1241    6.6812 C.ar      1 <0>        -0.1171
     21 C18        13.0685    0.1328    5.5512 C.ar      1 <0>        -0.1133
     22 C19        12.8602   -0.8167    4.5828 C.ar      1 <0>        -0.1239
     23 C20        11.8532   -1.7937    4.7081 C.ar      1 <0>        -0.1066
     24 C21        11.7227   -2.6044    3.4381 C.3       1 <0>         0.1145
     25 O1         11.4830   -3.9655    3.6365 O.3       1 <0>        -0.3152
     26 C22        10.3648   -4.4303    4.2631 C.ar      1 <0>         0.1252
     27 C23         9.7681   -4.0300    5.4039 C.ar      1 <0>        -0.1486
     28 C24         8.6960   -4.7723    5.9188 C.ar      1 <0>        -0.0471
     29 C25         8.1870   -5.8737    5.2405 C.ar      1 <0>        -0.1472
     30 C26         8.7579   -6.2366    4.0153 C.ar      1 <0>        -0.0518
     31 C27         9.8265   -5.5262    3.5448 C.ar      1 <0>        -0.1684
     32 C28         7.0662   -6.6460    5.8019 C.2       1 <0>         0.5205
     33 O2          6.5750   -6.3201    6.8739 O.co2     1 <0>        -0.6822
     34 O3          6.6261   -7.6136    5.1964 O.co2     1 <0>        -0.6858
     35 H1         -0.2218    3.2324   -0.0942 H         1 <0>         0.1346
     36 H2          1.9325    4.3774    0.2389 H         1 <0>         0.1351
     37 H3          4.0297    3.0874    0.2105 H         1 <0>         0.1311
     38 H4          1.8188   -0.4915   -0.4916 H         1 <0>         0.1319
     39 H5         -0.2783    0.7987   -0.4646 H         1 <0>         0.1356
     40 H6          4.2237   -0.4327   -0.8178 H         1 <0>         0.1370
     41 H7          5.1465    1.0610   -0.5253 H         1 <0>         0.1355
     42 H8          5.7719    1.6825    1.6680 H         1 <0>         0.1358
     43 H9          4.0417    1.7814    2.0742 H         1 <0>         0.1336
     44 H10         5.4365    1.5151    4.1142 H         1 <0>         0.1226
     45 H11         4.3627    0.1151    3.8762 H         1 <0>         0.0619
     46 H12         7.0342   -2.0239    2.5535 H         1 <0>         0.1260
     47 H13         5.3016   -1.9648    2.9590 H         1 <0>         0.0672
     48 H14         5.6371   -1.7524    0.5158 H         1 <0>         0.1370
     49 H15         6.6833   -0.3364    0.7776 H         1 <0>         0.1371
     50 H16         6.8184    0.1972    5.4642 H         1 <0>         0.0951
     51 H17         5.9911   -1.3543    5.1871 H         1 <0>         0.0614
     52 H18         8.0389   -2.2552    4.1177 H         1 <0>         0.0814
     53 H19         8.8662   -0.7038    4.3949 H         1 <0>         0.0869
     54 H20        10.3795   -3.2047    7.2038 H         1 <0>         0.1271
     55 H21        10.7004   -0.8662    7.7027 H         1 <0>         0.1300
     56 H22        12.3954    0.8768    7.4455 H         1 <0>         0.1271
     57 H23        13.8434    0.8758    5.4329 H         1 <0>         0.1256
     58 H24        13.4847   -0.8152    3.7017 H         1 <0>         0.1226
     59 H25        10.9035   -2.1924    2.8488 H         1 <0>         0.0526
     60 H26        12.6432   -2.4966    2.8643 H         1 <0>         0.1121
     61 H27         8.2562   -4.4822    6.8616 H         1 <0>         0.1408
     62 H28         8.3600   -7.0664    3.4499 H         1 <0>         0.1345
     63 H29        10.2712   -5.8069    2.6014 H         1 <0>         0.1240
     64 H30         3.8640   -0.5463    1.5684 H         1 <0>         0.4212
@<TRIPOS>BOND
     1    1    6 ar
     2    1    2 ar
     3    1   35 1
     4    2    3 ar
     5    2   36 1
     6    3    4 ar
     7    3   37 1
     8    4    5 ar
     9    4    7 1
    10    5    6 ar
    11    5   38 1
    12    6   39 1
    13    7    8 1
    14    7   40 1
    15    7   41 1
    16    8   13 1
    17    8    9 1
    18    8   64 1
    19    9   10 1
    20    9   42 1
    21    9   43 1
    22   10   11 1
    23   10   44 1
    24   10   45 1
    25   11   12 1
    26   11   14 1
    27   12   13 1
    28   12   46 1
    29   12   47 1
    30   13   48 1
    31   13   49 1
    32   14   15 1
    33   14   50 1
    34   14   51 1
    35   15   16 1
    36   15   52 1
    37   15   53 1
    38   16   17 1
    39   17   27 1
    40   17   18 1
    41   17   54 1
    42   18   23 ar
    43   18   19 ar
    44   19   20 ar
    45   19   55 1
    46   20   21 ar
    47   20   56 1
    48   21   22 ar
    49   21   57 1
    50   22   23 ar
    51   22   58 1
    52   23   24 1
    53   24   25 1
    54   24   59 1
    55   24   60 1
    56   25   26 1
    57   26   31 ar
    58   26   27 ar
    59   27   28 ar
    60   28   29 ar
    61   28   61 1
    62   29   30 ar
    63   29   32 1
    64   30   31 ar
    65   30   62 1
    66   31   63 1
    67   32   33 2
    68   32   34 1
@<TRIPOS>MOLECULE
CHEMBL134543__3
   64    68     0     0     0
SMALL
USER_CHARGES

@<TRIPOS>ATOM
      1 C1         -0.0238    1.3678    0.0127 C.ar      1 <0>        -0.1113
      2 C2          1.1636    2.0756    0.0033 C.ar      1 <0>        -0.1179
      3 C3          2.3702    1.4012   -0.0121 C.ar      1 <0>        -0.1181
      4 C4          2.3894    0.0190   -0.0176 C.ar      1 <0>        -0.0936
      5 C5          1.2020   -0.6888   -0.0073 C.ar      1 <0>        -0.0954
      6 C6         -0.0046   -0.0144    0.0067 C.ar      1 <0>        -0.1177
      7 C7          3.7047   -0.7163   -0.0354 C.3       1 <0>         0.0971
      8 N1          4.1479   -0.9605    1.3437 N.3       1 <0>        -0.5334
      9 C8          4.4680    0.3017    2.0254 C.3       1 <0>         0.0212
     10 C9          4.8670    0.0089    3.4734 C.3       1 <0>        -0.0003
     11 N2          6.0322   -0.8853    3.4892 N.4       1 <0>        -0.3842
     12 C10         5.6895   -2.1507    2.8267 C.3       1 <0>        -0.0056
     13 C11         5.2974   -1.8758    1.3733 C.3       1 <0>         0.0278
     14 C12         6.4259   -1.1516    4.8791 C.3       1 <0>         0.0131
     15 C13         7.7121   -1.9800    4.8951 C.3       1 <0>        -0.1388
     16 S1          8.1983   -2.3089    6.6115 S.3       1 <0>        -0.1900
     17 C14         9.6299   -3.4124    6.4583 C.3       1 <0>         0.0398
     18 C15         9.1169   -4.6980    5.9358 C.ar      1 <0>        -0.0655
     19 C16         8.0364   -5.1993    6.6912 C.ar      1 <0>        -0.1014
     20 C17         7.3765   -6.3473    6.3334 C.ar      1 <0>        -0.1186
     21 C18         7.7757   -7.0252    5.1955 C.ar      1 <0>        -0.1098
     22 C19         8.8431   -6.5480    4.4774 C.ar      1 <0>        -0.1259
     23 C20         9.5436   -5.3914    4.8722 C.ar      1 <0>        -0.1010
     24 C21        10.7707   -5.1808    4.0137 C.3       1 <0>         0.1064
     25 O1         11.0336   -3.8487    3.6880 O.3       1 <0>        -0.3186
     26 C22        11.3081   -2.9028    4.6307 C.ar      1 <0>         0.1212
     27 C23        10.6981   -2.6279    5.8012 C.ar      1 <0>        -0.1531
     28 C24        11.0878   -1.4975    6.5333 C.ar      1 <0>        -0.0535
     29 C25        12.1393   -0.6911    6.1137 C.ar      1 <0>        -0.1396
     30 C26        12.8229   -1.0276    4.9395 C.ar      1 <0>        -0.0479
     31 C27        12.4078   -2.1112    4.2174 C.ar      1 <0>        -0.1638
     32 C28        12.5274    0.4975    6.8911 C.2       1 <0>         0.5186
     33 O2         11.9227    0.7824    7.9157 O.co2     1 <0>        -0.6819
     34 O3         13.4544    1.2002    6.5125 O.co2     1 <0>        -0.6803
     35 H1         -0.9664    1.8947    0.0293 H         1 <0>         0.1251
     36 H2          1.1486    3.1555    0.0076 H         1 <0>         0.1250
     37 H3          3.2978    1.9542   -0.0202 H         1 <0>         0.1186
     38 H4          1.2170   -1.7687   -0.0120 H         1 <0>         0.1233
     39 H5         -0.9322   -0.5674    0.0144 H         1 <0>         0.1254
     40 H6          3.5818   -1.6684   -0.5515 H         1 <0>         0.0956
     41 H7          4.4502   -0.1147   -0.5554 H         1 <0>         0.0555
     42 H8          5.2951    0.7925    1.5124 H         1 <0>         0.0616
     43 H9          3.5942    0.9532    2.0135 H         1 <0>         0.1260
     44 H10         5.1185    0.9424    3.9768 H         1 <0>         0.1376
     45 H11         4.0349   -0.4696    3.9899 H         1 <0>         0.1376
     46 H12         6.5509   -2.8182    2.8506 H         1 <0>         0.1350
     47 H13         4.8532   -2.6180    3.3465 H         1 <0>         0.1380
     48 H14         5.0287   -2.8129    0.8857 H         1 <0>         0.1228
     49 H15         6.1381   -1.4209    0.8495 H         1 <0>         0.0620
     50 H16         6.5958   -0.2070    5.3960 H         1 <0>         0.1418
     51 H17         5.6320   -1.7034    5.3823 H         1 <0>         0.1379
     52 H18         7.5423   -2.9246    4.3782 H         1 <0>         0.0997
     53 H19         8.5061   -1.4282    4.3919 H         1 <0>         0.1053
     54 H20         9.9678   -3.6048    7.4766 H         1 <0>         0.1316
     55 H21         7.7200   -4.6648    7.5747 H         1 <0>         0.1324
     56 H22         6.5570   -6.7170    6.9319 H         1 <0>         0.1283
     57 H23         7.2554   -7.9166    4.8775 H         1 <0>         0.1270
     58 H24         9.1540   -7.0725    3.5860 H         1 <0>         0.1244
     59 H25        11.6346   -5.5832    4.5427 H         1 <0>         0.0651
     60 H26        10.6450   -5.7435    3.0887 H         1 <0>         0.1139
     61 H27        10.5599   -1.2480    7.4419 H         1 <0>         0.1392
     62 H28        13.6659   -0.4391    4.6088 H         1 <0>         0.1377
     63 H29        12.9313   -2.3703    3.3089 H         1 <0>         0.1263
     64 H30         6.7988   -0.4471    3.0009 H         1 <0>         0.4224
@<TRIPOS>BOND
     1    1    6 ar
     2    1    2 ar
     3    1   35 1
     4    2    3 ar
     5    2   36 1
     6    3    4 ar
     7    3   37 1
     8    4    5 ar
     9    4    7 1
    10    5    6 ar
    11    5   38 1
    12    6   39 1
    13    7    8 1
    14    7   40 1
    15    7   41 1
    16    8   13 1
    17    8    9 1
    18    9   10 1
    19    9   42 1
    20    9   43 1
    21   10   11 1
    22   10   44 1
    23   10   45 1
    24   11   12 1
    25   11   14 1
    26   11   64 1
    27   12   13 1
    28   12   46 1
    29   12   47 1
    30   13   48 1
    31   13   49 1
    32   14   15 1
    33   14   50 1
    34   14   51 1
    35   15   16 1
    36   15   52 1
    37   15   53 1
    38   16   17 1
    39   17   27 1
    40   17   18 1
    41   17   54 1
    42   18   23 ar
    43   18   19 ar
    44   19   20 ar
    45   19   55 1
    46   20   21 ar
    47   20   56 1
    48   21   22 ar
    49   21   57 1
    50   22   23 ar
    51   22   58 1
    52   23   24 1
    53   24   25 1
    54   24   59 1
    55   24   60 1
    56   25   26 1
    57   26   31 ar
    58   26   27 ar
    59   27   28 ar
    60   28   29 ar
    61   28   61 1
    62   29   30 ar
    63   29   32 1
    64   30   31 ar
    65   30   62 1
    66   31   63 1
    67   32   33 2
    68   32   34 1
@<TRIPOS>MOLECULE
CHEMBL134543__4
   63    67     0     0     0
SMALL
USER_CHARGES

@<TRIPOS>ATOM
      1 C1         -0.0233    1.3673    0.0122 C.ar      1 <0>        -0.1219
      2 C2          1.1640    2.0751    0.0028 C.ar      1 <0>        -0.1207
      3 C3          2.3706    1.4007   -0.0125 C.ar      1 <0>        -0.1141
      4 C4          2.3899    0.0185   -0.0179 C.ar      1 <0>        -0.0758
      5 C5          1.2025   -0.6893   -0.0076 C.ar      1 <0>        -0.0992
      6 C6         -0.0041   -0.0150    0.0062 C.ar      1 <0>        -0.1222
      7 C7          3.7052   -0.7167   -0.0356 C.3       1 <0>         0.0927
      8 N1          4.1483   -0.9608    1.3436 N.3       1 <0>        -0.5339
      9 C8          4.4660    0.3013    2.0259 C.3       1 <0>         0.0550
     10 C9          4.8458    0.0107    3.4797 C.3       1 <0>         0.0598
     11 N2          5.9952   -0.9046    3.5094 N.3       1 <0>        -0.5348
     12 C10         5.6775   -2.1667    2.8271 C.3       1 <0>         0.0568
     13 C11         5.2977   -1.8761    1.3733 C.3       1 <0>         0.0585
     14 C12         6.4383   -1.1487    4.8886 C.3       1 <0>         0.0767
     15 C13         7.7737   -1.8951    4.8707 C.3       1 <0>        -0.0763
     16 S1          8.3208   -2.1966    6.5737 S.3       1 <0>        -0.2394
     17 C14         9.8145   -3.2080    6.3823 C.3       1 <0>         0.0348
     18 C15         9.3704   -4.5220    5.8675 C.ar      1 <0>        -0.0534
     19 C16         8.3419   -5.0917    6.6466 C.ar      1 <0>        -0.0971
     20 C17         7.7466   -6.2779    6.3005 C.ar      1 <0>        -0.1221
     21 C18         8.1598   -6.9270    5.1509 C.ar      1 <0>        -0.1159
     22 C19         9.1776   -6.3824    4.4092 C.ar      1 <0>        -0.1258
     23 C20         9.8138   -5.1851    4.7913 C.ar      1 <0>        -0.1048
     24 C21        11.0043   -4.8962    3.9046 C.3       1 <0>         0.1111
     25 O1         11.1754   -3.5496    3.5775 O.3       1 <0>        -0.3171
     26 C22        11.4130   -2.5905    4.5168 C.ar      1 <0>         0.1233
     27 C23        10.8154   -2.3568    5.7026 C.ar      1 <0>        -0.1417
     28 C24        11.1512   -1.2058    6.4294 C.ar      1 <0>        -0.0474
     29 C25        12.1399   -0.3343    5.9876 C.ar      1 <0>        -0.1464
     30 C26        12.8145   -0.6247    4.7962 C.ar      1 <0>        -0.0525
     31 C27        12.4507   -1.7306    4.0802 C.ar      1 <0>        -0.1654
     32 C28        12.4715    0.8746    6.7599 C.2       1 <0>         0.5228
     33 O2         11.8751    1.1189    7.7997 O.co2     1 <0>        -0.6841
     34 O3         13.3434    1.6348    6.3618 O.co2     1 <0>        -0.6882
     35 H1         -0.9660    1.8941    0.0286 H         1 <0>         0.1196
     36 H2          1.1490    3.1550    0.0071 H         1 <0>         0.1210
     37 H3          3.2982    1.9537   -0.0205 H         1 <0>         0.1194
     38 H4          1.2175   -1.7692   -0.0123 H         1 <0>         0.1211
     39 H5         -0.9317   -0.5680    0.0138 H         1 <0>         0.1203
     40 H6          3.5824   -1.6689   -0.5517 H         1 <0>         0.0828
     41 H7          4.4508   -0.1151   -0.5556 H         1 <0>         0.0447
     42 H8          5.3016    0.7869    1.5218 H         1 <0>         0.0439
     43 H9          3.5956    0.9570    2.0016 H         1 <0>         0.0831
     44 H10         5.1099    0.9425    3.9799 H         1 <0>         0.0818
     45 H11         4.0008   -0.4501    3.9912 H         1 <0>         0.0419
     46 H12         6.5479   -2.8224    2.8515 H         1 <0>         0.0809
     47 H13         4.8419   -2.6523    3.3312 H         1 <0>         0.0417
     48 H14         5.0336   -2.8078    0.8731 H         1 <0>         0.0786
     49 H15         6.1428   -1.4153    0.8618 H         1 <0>         0.0451
     50 H16         6.5611   -0.1965    5.4047 H         1 <0>         0.0852
     51 H17         5.6928   -1.7503    5.4086 H         1 <0>         0.0420
     52 H18         7.6509   -2.8473    4.3546 H         1 <0>         0.0766
     53 H19         8.5193   -1.2935    4.3507 H         1 <0>         0.0912
     54 H20        10.1882   -3.3811    7.3915 H         1 <0>         0.1224
     55 H21         8.0141   -4.5799    7.5394 H         1 <0>         0.1320
     56 H22         6.9665   -6.6995    6.9171 H         1 <0>         0.1246
     57 H23         7.6888   -7.8485    4.8422 H         1 <0>         0.1228
     58 H24         9.4991   -6.8845    3.5087 H         1 <0>         0.1210
     59 H25        11.9042   -5.2450    4.4112 H         1 <0>         0.0599
     60 H26        10.8917   -5.4637    2.9808 H         1 <0>         0.1100
     61 H27        10.6308   -0.9918    7.3512 H         1 <0>         0.1386
     62 H28        13.6109    0.0160    4.4475 H         1 <0>         0.1337
     63 H29        12.9673   -1.9545    3.1586 H         1 <0>         0.1228
@<TRIPOS>BOND
     1    1    6 ar
     2    1    2 ar
     3    1   35 1
     4    2    3 ar
     5    2   36 1
     6    3    4 ar
     7    3   37 1
     8    4    5 ar
     9    4    7 1
    10    5    6 ar
    11    5   38 1
    12    6   39 1
    13    7    8 1
    14    7   40 1
    15    7   41 1
    16    8   13 1
    17    8    9 1
    18    9   10 1
    19    9   42 1
    20    9   43 1
    21   10   11 1
    22   10   44 1
    23   10   45 1
    24   11   12 1
    25   11   14 1
    26   12   13 1
    27   12   46 1
    28   12   47 1
    29   13   48 1
    30   13   49 1
    31   14   15 1
    32   14   50 1
    33   14   51 1
    34   15   16 1
    35   15   52 1
    36   15   53 1
    37   16   17 1
    38   17   27 1
    39   17   18 1
    40   17   54 1
    41   18   23 ar
    42   18   19 ar
    43   19   20 ar
    44   19   55 1
    45   20   21 ar
    46   20   56 1
    47   21   22 ar
    48   21   57 1
    49   22   23 ar
    50   22   58 1
    51   23   24 1
    52   24   25 1
    53   24   59 1
    54   24   60 1
    55   25   26 1
    56   26   31 ar
    57   26   27 ar
    58   27   28 ar
    59   28   29 ar
    60   28   61 1
    61   29   30 ar
    62   29   32 1
    63   30   31 ar
    64   30   62 1
    65   31   63 1
    66   32   33 2
    67   32   34 1
@<TRIPOS>MOLECULE
CHEMBL134543__5
   64    68     0     0     0
SMALL
USER_CHARGES

@<TRIPOS>ATOM
      1 C1         -0.0227    1.3668    0.0119 C.ar      1 <0>        -0.0859
      2 C2          1.1646    2.0747    0.0026 C.ar      1 <0>        -0.1133
      3 C3          2.3712    1.4003   -0.0126 C.ar      1 <0>        -0.0959
      4 C4          2.3905    0.0181   -0.0180 C.ar      1 <0>        -0.1596
      5 C5          1.2032   -0.6898   -0.0078 C.ar      1 <0>        -0.0947
      6 C6         -0.0034   -0.0154    0.0060 C.ar      1 <0>        -0.1146
      7 C7          3.7059   -0.7170   -0.0355 C.3       1 <0>         0.0451
      8 N1          4.1489   -0.9611    1.3437 N.4       1 <0>        -0.3843
      9 C8          4.4276    0.3218    2.0024 C.3       1 <0>        -0.0057
     10 C9          4.8710    0.0690    3.4451 C.3       1 <0>         0.0292
     11 N2          6.0758   -0.7726    3.4438 N.3       1 <0>        -0.5335
     12 C10         5.8190   -2.0509    2.7654 C.3       1 <0>         0.0222
     13 C11         5.3678   -1.7806    1.3284 C.3       1 <0>        -0.0013
     14 C12         6.5665   -0.9916    4.8111 C.3       1 <0>         0.0756
     15 C13         7.9451   -1.6529    4.7584 C.3       1 <0>        -0.0873
     16 S1          8.5510   -1.9232    6.4468 S.3       1 <0>        -0.2286
     17 C14        10.0999   -2.8388    6.2159 C.3       1 <0>         0.0370
     18 C15         9.7265   -4.1769    5.7070 C.ar      1 <0>        -0.0562
     19 C16         8.7547   -4.8115    6.5085 C.ar      1 <0>        -0.0984
     20 C17         8.2266   -6.0319    6.1724 C.ar      1 <0>        -0.1220
     21 C18         8.6517   -6.6514    5.0109 C.ar      1 <0>        -0.1147
     22 C19         9.6153   -6.0425    4.2470 C.ar      1 <0>        -0.1267
     23 C20        10.1844   -4.8086    4.6182 C.ar      1 <0>        -0.1030
     24 C21        11.3327   -4.4439    3.7042 C.3       1 <0>         0.1085
     25 O1         11.4114   -3.0885    3.3781 O.3       1 <0>        -0.3184
     26 C22        11.6111   -2.1184    4.3150 C.ar      1 <0>         0.1212
     27 C23        11.0289   -1.9251    5.5156 C.ar      1 <0>        -0.1452
     28 C24        11.3096   -0.7570    6.2383 C.ar      1 <0>        -0.0500
     29 C25        12.2308    0.1757    5.7762 C.ar      1 <0>        -0.1421
     30 C26        12.8934   -0.0694    4.5680 C.ar      1 <0>        -0.0504
     31 C27        12.5823   -1.1943    3.8568 C.ar      1 <0>        -0.1647
     32 C28        12.5048    1.4013    6.5448 C.2       1 <0>         0.5203
     33 O2         11.9195    1.6055    7.5995 O.co2     1 <0>        -0.6828
     34 O3         13.3176    2.2154    6.1287 O.co2     1 <0>        -0.6839
     35 H1         -0.9654    1.8936    0.0283 H         1 <0>         0.1348
     36 H2          1.1495    3.1545    0.0068 H         1 <0>         0.1362
     37 H3          3.2988    1.9534   -0.0205 H         1 <0>         0.1328
     38 H4          1.2182   -1.7696   -0.0123 H         1 <0>         0.1301
     39 H5         -0.9311   -0.5684    0.0136 H         1 <0>         0.1347
     40 H6          3.5831   -1.6693   -0.5515 H         1 <0>         0.1359
     41 H7          4.4514   -0.1155   -0.5555 H         1 <0>         0.1368
     42 H8          5.2203    0.8418    1.4645 H         1 <0>         0.1387
     43 H9          3.5258    0.9341    2.0015 H         1 <0>         0.1343
     44 H10         5.0922    1.0200    3.9295 H         1 <0>         0.1256
     45 H11         4.0732   -0.4388    3.9871 H         1 <0>         0.0591
     46 H12         6.7318   -2.6465    2.7541 H         1 <0>         0.1248
     47 H13         5.0368   -2.5936    3.2962 H         1 <0>         0.0598
     48 H14         5.1630   -2.7270    0.8278 H         1 <0>         0.1345
     49 H15         6.1557   -1.2499    0.7939 H         1 <0>         0.1397
     50 H16         6.6420   -0.0347    5.3276 H         1 <0>         0.0992
     51 H17         5.8728   -1.6398    5.3466 H         1 <0>         0.0540
     52 H18         7.8696   -2.6098    4.2419 H         1 <0>         0.0765
     53 H19         8.6388   -1.0047    4.2229 H         1 <0>         0.0961
     54 H20        10.5079   -2.9903    7.2152 H         1 <0>         0.1256
     55 H21         8.4172   -4.3232    7.4107 H         1 <0>         0.1321
     56 H22         7.4895   -6.5028    6.8059 H         1 <0>         0.1257
     57 H23         8.2318   -7.5999    4.7101 H         1 <0>         0.1241
     58 H24         9.9457   -6.5216    3.3372 H         1 <0>         0.1221
     59 H25        12.2646   -4.7367    4.1879 H         1 <0>         0.0627
     60 H26        11.2336   -5.0153    2.7813 H         1 <0>         0.1111
     61 H27        10.7992   -0.5780    7.1731 H         1 <0>         0.1386
     62 H28        13.6395    0.6207    4.2026 H         1 <0>         0.1357
     63 H29        13.0894   -1.3835    2.9222 H         1 <0>         0.1241
     64 H30         3.4232   -1.4474    1.8487 H         1 <0>         0.4184
@<TRIPOS>BOND
     1    1    6 ar
     2    1    2 ar
     3    1   35 1
     4    2    3 ar
     5    2   36 1
     6    3    4 ar
     7    3   37 1
     8    4    5 ar
     9    4    7 1
    10    5    6 ar
    11    5   38 1
    12    6   39 1
    13    7    8 1
    14    7   40 1
    15    7   41 1
    16    8   13 1
    17    8    9 1
    18    8   64 1
    19    9   10 1
    20    9   42 1
    21    9   43 1
    22   10   11 1
    23   10   44 1
    24   10   45 1
    25   11   12 1
    26   11   14 1
    27   12   13 1
    28   12   46 1
    29   12   47 1
    30   13   48 1
    31   13   49 1
    32   14   15 1
    33   14   50 1
    34   14   51 1
    35   15   16 1
    36   15   52 1
    37   15   53 1
    38   16   17 1
    39   17   27 1
    40   17   18 1
    41   17   54 1
    42   18   23 ar
    43   18   19 ar
    44   19   20 ar
    45   19   55 1
    46   20   21 ar
    47   20   56 1
    48   21   22 ar
    49   21   57 1
    50   22   23 ar
    51   22   58 1
    52   23   24 1
    53   24   25 1
    54   24   59 1
    55   24   60 1
    56   25   26 1
    57   26   31 ar
    58   26   27 ar
    59   27   28 ar
    60   28   29 ar
    61   28   61 1
    62   29   30 ar
    63   29   32 1
    64   30   31 ar
    65   30   62 1
    66   31   63 1
    67   32   33 2
    68   32   34 1
@<TRIPOS>MOLECULE
CHEMBL324670
   43    45     0     0     0
SMALL
USER_CHARGES

@<TRIPOS>ATOM
      1 C1         -0.0520    1.3090    0.2629 C.3       1 <0>        -0.1564
      2 C2          0.0571   -0.1974    0.0186 C.3       1 <0>         0.1245
      3 C3          0.9083   -0.4641   -1.2007 C.2       1 <0>         0.0216
      4 C4          1.9685   -1.1965   -0.7775 C.2       1 <0>        -0.2450
      5 C5          1.8387   -1.4152    0.6667 C.2       1 <0>         0.5076
      6 O1          2.6276   -2.0362    1.3522 O.2       1 <0>        -0.4267
      7 O2          0.7174   -0.8265    1.1207 O.3       1 <0>        -0.3007
      8 S1          3.2815   -1.7872   -1.7931 S.3       1 <0>         0.0686
      9 C6          3.1031   -3.5395   -1.7442 C.ar      1 <0>        -0.1062
     10 C7          2.0030   -4.1104   -1.1151 C.ar      1 <0>        -0.1164
     11 C8          1.8666   -5.4839   -1.0787 C.ar      1 <0>        -0.0999
     12 C9          2.8231   -6.2914   -1.6668 C.ar      1 <0>        -0.1165
     13 C10         3.9194   -5.7269   -2.2933 C.ar      1 <0>        -0.0997
     14 C11         4.0592   -4.3540   -2.3395 C.ar      1 <0>        -0.0944
     15 C12         0.6400   -0.0178   -2.5759 C.ar      1 <0>        -0.0012
     16 C13         0.6930    1.3430   -2.8967 C.ar      1 <0>        -0.1136
     17 C14         0.4401    1.7533   -4.1884 C.ar      1 <0>        -0.0201
     18 C15         0.1343    0.8230   -5.1666 C.ar      1 <0>        -0.6469
     19 C16         0.0794   -0.5250   -4.8574 C.ar      1 <0>        -0.0173
     20 C17         0.3359   -0.9522   -3.5718 C.ar      1 <0>        -0.0993
     21 S2         -0.1873    1.3578   -6.8144 S.o2      1 <0>         2.4975
     22 O3         -0.9256    0.2957   -7.4027 O.2       1 <0>        -0.9336
     23 O4         -0.7642    2.6484   -6.6707 O.2       1 <0>        -0.9331
     24 C18         1.4475    1.4869   -7.5900 C.3       1 <0>        -0.6493
     25 C19        -1.3364   -0.7999   -0.1712 C.3       1 <0>        -0.1510
     26 H1          0.9450    1.7285    0.3971 H         1 <0>         0.0726
     27 H2         -0.5330    1.7820   -0.5932 H         1 <0>         0.0896
     28 H3         -0.6458    1.4897    1.1589 H         1 <0>         0.0884
     29 H4          1.2560   -3.4805   -0.6551 H         1 <0>         0.1100
     30 H5          1.0120   -5.9282   -0.5901 H         1 <0>         0.1269
     31 H6          2.7140   -7.3655   -1.6364 H         1 <0>         0.1283
     32 H7          4.6647   -6.3606   -2.7508 H         1 <0>         0.1316
     33 H8          4.9130   -3.9137   -2.8330 H         1 <0>         0.1299
     34 H9          0.9311    2.0701   -2.1344 H         1 <0>         0.1407
     35 H10         0.4803    2.8034   -4.4375 H         1 <0>         0.1501
     36 H11        -0.1605   -1.2446   -5.6262 H         1 <0>         0.1526
     37 H12         0.2974   -2.0048   -3.3331 H         1 <0>         0.1375
     38 H13         1.9004    0.4973   -7.6501 H         1 <0>         0.1337
     39 H14         1.3420    1.8997   -8.5933 H         1 <0>         0.1355
     40 H15         2.0823    2.1414   -6.9928 H         1 <0>         0.1326
     41 H16        -1.8160   -0.3410   -1.0358 H         1 <0>         0.0886
     42 H17        -1.2489   -1.8744   -0.3321 H         1 <0>         0.0704
     43 H18        -1.9372   -0.6136    0.7190 H         1 <0>         0.0885
@<TRIPOS>BOND
     1    1    2 1
     2    1   26 1
     3    1   27 1
     4    1   28 1
     5    2    7 1
     6    2    3 1
     7    2   25 1
     8    3    4 2
     9    3   15 1
    10    4    5 1
    11    4    8 1
    12    5    6 2
    13    5    7 1
    14    8    9 1
    15    9   14 ar
    16    9   10 ar
    17   10   11 ar
    18   10   29 1
    19   11   12 ar
    20   11   30 1
    21   12   13 ar
    22   12   31 1
    23   13   14 ar
    24   13   32 1
    25   14   33 1
    26   15   20 ar
    27   15   16 ar
    28   16   17 ar
    29   16   34 1
    30   17   18 ar
    31   17   35 1
    32   18   19 ar
    33   18   21 1
    34   19   20 ar
    35   19   36 1
    36   20   37 1
    37   21   22 2
    38   21   23 2
    39   21   24 1
    40   24   38 1
    41   24   39 1
    42   24   40 1
    43   25   41 1
    44   25   42 1
    45   25   43 1
@<TRIPOS>MOLECULE
CHEMBL356510
   51    52     0     0     0
SMALL
USER_CHARGES

@<TRIPOS>ATOM
      1 C1         -0.0184    1.5028    0.0103 C.3       1 <0>        -0.0761
      2 C2          0.0021   -0.0041    0.0020 C.2       1 <0>         0.0743
      3 C3          0.0079   -0.8093   -1.1352 C.2       1 <0>        -0.2482
      4 C4          0.0282   -2.1258   -0.7159 C.2       1 <0>         0.1137
      5 N1          0.0344   -2.1105    0.6502 N.pl3     1 <0>        -0.4735
      6 H1          0.0480   -2.8874    1.2309 H         1 <0>         0.4374
      7 N2          0.0230   -0.7721    1.0619 N.2       1 <0>        -0.2874
      8 C5          0.0402   -3.3156   -1.5755 C.2       1 <0>        -0.0919
      9 C6          0.0599   -4.5433   -1.0249 C.2       1 <0>        -0.0892
     10 C7          0.0720   -5.7369   -1.8873 C.ar      1 <0>        -0.0656
     11 C8          0.0688   -5.5971   -3.2785 C.ar      1 <0>        -0.1010
     12 C9          0.0806   -6.7170   -4.0811 C.ar      1 <0>        -0.0892
     13 C10         0.0956   -7.9833   -3.5103 C.ar      1 <0>         0.1229
     14 C11         0.0989   -8.1274   -2.1288 C.ar      1 <0>        -0.0903
     15 C12         0.0925   -7.0136   -1.3176 C.ar      1 <0>        -0.0969
     16 C13         0.1152   -9.5042   -1.5161 C.3       1 <0>        -0.0214
     17 C14         0.1156   -9.3837    0.0091 C.3       1 <0>        -0.1473
     18 C15        -1.1259  -10.2775   -1.9663 C.3       1 <0>        -0.1421
     19 C16         1.3725  -10.2491   -1.9691 C.3       1 <0>        -0.1425
     20 O1          0.1068   -9.0845   -4.3059 O.3       1 <0>        -0.4849
     21 C17         0.0767   -6.5678   -5.5807 C.3       1 <0>        -0.0214
     22 C18         0.0590   -5.0820   -5.9454 C.3       1 <0>        -0.1481
     23 C19         1.3327   -7.2205   -6.1614 C.3       1 <0>        -0.1426
     24 C20        -1.1656   -7.2495   -6.1578 C.3       1 <0>        -0.1422
     25 H2          1.0042    1.8801    0.0026 H         1 <0>         0.0784
     26 H3         -0.5455    1.8639   -0.8728 H         1 <0>         0.0793
     27 H4         -0.5286    1.8543    0.9071 H         1 <0>         0.0737
     28 H5         -0.0021   -0.4665   -2.1593 H         1 <0>         0.1518
     29 H6          0.0332   -3.2056   -2.6499 H         1 <0>         0.1426
     30 H7          0.0669   -4.6532    0.0495 H         1 <0>         0.1155
     31 H8          0.0568   -4.6130   -3.7232 H         1 <0>         0.1339
     32 H9          0.0995   -7.1267   -0.2435 H         1 <0>         0.1316
     33 H10        -0.7801   -8.8529    0.3319 H         1 <0>         0.0583
     34 H11         0.1274  -10.3794    0.4523 H         1 <0>         0.0603
     35 H12         0.9997   -8.8327    0.3299 H         1 <0>         0.0576
     36 H13        -1.1261  -10.3633   -3.0529 H         1 <0>         0.0754
     37 H14        -1.1140  -11.2733   -1.5232 H         1 <0>         0.0547
     38 H15        -2.0216   -9.7468   -1.6435 H         1 <0>         0.0510
     39 H16         2.2566   -9.6982   -1.6484 H         1 <0>         0.0542
     40 H17         1.3843  -11.2449   -1.5260 H         1 <0>         0.0613
     41 H18         1.3722  -10.3349   -3.0558 H         1 <0>         0.0584
     42 H19         0.9934   -9.3934   -4.5376 H         1 <0>         0.3825
     43 H20         0.9440   -4.5964   -5.5343 H         1 <0>         0.0581
     44 H21         0.0561   -4.9741   -7.0300 H         1 <0>         0.0609
     45 H22        -0.8359   -4.6170   -5.5317 H         1 <0>         0.0588
     46 H23         1.3454   -8.2790   -5.9016 H         1 <0>         0.0581
     47 H24         1.3299   -7.1126   -7.2461 H         1 <0>         0.0615
     48 H25         2.2178   -6.7349   -5.7503 H         1 <0>         0.0544
     49 H26        -2.0604   -6.7845   -5.7441 H         1 <0>         0.0512
     50 H27        -1.1684   -7.1416   -7.2425 H         1 <0>         0.0549
     51 H28        -1.1529   -8.3080   -5.8980 H         1 <0>         0.0751
@<TRIPOS>BOND
     1    1    2 1
     2    1   25 1
     3    1   26 1
     4    1   27 1
     5    2    7 2
     6    2    3 1
     7    3    4 2
     8    3   28 1
     9    4    5 1
    10    4    8 1
    11    5    6 1
    12    5    7 1
    13    8    9 2
    14    8   29 1
    15    9   10 1
    16    9   30 1
    17   10   15 ar
    18   10   11 ar
    19   11   12 ar
    20   11   31 1
    21   12   13 ar
    22   12   21 1
    23   13   14 ar
    24   13   20 1
    25   14   15 ar
    26   14   16 1
    27   15   32 1
    28   16   17 1
    29   16   18 1
    30   16   19 1
    31   17   33 1
    32   17   34 1
    33   17   35 1
    34   18   36 1
    35   18   37 1
    36   18   38 1
    37   19   39 1
    38   19   40 1
    39   19   41 1
    40   20   42 1
    41   21   22 1
    42   21   23 1
    43   21   24 1
    44   22   43 1
    45   22   44 1
    46   22   45 1
    47   23   46 1
    48   23   47 1
    49   23   48 1
    50   24   49 1
    51   24   50 1
    52   24   51 1
@<TRIPOS>MOLECULE
CHEMBL356510__1
   51    52     0     0     0
SMALL
USER_CHARGES

@<TRIPOS>ATOM
      1 C1         -0.0184    1.5028    0.0103 C.3       1 <0>        -0.0956
      2 C2          0.0021   -0.0041    0.0020 C.2       1 <0>         0.0872
      3 C3          0.0233   -0.8026    1.0901 C.2       1 <0>        -0.2596
      4 C4          0.0367   -2.1417    0.6434 C.2       1 <0>         0.1070
      5 N1          0.0238   -2.1276   -0.6758 N.2       1 <0>        -0.2868
      6 H1         -0.0214   -0.4848   -2.0157 H         1 <0>         0.4384
      7 N2         -0.0035   -0.7916   -1.0956 N.pl3     1 <0>        -0.4733
      8 C5          0.0614   -3.3423    1.4988 C.2       1 <0>        -0.0846
      9 C6          0.0722   -4.5635    0.9414 C.2       1 <0>        -0.0752
     10 C7          0.0969   -5.7635    1.7964 C.ar      1 <0>        -0.0634
     11 C8          0.1033   -5.6327    3.1880 C.ar      1 <0>        -0.1028
     12 C9          0.1260   -6.7578    3.9834 C.ar      1 <0>        -0.0904
     13 C10         0.1424   -8.0202    3.4043 C.ar      1 <0>         0.1193
     14 C11         0.1362   -8.1551    2.0220 C.ar      1 <0>        -0.0911
     15 C12         0.1082   -7.0360    1.2184 C.ar      1 <0>        -0.0965
     16 C13         0.1546   -9.5277    1.4000 C.3       1 <0>        -0.0210
     17 C14         0.1432   -9.3970   -0.1243 C.3       1 <0>        -0.1473
     18 C15         1.4187  -10.2695    1.8388 C.3       1 <0>        -0.1416
     19 C16        -1.0794  -10.3100    1.8541 C.3       1 <0>        -0.1421
     20 O1          0.1652   -9.1265    4.1926 O.3       1 <0>        -0.4854
     21 C17         0.1334   -6.6183    5.4839 C.3       1 <0>        -0.0209
     22 C18         0.1126   -5.1349    5.8583 C.3       1 <0>        -0.1478
     23 C19        -1.1016   -7.3086    6.0664 C.3       1 <0>        -0.1422
     24 C20         1.3966   -7.2696    6.0504 C.3       1 <0>        -0.1419
     25 H2          1.0042    1.8801    0.0026 H         1 <0>         0.0825
     26 H3         -0.5455    1.8639   -0.8728 H         1 <0>         0.0719
     27 H4         -0.5286    1.8543    0.9071 H         1 <0>         0.0880
     28 H5          0.0294   -0.4753    2.1193 H         1 <0>         0.1499
     29 H6          0.0709   -3.2393    2.5738 H         1 <0>         0.1338
     30 H7          0.0628   -4.6665   -0.1336 H         1 <0>         0.1270
     31 H8          0.0909   -4.6516    3.6391 H         1 <0>         0.1334
     32 H9          0.0988   -7.1420    0.1436 H         1 <0>         0.1320
     33 H10         1.0223   -8.8397   -0.4478 H         1 <0>         0.0588
     34 H11         0.1565  -10.3897   -0.5742 H         1 <0>         0.0593
     35 H12        -0.7574   -8.8685   -0.4370 H         1 <0>         0.0581
     36 H13         1.4269  -10.3626    2.9248 H         1 <0>         0.0750
     37 H14         1.4321  -11.2622    1.3890 H         1 <0>         0.0538
     38 H15         2.2978   -9.7121    1.5153 H         1 <0>         0.0509
     39 H16        -1.9800   -9.7815    1.5415 H         1 <0>         0.0542
     40 H17        -1.0660  -11.3027    1.4042 H         1 <0>         0.0604
     41 H18        -1.0712  -10.4031    2.9401 H         1 <0>         0.0581
     42 H19        -0.7115   -9.4609    4.4265 H         1 <0>         0.3812
     43 H20        -0.7873   -4.6709    5.4546 H         1 <0>         0.0582
     44 H21         0.1180   -5.0340    6.9436 H         1 <0>         0.0598
     45 H22         0.9924   -4.6431    5.4433 H         1 <0>         0.0589
     46 H23        -1.0868   -8.3654    5.7997 H         1 <0>         0.0580
     47 H24        -1.0962   -7.2077    7.1517 H         1 <0>         0.0604
     48 H25        -2.0015   -6.8446    5.6628 H         1 <0>         0.0543
     49 H26         2.2763   -6.7778    5.6355 H         1 <0>         0.0511
     50 H27         1.4019   -7.1687    7.1357 H         1 <0>         0.0539
     51 H28         1.4113   -8.3264    5.7837 H         1 <0>         0.0749
@<TRIPOS>BOND
     1    1    2 1
     2    1   25 1
     3    1   26 1
     4    1   27 1
     5    2    3 2
     6    2    7 1
     7    3   28 1
     8    3    4 1
     9    4    8 1
    10    4    5 2
    11    5    7 1
    12    6    7 1
    13    8    9 2
    14    8   29 1
    15    9   10 1
    16    9   30 1
    17   10   15 ar
    18   10   11 ar
    19   11   12 ar
    20   11   31 1
    21   12   13 ar
    22   12   21 1
    23   13   14 ar
    24   13   20 1
    25   14   15 ar
    26   14   16 1
    27   15   32 1
    28   16   17 1
    29   16   18 1
    30   16   19 1
    31   17   33 1
    32   17   34 1
    33   17   35 1
    34   18   36 1
    35   18   37 1
    36   18   38 1
    37   19   39 1
    38   19   40 1
    39   19   41 1
    40   20   42 1
    41   21   22 1
    42   21   23 1
    43   21   24 1
    44   22   43 1
    45   22   44 1
    46   22   45 1
    47   23   46 1
    48   23   47 1
    49   23   48 1
    50   24   49 1
    51   24   50 1
    52   24   51 1
@<TRIPOS>MOLECULE
CHEMBL149278
   50    51     0     0     0
SMALL
USER_CHARGES

@<TRIPOS>ATOM
      1 C1         -0.0184    1.5028    0.0103 C.3       1 <0>        -0.0906
      2 C2          0.0021   -0.0041    0.0020 C.2       1 <0>         0.0748
      3 C3         -1.0764   -0.8051    0.0026 C.2       1 <0>        -0.2823
      4 C4         -0.6248   -2.1499   -0.0073 C.2       1 <0>         0.1404
      5 N1          0.6896   -2.1299   -0.0135 N.2       1 <0>        -0.3222
      6 O1          1.1010   -0.7748   -0.0131 O.3       1 <0>        -0.0787
      7 C5         -1.4763   -3.3532   -0.0094 C.2       1 <0>        -0.1130
      8 C6         -0.9148   -4.5730   -0.0192 C.2       1 <0>        -0.0456
      9 C7         -1.7657   -5.7755   -0.0213 C.ar      1 <0>        -0.0748
     10 C8         -3.1580   -5.6493   -0.0189 C.ar      1 <0>        -0.0968
     11 C9         -3.9497   -6.7768   -0.0213 C.ar      1 <0>        -0.0920
     12 C10        -3.3665   -8.0377   -0.0257 C.ar      1 <0>         0.1272
     13 C11        -1.9834   -8.1682   -0.0280 C.ar      1 <0>        -0.0922
     14 C12        -1.1835   -7.0465   -0.0314 C.ar      1 <0>        -0.0898
     15 C13        -1.3571   -9.5389   -0.0327 C.3       1 <0>        -0.0213
     16 C14         0.1669   -9.4032   -0.0346 C.3       1 <0>        -0.1481
     17 C15        -1.7993  -10.3060    1.2150 C.3       1 <0>        -0.1420
     18 C16        -1.8030  -10.2990   -1.2834 C.3       1 <0>        -0.1424
     19 O2         -4.1511   -9.1465   -0.0271 O.3       1 <0>        -0.4846
     20 C17        -5.4507   -6.6422   -0.0188 C.3       1 <0>        -0.0211
     21 C18        -5.8297   -5.1599   -0.0135 C.3       1 <0>        -0.1482
     22 C19        -6.0248   -7.3110   -1.2693 C.3       1 <0>        -0.1426
     23 C20        -6.0213   -7.3189    1.2292 C.3       1 <0>        -0.1423
     24 H1          1.0042    1.8801    0.0026 H         1 <0>         0.0855
     25 H2         -0.5455    1.8639   -0.8728 H         1 <0>         0.0966
     26 H3         -0.5286    1.8543    0.9071 H         1 <0>         0.0967
     27 H4         -2.1068   -0.4818    0.0097 H         1 <0>         0.1604
     28 H5         -2.5517   -3.2537   -0.0030 H         1 <0>         0.1416
     29 H6          0.1606   -4.6725   -0.0255 H         1 <0>         0.1296
     30 H7         -3.6123   -4.6695   -0.0148 H         1 <0>         0.1341
     31 H8         -0.1084   -7.1489   -0.0374 H         1 <0>         0.1340
     32 H9          0.4845   -8.8617    0.8565 H         1 <0>         0.0590
     33 H10         0.6199  -10.3946   -0.0380 H         1 <0>         0.0606
     34 H11         0.4819   -8.8567   -0.9235 H         1 <0>         0.0584
     35 H12        -2.8850  -10.4026    1.2163 H         1 <0>         0.0751
     36 H13        -1.3463  -11.2974    1.2116 H         1 <0>         0.0549
     37 H14        -1.4817   -9.7644    2.1060 H         1 <0>         0.0513
     38 H15        -1.4879   -9.7526   -2.1724 H         1 <0>         0.0545
     39 H16        -1.3499  -11.2904   -1.2869 H         1 <0>         0.0614
     40 H17        -2.8887  -10.3957   -1.2821 H         1 <0>         0.0581
     41 H18        -4.3799   -9.4653   -0.9110 H         1 <0>         0.3831
     42 H19        -5.4232   -4.6778   -0.9026 H         1 <0>         0.0580
     43 H20        -6.9154   -5.0625   -0.0117 H         1 <0>         0.0609
     44 H21        -5.4207   -4.6834    0.8774 H         1 <0>         0.0587
     45 H22        -5.7548   -8.3670   -1.2730 H         1 <0>         0.0582
     46 H23        -7.1105   -7.2136   -1.2675 H         1 <0>         0.0614
     47 H24        -5.6183   -6.8289   -2.1583 H         1 <0>         0.0545
     48 H25        -5.6122   -6.8424    2.1201 H         1 <0>         0.0513
     49 H26        -7.1069   -7.2215    1.2310 H         1 <0>         0.0549
     50 H27        -5.7512   -8.3749    1.2254 H         1 <0>         0.0753
@<TRIPOS>BOND
     1    1    2 1
     2    1   24 1
     3    1   25 1
     4    1   26 1
     5    2    6 1
     6    2    3 2
     7    3    4 1
     8    3   27 1
     9    4    5 2
    10    4    7 1
    11    5    6 1
    12    7    8 2
    13    7   28 1
    14    8    9 1
    15    8   29 1
    16    9   14 ar
    17    9   10 ar
    18   10   11 ar
    19   10   30 1
    20   11   12 ar
    21   11   20 1
    22   12   13 ar
    23   12   19 1
    24   13   14 ar
    25   13   15 1
    26   14   31 1
    27   15   16 1
    28   15   17 1
    29   15   18 1
    30   16   32 1
    31   16   33 1
    32   16   34 1
    33   17   35 1
    34   17   36 1
    35   17   37 1
    36   18   38 1
    37   18   39 1
    38   18   40 1
    39   19   41 1
    40   20   21 1
    41   20   22 1
    42   20   23 1
    43   21   42 1
    44   21   43 1
    45   21   44 1
    46   22   45 1
    47   22   46 1
    48   22   47 1
    49   23   48 1
    50   23   49 1
    51   23   50 1
@<TRIPOS>MOLECULE
CHEMBL18312
   46    49     0     0     0
SMALL
USER_CHARGES

@<TRIPOS>ATOM
      1 C1         -0.0187    1.5258    0.0104 C.3       1 <0>        -0.1759
      2 C2          0.0021   -0.0041    0.0020 C.3       1 <0>         0.3072
      3 C3         -1.4093   -0.5412    0.0478 C.2       1 <0>        -0.0310
      4 C4         -1.5026   -1.2814    1.1885 C.2       1 <0>        -0.1236
      5 C5         -0.2068   -1.2402    1.8762 C.2       1 <0>         0.5140
      6 O1          0.0441   -1.7995    2.9259 O.2       1 <0>        -0.4247
      7 O2          0.6620   -0.4917    1.1735 O.3       1 <0>        -0.3309
      8 C6         -2.7074   -2.0042    1.6551 C.ar      1 <0>        -0.0377
      9 C7         -3.8595   -1.2820    2.0113 C.ar      1 <0>        -0.0989
     10 C8         -4.9768   -1.9215    2.4420 C.ar      1 <0>        -0.1000
     11 C9         -4.9919   -3.3252    2.5360 C.ar      1 <0>        -0.0436
     12 C10        -6.1362   -4.0097    2.9784 C.ar      1 <0>        -0.1087
     13 C11        -6.1208   -5.3687    3.0586 C.ar      1 <0>        -0.1093
     14 C12        -4.9846   -6.0957    2.7083 C.ar      1 <0>        -0.1144
     15 C13        -3.8575   -5.4677    2.2755 C.ar      1 <0>        -0.1018
     16 C14        -3.8359   -4.0647    2.1791 C.ar      1 <0>        -0.0509
     17 C15        -2.6923   -3.3859    1.7316 C.ar      1 <0>        -0.0674
     18 C16        -2.4708   -0.3110   -0.9410 C.ar      1 <0>         0.0102
     19 C17        -2.3406   -0.8099   -2.2424 C.ar      1 <0>        -0.1014
     20 C18        -3.3418   -0.5897   -3.1641 C.ar      1 <0>        -0.0224
     21 C19        -4.4735    0.1224   -2.8057 C.ar      1 <0>        -0.6493
     22 C20        -4.6100    0.6196   -1.5210 C.ar      1 <0>        -0.0220
     23 C21        -3.6209    0.4035   -0.5854 C.ar      1 <0>        -0.1141
     24 S1         -5.7472    0.3980   -3.9916 S.o2      1 <0>         2.4978
     25 O3         -6.3925    1.5884   -3.5606 O.2       1 <0>        -0.9344
     26 O4         -5.0887    0.3458   -5.2497 O.2       1 <0>        -0.9340
     27 C22        -6.8656   -1.0189   -3.8124 C.3       1 <0>        -0.6498
     28 O5          0.6697   -0.4779   -1.1692 O.3       1 <0>        -0.5277
     29 H1          1.0039    1.9031    0.0027 H         1 <0>         0.0880
     30 H2         -0.5459    1.8868   -0.8726 H         1 <0>         0.0949
     31 H3         -0.5289    1.8773    0.9072 H         1 <0>         0.0825
     32 H4         -3.8556   -0.2042    1.9418 H         1 <0>         0.1254
     33 H5         -5.8540   -1.3527    2.7128 H         1 <0>         0.1339
     34 H6         -7.0241   -3.4603    3.2541 H         1 <0>         0.1296
     35 H7         -7.0024   -5.8913    3.3991 H         1 <0>         0.1258
     36 H8         -4.9986   -7.1731    2.7818 H         1 <0>         0.1261
     37 H9         -2.9840   -6.0436    2.0077 H         1 <0>         0.1291
     38 H10        -1.8062   -3.9370    1.4529 H         1 <0>         0.1299
     39 H11        -1.4582   -1.3654   -2.5237 H         1 <0>         0.1440
     40 H12        -3.2429   -0.9736   -4.1687 H         1 <0>         0.1492
     41 H13        -5.4960    1.1744   -1.2496 H         1 <0>         0.1493
     42 H14        -3.7311    0.7879    0.4178 H         1 <0>         0.1377
     43 H15        -7.2594   -1.0447   -2.7964 H         1 <0>         0.1323
     44 H16        -7.6898   -0.9229   -4.5192 H         1 <0>         0.1351
     45 H17        -6.3195   -1.9405   -4.0140 H         1 <0>         0.1324
     46 H18         1.5848   -0.1760   -1.2496 H         1 <0>         0.3996
@<TRIPOS>BOND
     1    1    2 1
     2    1   29 1
     3    1   30 1
     4    1   31 1
     5    2    7 1
     6    2    3 1
     7    2   28 1
     8    3    4 2
     9    3   18 1
    10    4    5 1
    11    4    8 1
    12    5    6 2
    13    5    7 1
    14    8   17 ar
    15    8    9 ar
    16    9   10 ar
    17    9   32 1
    18   10   11 ar
    19   10   33 1
    20   11   16 ar
    21   11   12 ar
    22   12   13 ar
    23   12   34 1
    24   13   14 ar
    25   13   35 1
    26   14   15 ar
    27   14   36 1
    28   15   16 ar
    29   15   37 1
    30   16   17 ar
    31   17   38 1
    32   18   23 ar
    33   18   19 ar
    34   19   20 ar
    35   19   39 1
    36   20   21 ar
    37   20   40 1
    38   21   22 ar
    39   21   24 1
    40   22   23 ar
    41   22   41 1
    42   23   42 1
    43   24   25 2
    44   24   26 2
    45   24   27 1
    46   27   43 1
    47   27   44 1
    48   27   45 1
    49   28   46 1
@<TRIPOS>MOLECULE
CHEMBL18312__1
   46    49     0     0     0
SMALL
USER_CHARGES

@<TRIPOS>ATOM
      1 C1         -0.0187    1.5258    0.0104 C.3       1 <0>        -0.1808
      2 C2          0.0021   -0.0041    0.0020 C.3       1 <0>         0.3068
      3 C3          0.7373   -0.5052   -1.2190 C.2       1 <0>        -0.0329
      4 C4          1.7992   -1.2259   -0.7600 C.2       1 <0>        -0.1230
      5 C5          1.7741   -1.2069    0.7072 C.2       1 <0>         0.5141
      6 O1          2.5852   -1.7574    1.4261 O.2       1 <0>        -0.4244
      7 O2          0.7207   -0.4907    1.1388 O.3       1 <0>        -0.3306
      8 C6          2.8072   -1.9123   -1.5995 C.ar      1 <0>        -0.0383
      9 C7          2.4167   -2.9829   -2.4225 C.ar      1 <0>        -0.0975
     10 C8          3.3219   -3.6283   -3.2015 C.ar      1 <0>        -0.1002
     11 C9          4.6706   -3.2277   -3.1923 C.ar      1 <0>        -0.0427
     12 C10         5.6258   -3.8797   -3.9899 C.ar      1 <0>        -0.1086
     13 C11         6.9235   -3.4691   -3.9600 C.ar      1 <0>        -0.1091
     14 C12         7.3227   -2.4091   -3.1481 C.ar      1 <0>        -0.1145
     15 C13         6.4261   -1.7535   -2.3618 C.ar      1 <0>        -0.1018
     16 C14         5.0764   -2.1489   -2.3665 C.ar      1 <0>        -0.0517
     17 C15         4.1251   -1.4911   -1.5720 C.ar      1 <0>        -0.0674
     18 C16         0.3791   -0.2631   -2.6228 C.ar      1 <0>         0.0181
     19 C17         0.4254    1.0339   -3.1474 C.ar      1 <0>        -0.1194
     20 C18         0.0880    1.2522   -4.4660 C.ar      1 <0>        -0.0195
     21 C19        -0.2958    0.1933   -5.2708 C.ar      1 <0>        -0.6510
     22 C20        -0.3447   -1.0923   -4.7598 C.ar      1 <0>        -0.0183
     23 C21        -0.0050   -1.3290   -3.4450 C.ar      1 <0>        -0.1075
     24 S1         -0.7250    0.4835   -6.9549 S.o2      1 <0>         2.4981
     25 O3         -1.6100   -0.5760   -7.2913 O.2       1 <0>        -0.9338
     26 O4         -1.1657    1.8340   -6.9891 O.2       1 <0>        -0.9344
     27 C22         0.8322    0.3111   -7.8692 C.3       1 <0>        -0.6498
     28 O5         -1.3337   -0.5116    0.0131 O.3       1 <0>        -0.5257
     29 H1          1.0039    1.9031    0.0027 H         1 <0>         0.0835
     30 H2         -0.5459    1.8868   -0.8726 H         1 <0>         0.0967
     31 H3         -0.5289    1.8773    0.9072 H         1 <0>         0.0892
     32 H4          1.3833   -3.2962   -2.4350 H         1 <0>         0.1260
     33 H5          3.0068   -4.4496   -3.8280 H         1 <0>         0.1341
     34 H6          5.3320   -4.7032   -4.6239 H         1 <0>         0.1297
     35 H7          7.6548   -3.9729   -4.5747 H         1 <0>         0.1258
     36 H8          8.3586   -2.1039   -3.1425 H         1 <0>         0.1261
     37 H9          6.7494   -0.9339   -1.7372 H         1 <0>         0.1291
     38 H10         4.4197   -0.6654   -0.9412 H         1 <0>         0.1301
     39 H11         0.7243    1.8612   -2.5207 H         1 <0>         0.1390
     40 H12         0.1228    2.2523   -4.8723 H         1 <0>         0.1497
     41 H13        -0.6455   -1.9129   -5.3943 H         1 <0>         0.1498
     42 H14        -0.0391   -2.3333   -3.0491 H         1 <0>         0.1381
     43 H15         1.2308   -0.6927   -7.7219 H         1 <0>         0.1325
     44 H16         0.6505    0.4777   -8.9309 H         1 <0>         0.1351
     45 H17         1.5511    1.0446   -7.5041 H         1 <0>         0.1323
     46 H18        -1.8537   -0.2338    0.7795 H         1 <0>         0.3992
@<TRIPOS>BOND
     1    1    2 1
     2    1   29 1
     3    1   30 1
     4    1   31 1
     5    2    7 1
     6    2    3 1
     7    2   28 1
     8    3    4 2
     9    3   18 1
    10    4    5 1
    11    4    8 1
    12    5    6 2
    13    5    7 1
    14    8   17 ar
    15    8    9 ar
    16    9   10 ar
    17    9   32 1
    18   10   11 ar
    19   10   33 1
    20   11   16 ar
    21   11   12 ar
    22   12   13 ar
    23   12   34 1
    24   13   14 ar
    25   13   35 1
    26   14   15 ar
    27   14   36 1
    28   15   16 ar
    29   15   37 1
    30   16   17 ar
    31   17   38 1
    32   18   23 ar
    33   18   19 ar
    34   19   20 ar
    35   19   39 1
    36   20   21 ar
    37   20   40 1
    38   21   22 ar
    39   21   24 1
    40   22   23 ar
    41   22   41 1
    42   23   42 1
    43   24   25 2
    44   24   26 2
    45   24   27 1
    46   27   43 1
    47   27   44 1
    48   27   45 1
    49   28   46 1
@<TRIPOS>MOLECULE
CHEMBL270294
   40    42     0     0     0
SMALL
USER_CHARGES

@<TRIPOS>ATOM
      1 C1         -0.0225    1.8097    0.0120 C.3       1 <0>        -0.6493
      2 S1          0.0021   -0.0041    0.0020 S.o2      1 <0>         2.4981
      3 O1          0.8352   -0.4880    1.0465 O.2       1 <0>        -0.9327
      4 O2         -1.3147   -0.5105   -0.1678 O.2       1 <0>        -0.9335
      5 C2          0.8454   -0.4373   -1.4831 C.ar      1 <0>        -0.6393
      6 C3          0.1315   -0.6121   -2.6550 C.ar      1 <0>        -0.0324
      7 C4          0.7868   -0.9515   -3.8212 C.ar      1 <0>        -0.0889
      8 C5          2.1706   -1.1181   -3.8167 C.ar      1 <0>         0.0008
      9 C6          2.8847   -0.9407   -2.6331 C.ar      1 <0>        -0.0866
     10 C7          2.2196   -0.5958   -1.4740 C.ar      1 <0>        -0.0306
     11 C8          2.8804   -1.4832   -5.0668 C.ar      1 <0>         0.3831
     12 N1          4.1965   -1.6423   -5.0400 N.ar      1 <0>        -0.4778
     13 C9          4.8654   -1.9686   -6.1353 C.ar      1 <0>         0.1123
     14 C10         4.1774   -2.1447   -7.3206 C.ar      1 <0>        -0.1580
     15 C11         2.7906   -1.9705   -7.3188 C.ar      1 <0>         0.1706
     16 N2          2.1827   -1.6478   -6.1816 N.ar      1 <0>        -0.4984
     17 S2          1.8611   -2.1820   -8.8007 S.3       1 <0>         0.0023
     18 C12         0.1497   -1.8556   -8.2956 C.3       1 <0>        -0.0176
     19 C13        -0.7625   -2.0047   -9.4859 C.2       1 <0>        -0.1600
     20 C14        -1.4115   -3.1083   -9.9310 C.2       1 <0>        -0.1225
     21 C15        -2.2058   -3.0100  -11.0580 C.2       1 <0>        -0.1629
     22 C16        -2.3122   -1.8128  -11.6848 C.2       1 <0>        -0.1562
     23 S3         -1.2750   -0.7718  -10.6710 S.3       1 <0>         0.0619
     24 C17         6.3613   -2.1455   -6.0896 C.3       1 <0>         0.5269
     25 F1          6.8048   -2.0268   -4.7681 F         1 <0>        -0.1540
     26 F2          6.6964   -3.4114   -6.5820 F         1 <0>        -0.1621
     27 F3          6.9714   -1.1626   -6.8763 F         1 <0>        -0.1622
     28 H1          1.0001    2.1870    0.0043 H         1 <0>         0.1330
     29 H2         -0.5497    2.1708   -0.8711 H         1 <0>         0.1325
     30 H3         -0.5327    2.1613    0.9088 H         1 <0>         0.1354
     31 H4         -0.9407   -0.4831   -2.6572 H         1 <0>         0.1508
     32 H5          0.2284   -1.0881   -4.7355 H         1 <0>         0.1458
     33 H6          3.9571   -1.0685   -2.6239 H         1 <0>         0.1505
     34 H7          2.7724   -0.4538   -0.5572 H         1 <0>         0.1519
     35 H8          4.6995   -2.4106   -8.2279 H         1 <0>         0.1694
     36 H9         -0.1428   -2.5661   -7.5225 H         1 <0>         0.1193
     37 H10         0.0735   -0.8411   -7.9043 H         1 <0>         0.1126
     38 H11        -1.3092   -4.0505   -9.4131 H         1 <0>         0.1378
     39 H12        -2.7334   -3.8742  -11.4338 H         1 <0>         0.1395
     40 H13        -2.8803   -1.5548  -12.5663 H         1 <0>         0.1904
@<TRIPOS>BOND
     1    1    2 1
     2    1   28 1
     3    1   29 1
     4    1   30 1
     5    2    3 2
     6    2    4 2
     7    2    5 1
     8    5   10 ar
     9    5    6 ar
    10    6    7 ar
    11    6   31 1
    12    7    8 ar
    13    7   32 1
    14    8    9 ar
    15    8   11 1
    16    9   10 ar
    17    9   33 1
    18   10   34 1
    19   11   16 ar
    20   11   12 ar
    21   12   13 ar
    22   13   14 ar
    23   13   24 1
    24   14   15 ar
    25   14   35 1
    26   15   16 ar
    27   15   17 1
    28   17   18 1
    29   18   19 1
    30   18   36 1
    31   18   37 1
    32   19   23 1
    33   19   20 2
    34   20   21 1
    35   20   38 1
    36   21   22 2
    37   21   39 1
    38   22   23 1
    39   22   40 1
    40   24   25 1
    41   24   26 1
    42   24   27 1
@<TRIPOS>MOLECULE
CHEMBL431075
   63    68     0     0     0
SMALL
USER_CHARGES

@<TRIPOS>ATOM
      1 C1         -0.5335    2.3788    1.0823 C.ar      1 <0>        -0.1121
      2 C2          0.6989    2.9960    0.9765 C.ar      1 <0>        -0.1227
      3 C3          1.8370    2.2373    0.7766 C.ar      1 <0>        -0.1010
      4 C4          1.7428    0.8613    0.6830 C.ar      1 <0>        -0.1107
      5 C5          0.5105    0.2440    0.7897 C.ar      1 <0>        -0.0994
      6 C6         -0.6278    1.0029    0.9882 C.ar      1 <0>        -0.1208
      7 C7          2.9834    0.0342    0.4641 C.3       1 <0>         0.1623
      8 N1          3.5567   -0.3385    1.7597 N.am      1 <0>        -0.7246
      9 C8          4.6781   -1.0844    1.8109 C.2       1 <0>         0.5678
     10 O1          5.2138   -1.4479    0.7819 O.2       1 <0>        -0.5384
     11 C9          5.2560   -1.4601    3.1170 C.ar      1 <0>        -0.1542
     12 C10         4.6336   -1.0448    4.3019 C.ar      1 <0>        -0.0743
     13 C11         5.1579   -1.3851    5.5146 C.ar      1 <0>        -0.1095
     14 C12         6.3176   -2.1495    5.5844 C.ar      1 <0>         0.0725
     15 C13         6.9552   -2.5753    4.4048 C.ar      1 <0>         0.0346
     16 C14         6.4136   -2.2301    3.1675 C.ar      1 <0>         0.0096
     17 N2          8.0458   -3.2928    4.7814 N.2       1 <0>        -0.4892
     18 C15         8.1143   -3.3321    6.0796 C.2       1 <0>         0.2713
     19 N3          7.0743   -2.6438    6.6245 N.pl3     1 <0>        -0.4806
     20 C16         6.8084   -2.4619    8.0536 C.3       1 <0>         0.1372
     21 C17         5.8371   -3.5148    8.5218 C.2       1 <0>        -0.1751
     22 C18         6.1375   -4.2801    9.5779 C.2       1 <0>         0.0028
     23 C19         7.3363   -3.9661   10.3905 C.ar      1 <0>        -0.0359
     24 C20         7.5534   -2.6099   10.6800 C.ar      1 <0>        -0.1138
     25 C21         8.6409   -2.2149   11.4237 C.ar      1 <0>        -0.1196
     26 C22         9.5287   -3.1685   11.8899 C.ar      1 <0>        -0.1126
     27 C23         9.3189   -4.5000   11.6103 C.ar      1 <0>        -0.1198
     28 C24         8.2204   -4.9197   10.8587 C.ar      1 <0>        -0.0973
     29 C25         8.1242   -6.4077   10.6462 C.3       1 <0>         0.1150
     30 O2          7.1774   -6.8074    9.6892 O.3       1 <0>        -0.3228
     31 C26         5.8598   -6.6882    9.9328 C.ar      1 <0>         0.0997
     32 C27         5.2631   -5.4263    9.9221 C.ar      1 <0>        -0.1087
     33 C28         3.9207   -5.2596   10.2114 C.ar      1 <0>        -0.0488
     34 C29         3.1436   -6.3875   10.5016 C.ar      1 <0>        -0.1338
     35 C30         3.7322   -7.6572   10.4927 C.ar      1 <0>        -0.0656
     36 C31         5.0843   -7.8110   10.2067 C.ar      1 <0>        -0.1465
     37 C32         1.7125   -6.2383   10.8155 C.2       1 <0>         0.5208
     38 O3          1.2005   -5.1273   10.8230 O.co2     1 <0>        -0.6846
     39 O4          1.0357   -7.2254   11.0687 O.co2     1 <0>        -0.6834
     40 H1         -1.4221    2.9712    1.2429 H         1 <0>         0.1230
     41 H2          0.7725    4.0710    1.0497 H         1 <0>         0.1236
     42 H3          2.7998    2.7195    0.6933 H         1 <0>         0.1240
     43 H4          0.4369   -0.8309    0.7162 H         1 <0>         0.1255
     44 H5         -1.5906    0.5207    1.0711 H         1 <0>         0.1249
     45 H6          2.7257   -0.8671   -0.0920 H         1 <0>         0.0780
     46 H7          3.7118    0.6147   -0.1020 H         1 <0>         0.0775
     47 H8          3.1292   -0.0485    2.5807 H         1 <0>         0.4020
     48 H9          3.7327   -0.4510    4.2547 H         1 <0>         0.1304
     49 H10         4.6715   -1.0598    6.4223 H         1 <0>         0.1295
     50 H11         6.8915   -2.5543    2.2549 H         1 <0>         0.1429
     51 H12         8.8845   -3.8374    6.6433 H         1 <0>         0.2127
     52 H13         7.7405   -2.5538    8.6112 H         1 <0>         0.1114
     53 H14         6.3810   -1.4733    8.2207 H         1 <0>         0.0989
     54 H15         4.8987   -3.6517    8.0051 H         1 <0>         0.1297
     55 H16         6.8588   -1.8681   10.3143 H         1 <0>         0.1269
     56 H17         8.8008   -1.1693   11.6416 H         1 <0>         0.1273
     57 H18        10.3867   -2.8680   12.4730 H         1 <0>         0.1250
     58 H19        10.0189   -5.2348   11.9797 H         1 <0>         0.1248
     59 H20         9.1026   -6.7752   10.3367 H         1 <0>         0.1131
     60 H21         7.8706   -6.8755   11.5975 H         1 <0>         0.0645
     61 H22         3.4786   -4.2742   10.2130 H         1 <0>         0.1340
     62 H23         3.1302   -8.5278   10.7073 H         1 <0>         0.1349
     63 H24         5.5336   -8.7931   10.2021 H         1 <0>         0.1276
@<TRIPOS>BOND
     1    1    6 ar
     2    1    2 ar
     3    1   40 1
     4    2    3 ar
     5    2   41 1
     6    3    4 ar
     7    3   42 1
     8    4    5 ar
     9    4    7 1
    10    5    6 ar
    11    5   43 1
    12    6   44 1
    13    7    8 1
    14    7   45 1
    15    7   46 1
    16    8    9 am
    17    8   47 1
    18    9   10 2
    19    9   11 1
    20   11   16 ar
    21   11   12 ar
    22   12   13 ar
    23   12   48 1
    24   13   14 ar
    25   13   49 1
    26   14   19 1
    27   14   15 ar
    28   15   16 ar
    29   15   17 1
    30   16   50 1
    31   17   18 2
    32   18   19 1
    33   18   51 1
    34   19   20 1
    35   20   21 1
    36   20   52 1
    37   20   53 1
    38   21   22 2
    39   21   54 1
    40   22   32 1
    41   22   23 1
    42   23   28 ar
    43   23   24 ar
    44   24   25 ar
    45   24   55 1
    46   25   26 ar
    47   25   56 1
    48   26   27 ar
    49   26   57 1
    50   27   28 ar
    51   27   58 1
    52   28   29 1
    53   29   30 1
    54   29   59 1
    55   29   60 1
    56   30   31 1
    57   31   36 ar
    58   31   32 ar
    59   32   33 ar
    60   33   34 ar
    61   33   61 1
    62   34   35 ar
    63   34   37 1
    64   35   36 ar
    65   35   62 1
    66   36   63 1
    67   37   38 2
    68   37   39 1
@<TRIPOS>MOLECULE
CHEMBL270723
   43    45     0     0     0
SMALL
USER_CHARGES

@<TRIPOS>ATOM
      1 C1         -0.0225    1.8097    0.0120 C.3       1 <0>        -0.6493
      2 S1          0.0021   -0.0041    0.0020 S.o2      1 <0>         2.4982
      3 O1          0.8352   -0.4880    1.0465 O.2       1 <0>        -0.9327
      4 O2         -1.3147   -0.5105   -0.1678 O.2       1 <0>        -0.9335
      5 C2          0.8454   -0.4373   -1.4831 C.ar      1 <0>        -0.6395
      6 C3          0.1315   -0.6121   -2.6550 C.ar      1 <0>        -0.0324
      7 C4          0.7868   -0.9515   -3.8212 C.ar      1 <0>        -0.0889
      8 C5          2.1706   -1.1181   -3.8167 C.ar      1 <0>         0.0013
      9 C6          2.8847   -0.9407   -2.6331 C.ar      1 <0>        -0.0869
     10 C7          2.2196   -0.5958   -1.4740 C.ar      1 <0>        -0.0307
     11 C8          2.8804   -1.4832   -5.0668 C.ar      1 <0>         0.3820
     12 N1          4.1965   -1.6423   -5.0400 N.ar      1 <0>        -0.4788
     13 C9          4.8654   -1.9686   -6.1353 C.ar      1 <0>         0.1114
     14 C10         4.1774   -2.1447   -7.3206 C.ar      1 <0>        -0.1591
     15 C11         2.7906   -1.9705   -7.3188 C.ar      1 <0>         0.1705
     16 N2          2.1827   -1.6478   -6.1816 N.ar      1 <0>        -0.4975
     17 S2          1.8611   -2.1820   -8.8007 S.3       1 <0>        -0.0041
     18 C12         0.1497   -1.8556   -8.2956 C.3       1 <0>        -0.0627
     19 C13        -0.7625   -2.0047   -9.4859 C.ar      1 <0>        -0.0885
     20 C14        -1.0309   -0.9142  -10.2919 C.ar      1 <0>        -0.0981
     21 C15        -1.8676   -1.0509  -11.3837 C.ar      1 <0>        -0.1189
     22 C16        -2.4356   -2.2783  -11.6698 C.ar      1 <0>        -0.1072
     23 C17        -2.1665   -3.3690  -10.8643 C.ar      1 <0>        -0.1186
     24 C18        -1.3263   -3.2333   -9.7750 C.ar      1 <0>        -0.0978
     25 C19         6.3613   -2.1455   -6.0896 C.3       1 <0>         0.5269
     26 F1          6.8048   -2.0268   -4.7681 F         1 <0>        -0.1542
     27 F2          6.6964   -3.4114   -6.5820 F         1 <0>        -0.1623
     28 F3          6.9714   -1.1626   -6.8763 F         1 <0>        -0.1624
     29 H1          1.0001    2.1870    0.0043 H         1 <0>         0.1329
     30 H2         -0.5497    2.1708   -0.8711 H         1 <0>         0.1324
     31 H3         -0.5327    2.1613    0.9088 H         1 <0>         0.1354
     32 H4         -0.9407   -0.4831   -2.6572 H         1 <0>         0.1507
     33 H5          0.2284   -1.0881   -4.7355 H         1 <0>         0.1457
     34 H6          3.9571   -1.0685   -2.6239 H         1 <0>         0.1504
     35 H7          2.7724   -0.4538   -0.5572 H         1 <0>         0.1518
     36 H8          4.6995   -2.4106   -8.2279 H         1 <0>         0.1688
     37 H9         -0.1428   -2.5661   -7.5225 H         1 <0>         0.1068
     38 H10         0.0735   -0.8411   -7.9043 H         1 <0>         0.1065
     39 H11        -0.5872    0.0448  -10.0683 H         1 <0>         0.1258
     40 H12        -2.0779   -0.1988  -12.0130 H         1 <0>         0.1272
     41 H13        -3.0899   -2.3850  -12.5224 H         1 <0>         0.1261
     42 H14        -2.6104   -4.3279  -11.0877 H         1 <0>         0.1273
     43 H15        -1.1131   -4.0863   -9.1479 H         1 <0>         0.1260
@<TRIPOS>BOND
     1    1    2 1
     2    1   29 1
     3    1   30 1
     4    1   31 1
     5    2    3 2
     6    2    4 2
     7    2    5 1
     8    5   10 ar
     9    5    6 ar
    10    6    7 ar
    11    6   32 1
    12    7    8 ar
    13    7   33 1
    14    8    9 ar
    15    8   11 1
    16    9   10 ar
    17    9   34 1
    18   10   35 1
    19   11   16 ar
    20   11   12 ar
    21   12   13 ar
    22   13   14 ar
    23   13   25 1
    24   14   15 ar
    25   14   36 1
    26   15   16 ar
    27   15   17 1
    28   17   18 1
    29   18   19 1
    30   18   37 1
    31   18   38 1
    32   19   24 ar
    33   19   20 ar
    34   20   21 ar
    35   20   39 1
    36   21   22 ar
    37   21   40 1
    38   22   23 ar
    39   22   41 1
    40   23   24 ar
    41   23   42 1
    42   24   43 1
    43   25   26 1
    44   25   27 1
    45   25   28 1
@<TRIPOS>MOLECULE
CHEMBL423576
   38    41     0     0     0
SMALL
USER_CHARGES

@<TRIPOS>ATOM
      1 C1         -0.0225    1.8097    0.0120 C.3       1 <0>        -0.6498
      2 S1          0.0021   -0.0041    0.0020 S.o2      1 <0>         2.4976
      3 O1          0.8352   -0.4880    1.0465 O.2       1 <0>        -0.9334
      4 O2         -1.3147   -0.5105   -0.1678 O.2       1 <0>        -0.9352
      5 C2          0.8454   -0.4373   -1.4831 C.ar      1 <0>        -0.6548
      6 C3          0.1304   -0.6120   -2.6551 C.ar      1 <0>        -0.0160
      7 C4          0.7836   -0.9516   -3.8212 C.ar      1 <0>        -0.1297
      8 C5          2.1711   -1.1188   -3.8176 C.ar      1 <0>         0.0340
      9 C6          2.8865   -0.9403   -2.6304 C.ar      1 <0>        -0.1126
     10 C7          2.2202   -0.5957   -1.4731 C.ar      1 <0>        -0.0162
     11 C8          2.8769   -1.4824   -5.0605 C.2       1 <0>         0.0261
     12 C9          4.0478   -0.9238   -5.5327 C.2       1 <0>         0.1093
     13 N1          4.3554   -1.5342   -6.6911 N.2       1 <0>        -0.4260
     14 C10         3.4483   -2.4305   -6.9587 C.2       1 <0>         0.1868
     15 N2          2.4894   -2.4625   -5.9804 N.pl3     1 <0>        -0.4188
     16 C11         1.4685   -3.3737   -6.1362 C.2       1 <0>         0.0206
     17 C12         1.4309   -4.1822   -7.1945 C.2       1 <0>        -0.1641
     18 S2          2.8943   -3.6862   -8.0900 S.3       1 <0>         0.1497
     19 C13         4.8258    0.1552   -4.8806 C.ar      1 <0>         0.0064
     20 C14         4.1682    1.1656   -4.1791 C.ar      1 <0>        -0.0819
     21 C15         4.8960    2.1689   -3.5731 C.ar      1 <0>        -0.1227
     22 C16         6.2784    2.1748   -3.6599 C.ar      1 <0>         0.0784
     23 C17         6.9382    1.1726   -4.3567 C.ar      1 <0>         0.0721
     24 C18         6.2178    0.1605   -4.9614 C.ar      1 <0>        -0.0929
     25 F1          8.2867    1.1834   -4.4392 F         1 <0>        -0.1228
     26 F2          6.9865    3.1595   -3.0647 F         1 <0>        -0.1236
     27 H1          1.0001    2.1870    0.0043 H         1 <0>         0.1332
     28 H2         -0.5497    2.1708   -0.8711 H         1 <0>         0.1324
     29 H3         -0.5327    2.1613    0.9088 H         1 <0>         0.1352
     30 H4         -0.9418   -0.4825   -2.6563 H         1 <0>         0.1484
     31 H5          0.2242   -1.0883   -4.7349 H         1 <0>         0.1320
     32 H6          3.9588   -1.0682   -2.6201 H         1 <0>         0.1395
     33 H7          2.7722   -0.4534   -0.5558 H         1 <0>         0.1507
     34 H8          0.6890   -3.4338   -5.3911 H         1 <0>         0.1769
     35 H9          0.7019   -4.9378   -7.4476 H         1 <0>         0.2226
     36 H10         3.0904    1.1629   -4.1106 H         1 <0>         0.1415
     37 H11         4.3868    2.9515   -3.0302 H         1 <0>         0.1527
     38 H12         6.7316   -0.6223   -5.4997 H         1 <0>         0.1542
@<TRIPOS>BOND
     1    1    2 1
     2    1   27 1
     3    1   28 1
     4    1   29 1
     5    2    3 2
     6    2    4 2
     7    2    5 1
     8    5   10 ar
     9    5    6 ar
    10    6    7 ar
    11    6   30 1
    12    7    8 ar
    13    7   31 1
    14    8    9 ar
    15    8   11 1
    16    9   10 ar
    17    9   32 1
    18   10   33 1
    19   11   15 1
    20   11   12 2
    21   12   13 1
    22   12   19 1
    23   13   14 2
    24   14   18 1
    25   14   15 1
    26   15   16 1
    27   16   17 2
    28   16   34 1
    29   17   18 1
    30   17   35 1
    31   19   24 ar
    32   19   20 ar
    33   20   21 ar
    34   20   36 1
    35   21   22 ar
    36   21   37 1
    37   22   23 ar
    38   22   26 1
    39   23   24 ar
    40   23   25 1
    41   24   38 1
@<TRIPOS>MOLECULE
CHEMBL344837
   37    40     0     0     0
SMALL
USER_CHARGES

@<TRIPOS>ATOM
      1 C1         -0.1525    1.1157   -0.1907 C.ar      1 <0>        -0.1246
      2 C2          0.3013    0.4104   -1.2908 C.ar      1 <0>        -0.1198
      3 C3          1.5406   -0.1962   -1.2616 C.ar      1 <0>        -0.1133
      4 C4          2.3355   -0.0968   -0.1211 C.ar      1 <0>        -0.0005
      5 C5          1.8733    0.6155    0.9842 C.ar      1 <0>        -0.1013
      6 C6          0.6321    1.2176    0.9439 C.ar      1 <0>        -0.1187
      7 C7          3.6680   -0.7468   -0.0835 C.2       1 <0>        -0.1162
      8 C8          4.6870   -0.5654   -0.9608 C.2       1 <0>         0.0318
      9 N1          5.7452   -1.3436   -0.5763 N.pl3     1 <0>        -0.4721
     10 C9          5.4208   -2.0372    0.5476 C.2       1 <0>         0.0237
     11 C10         4.1501   -1.7108    0.9145 C.2       1 <0>        -0.1095
     12 C11         3.4016   -2.2281    2.0857 C.ar      1 <0>         0.0005
     13 C12         3.8175   -1.9105    3.3776 C.ar      1 <0>        -0.1113
     14 C13         3.1169   -2.3943    4.4637 C.ar      1 <0>        -0.1201
     15 C14         2.0042   -3.1934    4.2721 C.ar      1 <0>        -0.1246
     16 C15         1.5869   -3.5119    2.9924 C.ar      1 <0>        -0.1191
     17 C16         2.2764   -3.0290    1.8987 C.ar      1 <0>        -0.1030
     18 C17         6.5855   -2.9076    0.9751 C.3       1 <0>        -0.0611
     19 C18         7.4927   -2.9680   -0.2738 C.3       1 <0>        -0.1318
     20 C19         7.1219   -1.6591   -1.0012 C.3       1 <0>         0.1047
     21 H1         -1.1212    1.5923   -0.2195 H         1 <0>         0.1195
     22 H2         -0.3155    0.3341   -2.1740 H         1 <0>         0.1208
     23 H3          1.8936   -0.7471   -2.1208 H         1 <0>         0.1195
     24 H4          2.4849    0.6955    1.8707 H         1 <0>         0.1189
     25 H5          0.2728    1.7695    1.7999 H         1 <0>         0.1205
     26 H6          4.6665    0.0865   -1.8216 H         1 <0>         0.1623
     27 H7          4.6865   -1.2872    3.5283 H         1 <0>         0.1180
     28 H8          3.4382   -2.1488    5.4652 H         1 <0>         0.1203
     29 H9          1.4594   -3.5704    5.1251 H         1 <0>         0.1192
     30 H10         0.7176   -4.1365    2.8487 H         1 <0>         0.1201
     31 H11         1.9471   -3.2746    0.8999 H         1 <0>         0.1180
     32 H12         7.1164   -2.4509    1.8104 H         1 <0>         0.0871
     33 H13         6.2379   -3.9054    1.2427 H         1 <0>         0.0885
     34 H14         8.5453   -2.9717    0.0092 H         1 <0>         0.0967
     35 H15         7.2528   -3.8361   -0.8877 H         1 <0>         0.0843
     36 H16         7.1587   -1.8047   -2.0808 H         1 <0>         0.0872
     37 H17         7.8001   -0.8588   -0.7052 H         1 <0>         0.0855
@<TRIPOS>BOND
     1    1    6 ar
     2    1    2 ar
     3    1   21 1
     4    2    3 ar
     5    2   22 1
     6    3    4 ar
     7    3   23 1
     8    4    5 ar
     9    4    7 1
    10    5    6 ar
    11    5   24 1
    12    6   25 1
    13    7   11 1
    14    7    8 2
    15    8    9 1
    16    8   26 1
    17    9   20 1
    18    9   10 1
    19   10   11 2
    20   10   18 1
    21   11   12 1
    22   12   17 ar
    23   12   13 ar
    24   13   14 ar
    25   13   27 1
    26   14   15 ar
    27   14   28 1
    28   15   16 ar
    29   15   29 1
    30   16   17 ar
    31   16   30 1
    32   17   31 1
    33   18   19 1
    34   18   32 1
    35   18   33 1
    36   19   20 1
    37   19   34 1
    38   19   35 1
    39   20   36 1
    40   20   37 1
@<TRIPOS>MOLECULE
CHEMBL296447
   41    44     0     0     0
SMALL
USER_CHARGES

@<TRIPOS>ATOM
      1 C1          0.7822    1.1319    0.7380 C.3       1 <0>        -0.6483
      2 S1          0.8529   -0.6717    0.5565 S.o2      1 <0>         2.4979
      3 O1          1.8401   -1.2125    1.4238 O.2       1 <0>        -0.9304
      4 O2         -0.4609   -1.2125    0.5277 O.2       1 <0>        -0.9304
      5 C2          1.4848   -0.9390   -1.0663 C.ar      1 <0>        -0.6500
      6 C3          0.6159   -1.0381   -2.1375 C.ar      1 <0>        -0.0048
      7 C4          1.1083   -1.2481   -3.4108 C.ar      1 <0>        -0.1274
      8 C5          2.4771   -1.3594   -3.6146 C.ar      1 <0>         0.1564
      9 C6          3.3470   -1.2590   -2.5372 C.ar      1 <0>        -0.1219
     10 C7          2.8490   -1.0438   -1.2670 C.ar      1 <0>        -0.0062
     11 N1          2.9797   -1.5729   -4.9052 N.pl3     1 <0>        -0.4131
     12 C8          2.6539   -2.6051   -5.7479 C.2       1 <0>         0.0396
     13 C9          3.3617   -2.4275   -6.8814 C.2       1 <0>        -0.0814
     14 N2          4.1036   -1.3213   -6.7488 N.2       1 <0>        -0.4248
     15 C10         3.8834   -0.7892   -5.5665 C.2       1 <0>         0.2820
     16 C11         4.5082    0.4432   -5.0416 C.ar      1 <0>        -0.0207
     17 C12         5.6930    0.9211   -5.6041 C.ar      1 <0>        -0.0541
     18 C13         6.2743    2.0714   -5.1135 C.ar      1 <0>        -0.0980
     19 C14         5.6854    2.7571   -4.0610 C.ar      1 <0>         0.0549
     20 C15         4.5019    2.2847   -3.4947 C.ar      1 <0>         0.0354
     21 C16         3.9120    1.1350   -3.9861 C.ar      1 <0>        -0.0912
     22 O3          4.1332    3.1295   -2.4875 O.3       1 <0>        -0.3056
     23 C17         5.3137    3.8918   -2.1740 C.3       1 <0>         0.2115
     24 O4          6.0557    3.8970   -3.4077 O.3       1 <0>        -0.3024
     25 C18         3.3244   -3.3231   -8.0928 C.3       1 <0>         0.5574
     26 F1          2.3283   -2.8803   -8.9697 F         1 <0>        -0.1700
     27 F2          4.5648   -3.2856   -8.7389 F         1 <0>        -0.1639
     28 F3          3.0456   -4.6349   -7.6945 F         1 <0>        -0.1710
     29 H1          1.7828    1.5482    0.6213 H         1 <0>         0.1339
     30 H2          0.1242    1.5483   -0.0246 H         1 <0>         0.1338
     31 H3          0.3973    1.3828    1.7265 H         1 <0>         0.1373
     32 H4         -0.4487   -0.9515   -1.9783 H         1 <0>         0.1582
     33 H5          0.4291   -1.3261   -4.2469 H         1 <0>         0.1471
     34 H6          4.4123   -1.3452   -2.6927 H         1 <0>         0.1454
     35 H7          3.5254   -0.9613   -0.4291 H         1 <0>         0.1572
     36 H8          1.9619   -3.4083   -5.5421 H         1 <0>         0.1999
     37 H9          6.1546    0.3899   -6.4233 H         1 <0>         0.1553
     38 H10         7.1911    2.4394   -5.5499 H         1 <0>         0.1484
     39 H11         2.9931    0.7704   -3.5512 H         1 <0>         0.1377
     40 H12         5.0472    4.9080   -1.8831 H         1 <0>         0.1366
     41 H13         5.8861    3.4042   -1.3849 H         1 <0>         0.0898
@<TRIPOS>BOND
     1    1    2 1
     2    1   29 1
     3    1   30 1
     4    1   31 1
     5    2    3 2
     6    2    4 2
     7    2    5 1
     8    5   10 ar
     9    5    6 ar
    10    6    7 ar
    11    6   32 1
    12    7    8 ar
    13    7   33 1
    14    8    9 ar
    15    8   11 1
    16    9   10 ar
    17    9   34 1
    18   10   35 1
    19   11   15 1
    20   11   12 1
    21   12   13 2
    22   12   36 1
    23   13   14 1
    24   13   25 1
    25   14   15 2
    26   15   16 1
    27   16   21 ar
    28   16   17 ar
    29   17   18 ar
    30   17   37 1
    31   18   19 ar
    32   18   38 1
    33   19   24 1
    34   19   20 ar
    35   20   21 ar
    36   20   22 1
    37   21   39 1
    38   22   23 1
    39   23   24 1
    40   23   40 1
    41   23   41 1
    42   25   26 1
    43   25   27 1
    44   25   28 1
@<TRIPOS>MOLECULE
CHEMBL1223901
   40    43     0     0     0
SMALL
USER_CHARGES

@<TRIPOS>ATOM
      1 C1         -0.0178    1.4608    0.0101 C.3       1 <0>         0.0940
      2 N1          0.0021   -0.0041    0.0020 N.am      1 <0>        -0.5471
      3 C2         -1.1093   -0.8408    0.0026 C.ar      1 <0>         0.0859
      4 C3         -2.4783   -0.6021    0.0105 C.ar      1 <0>        -0.0950
      5 C4         -3.3578   -1.6472    0.0093 C.ar      1 <0>        -0.0687
      6 C5         -2.8835   -2.9665   -0.0001 C.ar      1 <0>        -0.0369
      7 C6         -1.5053   -3.2128   -0.0081 C.ar      1 <0>        -0.0520
      8 C7         -0.6218   -2.1509   -0.0068 C.ar      1 <0>         0.0367
      9 O1          0.7320   -2.0758   -0.0126 O.3       1 <0>        -0.2321
     10 C8          1.1001   -0.7849   -0.0131 C.2       1 <0>         0.6352
     11 O2          2.2473   -0.3823   -0.0225 O.2       1 <0>        -0.4789
     12 C9         -3.8301   -4.0873   -0.0009 C.2       1 <0>        -0.0448
     13 C10        -4.7114   -4.4121   -0.9901 C.2       1 <0>        -0.1347
     14 C11        -5.4589   -5.6024   -0.5734 C.2       1 <0>         0.5043
     15 O3         -6.3232   -6.1491   -1.2310 O.2       1 <0>        -0.4385
     16 O4         -5.0474   -6.0008    0.6437 O.3       1 <0>        -0.3122
     17 C12        -4.0175   -5.1148    1.0909 C.3       1 <0>         0.0717
     18 C13        -4.8842   -3.6849   -2.2687 C.ar      1 <0>        -0.0731
     19 C14        -5.3544   -2.3714   -2.2680 C.ar      1 <0>        -0.0584
     20 C15        -5.5141   -1.6975   -3.4602 C.ar      1 <0>        -0.1504
     21 C16        -5.2081   -2.3247   -4.6606 C.ar      1 <0>         0.1390
     22 C17        -4.7400   -3.6319   -4.6651 C.ar      1 <0>        -0.2056
     23 C18        -4.5719   -4.3099   -3.4763 C.ar      1 <0>        -0.0476
     24 O5         -5.3676   -1.6578   -5.8338 O.3       1 <0>        -0.3153
     25 C19        -5.0340   -2.3627   -7.0312 C.3       1 <0>         0.0248
     26 H1          1.0048    1.8381    0.0023 H         1 <0>         0.1003
     27 H2         -0.5450    1.8219   -0.8730 H         1 <0>         0.0820
     28 H3         -0.5280    1.8123    0.9069 H         1 <0>         0.0824
     29 H4         -2.8479    0.4127    0.0181 H         1 <0>         0.1435
     30 H5         -4.4208   -1.4568    0.0158 H         1 <0>         0.1448
     31 H6         -1.1350   -4.2273   -0.0150 H         1 <0>         0.1484
     32 H7         -3.0903   -5.6657    1.2486 H         1 <0>         0.1254
     33 H8         -4.3238   -4.6257    2.0155 H         1 <0>         0.1268
     34 H9         -5.5933   -1.8831   -1.3348 H         1 <0>         0.1310
     35 H10        -5.8780   -0.6806   -3.4605 H         1 <0>         0.1362
     36 H11        -4.5033   -4.1168   -5.6007 H         1 <0>         0.1333
     37 H12        -4.2035   -5.3251   -3.4803 H         1 <0>         0.1273
     38 H13        -5.2067   -1.7176   -7.8927 H         1 <0>         0.1028
     39 H14        -3.9842   -2.6545   -7.0006 H         1 <0>         0.0572
     40 H15        -5.6565   -3.2536   -7.1138 H         1 <0>         0.0583
@<TRIPOS>BOND
     1    1    2 1
     2    1   26 1
     3    1   27 1
     4    1   28 1
     5    2   10 am
     6    2    3 1
     7    3    8 ar
     8    3    4 ar
     9    4    5 ar
    10    4   29 1
    11    5    6 ar
    12    5   30 1
    13    6    7 ar
    14    6   12 1
    15    7    8 ar
    16    7   31 1
    17    8    9 1
    18    9   10 1
    19   10   11 2
    20   12   17 1
    21   12   13 2
    22   13   14 1
    23   13   18 1
    24   14   15 2
    25   14   16 1
    26   16   17 1
    27   17   32 1
    28   17   33 1
    29   18   23 ar
    30   18   19 ar
    31   19   20 ar
    32   19   34 1
    33   20   21 ar
    34   20   35 1
    35   21   22 ar
    36   21   24 1
    37   22   23 ar
    38   22   36 1
    39   23   37 1
    40   24   25 1
    41   25   38 1
    42   25   39 1
    43   25   40 1
@<TRIPOS>MOLECULE
CHEMBL173724
   36    38     0     0     0
SMALL
USER_CHARGES

@<TRIPOS>ATOM
      1 C1         -0.5579    0.9399    0.2951 C.3       1 <0>         0.0954
      2 N1         -0.1279   -0.4584    0.2186 N.pl3     1 <0>        -0.9363
      3 C2         -0.0860   -1.1190   -0.9794 C.2       1 <0>         0.5365
      4 C3          0.8186   -2.1203   -1.2421 C.2       1 <0>        -0.4987
      5 C4          1.8314   -2.5844   -0.2745 C.ar      1 <0>         0.1791
      6 C5          2.9179   -3.3507   -0.6976 C.ar      1 <0>        -0.1712
      7 C6          3.8574   -3.7756    0.2206 C.ar      1 <0>         0.0424
      8 C7          3.7291   -3.4466    1.5596 C.ar      1 <0>        -0.1934
      9 C8          2.6534   -2.6861    1.9882 C.ar      1 <0>         0.0216
     10 C9          1.7143   -2.2607    1.0802 C.ar      1 <0>        -0.7179
     11 S1          0.3316   -1.2915    1.5862 S.o2      1 <0>         2.6919
     12 O1         -0.7181   -2.1991    1.8923 O.2       1 <0>        -0.9495
     13 O2          0.8151   -0.3310    2.5151 O.2       1 <0>        -0.9640
     14 Cl1         5.2086   -4.7294   -0.3070 Cl        1 <0>        -0.0793
     15 C10         0.7758   -2.7416   -2.5127 C.2       1 <0>         0.6492
     16 O3          0.2346   -3.8252   -2.6430 O.2       1 <0>        -0.5276
     17 N2          1.3338   -2.1345   -3.5788 N.am      1 <0>        -0.6606
     18 C11         1.2036   -2.6987   -4.8527 C.ar      1 <0>         0.2217
     19 C12         0.2029   -3.6285   -5.1029 C.ar      1 <0>        -0.1352
     20 C13         0.0766   -4.1838   -6.3610 C.ar      1 <0>        -0.0503
     21 C14         0.9463   -3.8151   -7.3723 C.ar      1 <0>        -0.1251
     22 C15         1.9446   -2.8895   -7.1266 C.ar      1 <0>        -0.0368
     23 C16         2.0717   -2.3255   -5.8713 C.ar      1 <0>        -0.1414
     24 Br1         3.4311   -1.0539   -5.5381 Br        1 <0>        -0.0417
     25 Br2         0.7701   -4.5786   -9.0933 Br        1 <0>        -0.0558
     26 O4         -0.9674   -0.7743   -1.9402 O.3       1 <0>        -0.6409
     27 H1          0.3064    1.5930    0.1743 H         1 <0>         0.0633
     28 H2         -1.2794    1.1421   -0.4965 H         1 <0>         0.0928
     29 H3         -1.0206    1.1253    1.2645 H         1 <0>         0.0679
     30 H4          3.0235   -3.6111   -1.7404 H         1 <0>         0.1278
     31 H5          4.4689   -3.7831    2.2709 H         1 <0>         0.1323
     32 H6          2.5530   -2.4291    3.0324 H         1 <0>         0.1346
     33 H7          1.8256   -1.3065   -3.4631 H         1 <0>         0.4138
     34 H8         -0.4759   -3.9173   -4.3140 H         1 <0>         0.1770
     35 H9         -0.7016   -4.9069   -6.5558 H         1 <0>         0.1385
     36 H10         2.6224   -2.6042   -7.9175 H         1 <0>         0.1401
@<TRIPOS>BOND
     1    1    2 1
     2    1   27 1
     3    1   28 1
     4    1   29 1
     5    2   11 1
     6    2    3 1
     7    3    4 2
     8    3   26 1
     9    4    5 1
    10    4   15 1
    11    5   10 ar
    12    5    6 ar
    13    6    7 ar
    14    6   30 1
    15    7    8 ar
    16    7   14 1
    17    8    9 ar
    18    8   31 1
    19    9   10 ar
    20    9   32 1
    21   10   11 1
    22   11   12 2
    23   11   13 2
    24   15   16 2
    25   15   17 am
    26   17   18 1
    27   17   33 1
    28   18   23 ar
    29   18   19 ar
    30   19   20 ar
    31   19   34 1
    32   20   21 ar
    33   20   35 1
    34   21   22 ar
    35   21   25 1
    36   22   23 ar
    37   22   36 1
    38   23   24 1
@<TRIPOS>MOLECULE
CHEMBL302838
   40    44     0     0     0
SMALL
USER_CHARGES

@<TRIPOS>ATOM
      1 C1         -0.0166    1.3766    0.0096 C.ar      1 <0>        -0.1461
      2 C2          1.1732    2.0817    0.0020 C.ar      1 <0>        -0.1077
      3 C3          2.3743    1.4060   -0.0181 C.ar      1 <0>        -0.1183
      4 C4          2.4031    0.0129   -0.0280 C.ar      1 <0>         0.1750
      5 C5          1.2030   -0.6912   -0.0115 C.ar      1 <0>        -0.1131
      6 C6          0.0021   -0.0041    0.0020 C.ar      1 <0>        -0.1043
      7 C7          1.2053   -2.1824    0.0077 C.3       1 <0>        -0.0722
      8 C8          1.7870   -2.7927   -1.2365 C.3       1 <0>        -0.0657
      9 C9          3.2667   -2.8092   -1.2647 C.ar      1 <0>        -0.0821
     10 C10         3.9598   -3.8266   -1.8991 C.ar      1 <0>        -0.1525
     11 C11         5.3413   -3.8876   -1.9088 C.ar      1 <0>        -0.1274
     12 C12         6.1096   -2.9317   -1.2644 C.ar      1 <0>        -0.1317
     13 C13         5.4255   -1.8955   -0.6325 C.ar      1 <0>         0.0066
     14 C14         4.0126   -1.8003   -0.6576 C.ar      1 <0>         0.0825
     15 N1          3.6584   -0.6158   -0.0621 N.pl3     1 <0>        -0.4619
     16 C15         4.7698   -0.0360    0.5038 C.2       1 <0>         0.4720
     17 O1          4.7618    1.0764    1.2716 O.3       1 <0>        -0.6729
     18 C16         5.8981   -0.7646    0.1673 C.2       1 <0>        -0.4510
     19 C17         7.2810   -0.4648    0.5356 C.2       1 <0>         0.6390
     20 O2          7.9658    0.2349   -0.1883 O.2       1 <0>        -0.4877
     21 N2          7.7977   -0.9629    1.6764 N.am      1 <0>        -0.6165
     22 C18         9.1113   -0.6780    2.0263 C.2       1 <0>         0.3093
     23 N3          9.9893    0.0563    1.3776 N.2       1 <0>        -0.5362
     24 C19        11.2107    0.2331    1.8472 C.2       1 <0>         0.0737
     25 C20        11.5134   -0.3739    3.0207 C.2       1 <0>        -0.2731
     26 S1          9.9642   -1.1824    3.3868 S.3       1 <0>         0.0671
     27 H1         -0.9585    1.9048    0.0259 H         1 <0>         0.1179
     28 H2          1.1610    3.1616    0.0115 H         1 <0>         0.1207
     29 H3          3.3008    1.9609   -0.0266 H         1 <0>         0.1430
     30 H4         -0.9285   -0.5522    0.0067 H         1 <0>         0.1198
     31 H5          1.7849   -2.5201    0.8668 H         1 <0>         0.0693
     32 H6          0.1793   -2.5322    0.1220 H         1 <0>         0.0722
     33 H7          1.4267   -3.8179   -1.3214 H         1 <0>         0.0723
     34 H8          1.4297   -2.2301   -2.0990 H         1 <0>         0.0670
     35 H9          3.4011   -4.6002   -2.4050 H         1 <0>         0.1076
     36 H10         5.8314   -4.6972   -2.4291 H         1 <0>         0.1069
     37 H11         7.1881   -2.9874   -1.2521 H         1 <0>         0.1147
     38 H12         7.2521   -1.5203    2.2531 H         1 <0>         0.4229
     39 H13        11.9363    0.8343    1.3196 H         1 <0>         0.1690
     40 H14        12.4363   -0.3673    3.5817 H         1 <0>         0.1918
@<TRIPOS>BOND
     1    1    6 ar
     2    1    2 ar
     3    1   27 1
     4    2    3 ar
     5    2   28 1
     6    3    4 ar
     7    3   29 1
     8    4   15 1
     9    4    5 ar
    10    5    6 ar
    11    5    7 1
    12    6   30 1
    13    7    8 1
    14    7   31 1
    15    7   32 1
    16    8    9 1
    17    8   33 1
    18    8   34 1
    19    9   14 ar
    20    9   10 ar
    21   10   11 ar
    22   10   35 1
    23   11   12 ar
    24   11   36 1
    25   12   13 ar
    26   12   37 1
    27   13   18 1
    28   13   14 ar
    29   14   15 1
    30   15   16 1
    31   16   17 1
    32   16   18 2
    33   18   19 1
    34   19   20 2
    35   19   21 am
    36   21   22 1
    37   21   38 1
    38   22   26 1
    39   22   23 2
    40   23   24 1
    41   24   25 2
    42   24   39 1
    43   25   26 1
    44   25   40 1
@<TRIPOS>MOLECULE
CHEMBL302838__1
   41    45     0     0     0
SMALL
USER_CHARGES

@<TRIPOS>ATOM
      1 C1         -0.0166    1.3766    0.0096 C.ar      1 <0>        -0.1167
      2 C2          1.1732    2.0817    0.0020 C.ar      1 <0>        -0.1007
      3 C3          2.3743    1.4060   -0.0181 C.ar      1 <0>        -0.1222
      4 C4          2.4031    0.0129   -0.0280 C.ar      1 <0>         0.1229
      5 C5          1.2030   -0.6912   -0.0115 C.ar      1 <0>        -0.0850
      6 C6          0.0021   -0.0041    0.0020 C.ar      1 <0>        -0.0978
      7 C7          1.2053   -2.1824    0.0077 C.3       1 <0>        -0.0816
      8 C8          1.7870   -2.7927   -1.2365 C.3       1 <0>        -0.0771
      9 C9          3.2667   -2.8092   -1.2647 C.ar      1 <0>        -0.0753
     10 C10         3.9598   -3.8266   -1.8991 C.ar      1 <0>        -0.0972
     11 C11         5.3413   -3.8876   -1.9088 C.ar      1 <0>        -0.1249
     12 C12         6.1096   -2.9317   -1.2644 C.ar      1 <0>        -0.0746
     13 C13         5.4255   -1.8955   -0.6325 C.ar      1 <0>        -0.0611
     14 C14         4.0126   -1.8003   -0.6576 C.ar      1 <0>         0.1120
     15 N1          3.6584   -0.6158   -0.0621 N.pl3     1 <0>        -0.4177
     16 C15         4.7698   -0.0360    0.5038 C.2       1 <0>         0.3029
     17 O1          4.7618    1.0764    1.2716 O.3       1 <0>        -0.4540
     18 C16         5.8981   -0.7646    0.1673 C.2       1 <0>        -0.2222
     19 C17         7.2810   -0.4648    0.5356 C.2       1 <0>         0.5995
     20 O2          7.9658    0.2349   -0.1883 O.2       1 <0>        -0.4518
     21 N2          7.7977   -0.9629    1.6764 N.am      1 <0>        -0.6168
     22 C18         9.1113   -0.6780    2.0263 C.2       1 <0>         0.2735
     23 N3          9.9893    0.0563    1.3776 N.2       1 <0>        -0.5225
     24 C19        11.2107    0.2331    1.8472 C.2       1 <0>         0.0637
     25 C20        11.5134   -0.3739    3.0207 C.2       1 <0>        -0.2443
     26 S1          9.9642   -1.1824    3.3868 S.3       1 <0>         0.1059
     27 H1         -0.9585    1.9048    0.0259 H         1 <0>         0.1316
     28 H2          1.1610    3.1616    0.0115 H         1 <0>         0.1331
     29 H3          3.3008    1.9609   -0.0266 H         1 <0>         0.1406
     30 H4         -0.9285   -0.5522    0.0067 H         1 <0>         0.1332
     31 H5          1.7849   -2.5201    0.8668 H         1 <0>         0.0746
     32 H6          0.1793   -2.5322    0.1220 H         1 <0>         0.0863
     33 H7          1.4267   -3.8179   -1.3214 H         1 <0>         0.0875
     34 H8          1.4297   -2.2301   -2.0990 H         1 <0>         0.0788
     35 H9          3.4011   -4.6002   -2.4050 H         1 <0>         0.1292
     36 H10         5.8314   -4.6972   -2.4291 H         1 <0>         0.1289
     37 H11         7.1881   -2.9874   -1.2521 H         1 <0>         0.1340
     38 H12         7.2521   -1.5203    2.2531 H         1 <0>         0.4263
     39 H13        11.9363    0.8343    1.3196 H         1 <0>         0.1767
     40 H14        12.4363   -0.3673    3.5817 H         1 <0>         0.1999
     41 H15         4.6523    0.9014    2.2163 H         1 <0>         0.4022
@<TRIPOS>BOND
     1    1    6 ar
     2    1    2 ar
     3    1   27 1
     4    2    3 ar
     5    2   28 1
     6    3    4 ar
     7    3   29 1
     8    4   15 1
     9    4    5 ar
    10    5    6 ar
    11    5    7 1
    12    6   30 1
    13    7    8 1
    14    7   31 1
    15    7   32 1
    16    8    9 1
    17    8   33 1
    18    8   34 1
    19    9   14 ar
    20    9   10 ar
    21   10   11 ar
    22   10   35 1
    23   11   12 ar
    24   11   36 1
    25   12   13 ar
    26   12   37 1
    27   13   18 1
    28   13   14 ar
    29   14   15 1
    30   15   16 1
    31   16   17 1
    32   16   18 2
    33   17   41 1
    34   18   19 1
    35   19   20 2
    36   19   21 am
    37   21   22 1
    38   21   38 1
    39   22   26 1
    40   22   23 2
    41   23   24 1
    42   24   25 2
    43   24   39 1
    44   25   26 1
    45   25   40 1
@<TRIPOS>MOLECULE
CHEMBL302838__2
   41    45     0     0     0
SMALL
USER_CHARGES

@<TRIPOS>ATOM
      1 C1         -0.0166    1.3707    0.0096 C.ar      1 <0>        -0.1242
      2 C2          1.1692    2.0844    0.0021 C.ar      1 <0>        -0.0987
      3 C3          2.3612    1.3938    0.0439 C.ar      1 <0>        -0.1232
      4 C4          2.3679   -0.0001    0.0420 C.ar      1 <0>         0.1462
      5 C5          1.2140   -0.7133   -0.0403 C.ar      1 <0>        -0.0927
      6 C6          0.0021   -0.0041    0.0020 C.ar      1 <0>        -0.1078
      7 C7          1.0423   -2.1758   -0.3195 C.3       1 <0>        -0.0747
      8 C8          1.9730   -2.7402   -1.3619 C.3       1 <0>        -0.0725
      9 C9          3.4077   -2.7974   -0.9354 C.ar      1 <0>        -0.0954
     10 C10         4.1493   -3.9078   -1.3435 C.ar      1 <0>        -0.0822
     11 C11         5.4576   -4.0990   -0.9605 C.ar      1 <0>        -0.1343
     12 C12         6.1062   -3.1802   -0.1422 C.ar      1 <0>        -0.0333
     13 C13         5.3812   -2.0720    0.2391 C.ar      1 <0>        -0.1268
     14 C14         4.0497   -1.8644   -0.1525 C.ar      1 <0>         0.1565
     15 N1          3.6173   -0.6179    0.2644 N.am      1 <0>        -0.4926
     16 C15         4.5680    0.0169    1.0032 C.2       1 <0>         0.5314
     17 O1          4.4649    1.1121    1.5141 O.2       1 <0>        -0.4698
     18 C16         5.7757   -0.8905    1.0721 C.3       1 <0>        -0.0990
     19 C17         6.9849   -0.2090    0.4854 C.2       1 <0>         0.5316
     20 O2          7.4925   -0.6410   -0.5279 O.2       1 <0>        -0.4411
     21 N2          7.5023    0.8806    1.0866 N.am      1 <0>        -0.6160
     22 C18         8.6177    1.5092    0.5455 C.2       1 <0>         0.2692
     23 N3          9.2908    1.1893   -0.5385 N.2       1 <0>        -0.5220
     24 C19        10.3388    1.8937   -0.9237 C.2       1 <0>         0.0620
     25 C20        10.6849    2.9546   -0.1539 C.2       1 <0>        -0.2428
     26 S1          9.4306    2.8689    1.1139 S.3       1 <0>         0.1179
     27 H1         -0.9602    1.8958    0.0259 H         1 <0>         0.1281
     28 H2          1.1606    3.1637   -0.0362 H         1 <0>         0.1331
     29 H3          3.2950    1.9354    0.0779 H         1 <0>         0.1393
     30 H4         -0.9306   -0.5479    0.0294 H         1 <0>         0.1303
     31 H5          1.1957   -2.7233    0.6105 H         1 <0>         0.0749
     32 H6          0.0165   -2.3448   -0.6472 H         1 <0>         0.0877
     33 H7          1.6445   -3.7495   -1.6102 H         1 <0>         0.0893
     34 H8          1.9022   -2.1255   -2.2593 H         1 <0>         0.0771
     35 H9          3.6801   -4.6422   -1.9814 H         1 <0>         0.1313
     36 H10         5.9884   -4.9761   -1.3003 H         1 <0>         0.1324
     37 H11         7.1268   -3.3280    0.1785 H         1 <0>         0.1406
     38 H12         5.9677   -1.1944    2.1011 H         1 <0>         0.1604
     39 H13         7.0964    1.2261    1.8970 H         1 <0>         0.4317
     40 H14        10.8958    1.6361   -1.8124 H         1 <0>         0.1773
     41 H15        11.4940    3.6594   -0.2759 H         1 <0>         0.2007
@<TRIPOS>BOND
     1    1    6 ar
     2    1    2 ar
     3    1   27 1
     4    2    3 ar
     5    2   28 1
     6    3    4 ar
     7    3   29 1
     8    4   15 1
     9    4    5 ar
    10    5    6 ar
    11    5    7 1
    12    6   30 1
    13    7    8 1
    14    7   31 1
    15    7   32 1
    16    8    9 1
    17    8   33 1
    18    8   34 1
    19    9   14 ar
    20    9   10 ar
    21   10   11 ar
    22   10   35 1
    23   11   12 ar
    24   11   36 1
    25   12   13 ar
    26   12   37 1
    27   13   18 1
    28   13   14 ar
    29   14   15 1
    30   15   16 am
    31   16   17 2
    32   16   18 1
    33   18   19 1
    34   18   38 1
    35   19   20 2
    36   19   21 am
    37   21   22 1
    38   21   39 1
    39   22   26 1
    40   22   23 2
    41   23   24 1
    42   24   25 2
    43   24   40 1
    44   25   26 1
    45   25   41 1
@<TRIPOS>MOLECULE
CHEMBL302838__3
   41    45     0     0     0
SMALL
USER_CHARGES

@<TRIPOS>ATOM
      1 C1         -0.0166    1.3707    0.0096 C.ar      1 <0>        -0.1242
      2 C2          1.1692    2.0844    0.0021 C.ar      1 <0>        -0.0993
      3 C3          2.3612    1.3938    0.0439 C.ar      1 <0>        -0.1232
      4 C4          2.3679   -0.0001    0.0420 C.ar      1 <0>         0.1449
      5 C5          1.2140   -0.7133   -0.0403 C.ar      1 <0>        -0.0916
      6 C6          0.0021   -0.0041    0.0020 C.ar      1 <0>        -0.1081
      7 C7          1.0423   -2.1758   -0.3195 C.3       1 <0>        -0.0768
      8 C8          1.9730   -2.7402   -1.3619 C.3       1 <0>        -0.0715
      9 C9          3.4077   -2.7974   -0.9354 C.ar      1 <0>        -0.0951
     10 C10         4.1493   -3.9078   -1.3435 C.ar      1 <0>        -0.0822
     11 C11         5.4579   -4.0986   -0.9612 C.ar      1 <0>        -0.1337
     12 C12         6.1064   -3.1797   -0.1430 C.ar      1 <0>        -0.0383
     13 C13         5.3812   -2.0719    0.2391 C.ar      1 <0>        -0.1246
     14 C14         4.0497   -1.8644   -0.1525 C.ar      1 <0>         0.1583
     15 N1          3.6173   -0.6179    0.2644 N.am      1 <0>        -0.4928
     16 C15         4.5680    0.0169    1.0032 C.2       1 <0>         0.5315
     17 O1          4.4649    1.1121    1.5141 O.2       1 <0>        -0.4694
     18 C16         5.7756   -0.8906    1.0723 C.3       1 <0>        -0.0994
     19 C17         6.0419   -1.3111    2.4947 C.2       1 <0>         0.5316
     20 O2          5.9235   -2.4748    2.8153 O.2       1 <0>        -0.4404
     21 N2          6.4117   -0.3940    3.4105 N.am      1 <0>        -0.6165
     22 C18         6.6574   -0.7819    4.7225 C.2       1 <0>         0.2691
     23 N3          6.5861   -1.9867    5.2457 N.2       1 <0>        -0.5221
     24 C19         6.8527   -2.1932    6.5221 C.2       1 <0>         0.0620
     25 C20         7.2008   -1.1116    7.2616 C.2       1 <0>        -0.2428
     26 S1          7.1255    0.1747    6.0257 S.3       1 <0>         0.1182
     27 H1         -0.9602    1.8958    0.0259 H         1 <0>         0.1280
     28 H2          1.1606    3.1637   -0.0362 H         1 <0>         0.1335
     29 H3          3.2950    1.9354    0.0779 H         1 <0>         0.1414
     30 H4         -0.9306   -0.5479    0.0294 H         1 <0>         0.1301
     31 H5          1.1957   -2.7233    0.6105 H         1 <0>         0.0746
     32 H6          0.0165   -2.3448   -0.6472 H         1 <0>         0.0880
     33 H7          1.6445   -3.7495   -1.6102 H         1 <0>         0.0892
     34 H8          1.9022   -2.1255   -2.2593 H         1 <0>         0.0777
     35 H9          3.6801   -4.6422   -1.9814 H         1 <0>         0.1314
     36 H10         5.9889   -4.9753   -1.3016 H         1 <0>         0.1325
     37 H11         7.1273   -3.3272    0.1772 H         1 <0>         0.1406
     38 H12         6.6498   -0.3971    0.6476 H         1 <0>         0.1598
     39 H13         6.5064    0.5366    3.1541 H         1 <0>         0.4316
     40 H14         6.7957   -3.1798    6.9578 H         1 <0>         0.1774
     41 H15         7.4567   -1.0466    8.3088 H         1 <0>         0.2008
@<TRIPOS>BOND
     1    1    6 ar
     2    1    2 ar
     3    1   27 1
     4    2    3 ar
     5    2   28 1
     6    3    4 ar
     7    3   29 1
     8    4   15 1
     9    4    5 ar
    10    5    6 ar
    11    5    7 1
    12    6   30 1
    13    7    8 1
    14    7   31 1
    15    7   32 1
    16    8    9 1
    17    8   33 1
    18    8   34 1
    19    9   14 ar
    20    9   10 ar
    21   10   11 ar
    22   10   35 1
    23   11   12 ar
    24   11   36 1
    25   12   13 ar
    26   12   37 1
    27   13   18 1
    28   13   14 ar
    29   14   15 1
    30   15   16 am
    31   16   17 2
    32   16   18 1
    33   18   19 1
    34   18   38 1
    35   19   20 2
    36   19   21 am
    37   21   22 1
    38   21   39 1
    39   22   26 1
    40   22   23 2
    41   23   24 1
    42   24   25 2
    43   24   40 1
    44   25   26 1
    45   25   41 1
@<TRIPOS>MOLECULE
CHEMBL104592
   34    36     0     0     0
SMALL
USER_CHARGES

@<TRIPOS>ATOM
      1 C1         -0.0187    1.5258    0.0104 C.3       1 <0>        -0.1114
      2 C2          0.0021   -0.0041    0.0020 C.3       1 <0>        -0.1357
      3 C3         -1.4117   -0.5257    0.0127 C.ar      1 <0>        -0.0198
      4 C4         -2.2575   -0.2025    1.0584 C.ar      1 <0>        -0.1109
      5 C5         -3.5532   -0.6779    1.0735 C.ar      1 <0>        -0.1080
      6 C6         -4.0088   -1.4843    0.0326 C.ar      1 <0>        -0.0697
      7 C7         -3.1527   -1.8063   -1.0185 C.ar      1 <0>        -0.1097
      8 C8         -1.8606   -1.3212   -1.0260 C.ar      1 <0>        -0.1212
      9 C9         -5.4007   -1.9987    0.0436 C.ar      1 <0>        -0.0501
     10 C10        -6.2587   -1.6688    1.0980 C.ar      1 <0>        -0.0885
     11 C11        -7.5418   -2.1334    1.1237 C.ar      1 <0>        -0.1287
     12 C12        -8.0134   -2.9451    0.0956 C.ar      1 <0>         0.0874
     13 C13        -7.1595   -3.2833   -0.9707 C.ar      1 <0>        -0.1065
     14 C14        -5.8507   -2.8016   -0.9950 C.ar      1 <0>        -0.0694
     15 C15        -7.9475   -4.1330   -1.8674 C.2       1 <0>        -0.2034
     16 C16        -9.1676   -4.2535   -1.3212 C.2       1 <0>         0.0436
     17 N1         -9.2257   -3.5509   -0.1486 N.pl3     1 <0>        -0.5988
     18 H1        -10.0051   -3.4887    0.4255 H         1 <0>         0.4129
     19 C17         0.7309   -0.5033    1.2229 C.2       1 <0>         0.5022
     20 O1          1.1912    0.2909    2.0254 O.co2     1 <0>        -0.6930
     21 O2          0.8604   -1.7014    1.4082 O.co2     1 <0>        -0.6938
     22 H2          1.0039    1.9031    0.0027 H         1 <0>         0.0540
     23 H3         -0.5459    1.8868   -0.8726 H         1 <0>         0.0329
     24 H4         -0.5289    1.8773    0.9072 H         1 <0>         0.0532
     25 H5          0.5123   -0.3556   -0.8948 H         1 <0>         0.0699
     26 H6         -1.9033    0.4226    1.8647 H         1 <0>         0.1220
     27 H7         -4.2125   -0.4255    1.8908 H         1 <0>         0.1182
     28 H8         -3.5007   -2.4310   -1.8278 H         1 <0>         0.1179
     29 H9         -1.1974   -1.5666   -1.8424 H         1 <0>         0.1179
     30 H10        -5.9020   -1.0400    1.9004 H         1 <0>         0.1293
     31 H11        -8.1931   -1.8709    1.9442 H         1 <0>         0.1183
     32 H12        -5.1920   -3.0548   -1.8125 H         1 <0>         0.1262
     33 H13        -7.6107   -4.5776   -2.7922 H         1 <0>         0.1450
     34 H14        -9.9829   -4.8214   -1.7445 H         1 <0>         0.1676
@<TRIPOS>BOND
     1    1    2 1
     2    1   22 1
     3    1   23 1
     4    1   24 1
     5    2    3 1
     6    2   19 1
     7    2   25 1
     8    3    8 ar
     9    3    4 ar
    10    4    5 ar
    11    4   26 1
    12    5    6 ar
    13    5   27 1
    14    6    7 ar
    15    6    9 1
    16    7    8 ar
    17    7   28 1
    18    8   29 1
    19    9   14 ar
    20    9   10 ar
    21   10   11 ar
    22   10   30 1
    23   11   12 ar
    24   11   31 1
    25   12   17 1
    26   12   13 ar
    27   13   14 ar
    28   13   15 1
    29   14   32 1
    30   15   16 2
    31   15   33 1
    32   16   17 1
    33   16   34 1
    34   17   18 1
    35   19   20 2
    36   19   21 1
@<TRIPOS>MOLECULE
CHEMBL104592__1
   34    36     0     0     0
SMALL
USER_CHARGES

@<TRIPOS>ATOM
      1 C1         -0.0187    1.5258    0.0104 C.3       1 <0>        -0.1174
      2 C2          0.0021   -0.0041    0.0020 C.3       1 <0>        -0.1357
      3 C3          0.7309   -0.5033    1.2229 C.ar      1 <0>        -0.0218
      4 C4          0.2605   -0.1855    2.4842 C.ar      1 <0>        -0.0786
      5 C5          0.9243   -0.6397    3.6058 C.ar      1 <0>        -0.1136
      6 C6          2.0702   -1.4200    3.4658 C.ar      1 <0>        -0.0692
      7 C7          2.5394   -1.7374    2.1928 C.ar      1 <0>        -0.1149
      8 C8          1.8647   -1.2823    1.0780 C.ar      1 <0>        -0.1282
      9 C9          2.7884   -1.9107    4.6680 C.ar      1 <0>        -0.0485
     10 C10         2.3111   -1.5943    5.9442 C.ar      1 <0>        -0.0883
     11 C11         2.9596   -2.0375    7.0603 C.ar      1 <0>        -0.1291
     12 C12         4.1093   -2.8135    6.9407 C.ar      1 <0>         0.0866
     13 C13         4.5987   -3.1387    5.6618 C.ar      1 <0>        -0.1065
     14 C14         3.9293   -2.6877    4.5242 C.ar      1 <0>        -0.0707
     15 C15         5.7990   -3.9498    5.8812 C.2       1 <0>        -0.2039
     16 C16         5.9583   -4.0626    7.2092 C.2       1 <0>         0.0433
     17 N1          4.9587   -3.3906    7.8581 N.pl3     1 <0>        -0.5989
     18 H1          4.8626   -3.3296    8.8214 H         1 <0>         0.4127
     19 C17        -1.4117   -0.5257    0.0127 C.2       1 <0>         0.5000
     20 O1         -2.1751   -0.2365   -0.8929 O.co2     1 <0>        -0.6991
     21 O2         -1.7922   -1.2369    0.9270 O.co2     1 <0>        -0.6856
     22 H2          1.0039    1.9031    0.0027 H         1 <0>         0.0402
     23 H3         -0.5459    1.8868   -0.8726 H         1 <0>         0.0592
     24 H4         -0.5289    1.8773    0.9072 H         1 <0>         0.0474
     25 H5          0.5123   -0.3556   -0.8948 H         1 <0>         0.0701
     26 H6         -0.6278    0.4194    2.5916 H         1 <0>         0.1188
     27 H7          0.5565   -0.3904    4.5902 H         1 <0>         0.1162
     28 H8          3.4271   -2.3419    2.0785 H         1 <0>         0.1156
     29 H9          2.2250   -1.5314    0.0909 H         1 <0>         0.1148
     30 H10         1.4202   -0.9926    6.0475 H         1 <0>         0.1295
     31 H11         2.5799   -1.7852    8.0394 H         1 <0>         0.1179
     32 H12         4.2981   -2.9372    3.5403 H         1 <0>         0.1257
     33 H13         6.4347   -4.3761    5.1192 H         1 <0>         0.1447
     34 H14         6.7576   -4.6037    7.6938 H         1 <0>         0.1673
@<TRIPOS>BOND
     1    1    2 1
     2    1   22 1
     3    1   23 1
     4    1   24 1
     5    2    3 1
     6    2   19 1
     7    2   25 1
     8    3    8 ar
     9    3    4 ar
    10    4    5 ar
    11    4   26 1
    12    5    6 ar
    13    5   27 1
    14    6    7 ar
    15    6    9 1
    16    7    8 ar
    17    7   28 1
    18    8   29 1
    19    9   14 ar
    20    9   10 ar
    21   10   11 ar
    22   10   30 1
    23   11   12 ar
    24   11   31 1
    25   12   17 1
    26   12   13 ar
    27   13   14 ar
    28   13   15 1
    29   14   32 1
    30   15   16 2
    31   15   33 1
    32   16   17 1
    33   16   34 1
    34   17   18 1
    35   19   20 2
    36   19   21 1
@<TRIPOS>MOLECULE
CHEMBL371477
   36    38     0     0     0
SMALL
USER_CHARGES

@<TRIPOS>ATOM
      1 C1         -0.0167    1.3790    0.0096 C.ar      1 <0>        -0.0953
      2 C2          1.1686    2.0920    0.0021 C.ar      1 <0>        -0.1193
      3 C3          2.3774    1.4262   -0.0134 C.ar      1 <0>        -0.0802
      4 C4          2.4023    0.0328   -0.0211 C.ar      1 <0>        -0.0455
      5 C5          1.2050   -0.6804   -0.0130 C.ar      1 <0>        -0.0810
      6 C6          0.0021   -0.0041    0.0020 C.ar      1 <0>        -0.1199
      7 C7          3.6984   -0.6885   -0.0382 C.2       1 <0>         0.1669
      8 C8          3.9969   -1.9642    0.6237 C.2       1 <0>        -0.1903
      9 C9          5.2934   -2.2585    0.3495 C.2       1 <0>         0.0466
     10 O1          5.7958   -1.2786   -0.4134 O.3       1 <0>        -0.0618
     11 N1          4.7929   -0.3109   -0.6520 N.2       1 <0>        -0.2877
     12 C10         6.0401   -3.4790    0.8225 C.3       1 <0>         0.1377
     13 F1          5.8942   -4.5073   -0.1148 F         1 <0>        -0.1892
     14 C11         3.0602   -2.7769    1.4379 C.ar      1 <0>         0.0334
     15 C12         2.5595   -2.2747    2.6375 C.ar      1 <0>        -0.1160
     16 C13         1.6884   -3.0351    3.3909 C.ar      1 <0>        -0.0170
     17 C14         1.3121   -4.2936    2.9573 C.ar      1 <0>        -0.6722
     18 C15         1.8064   -4.7973    1.7676 C.ar      1 <0>        -0.0112
     19 C16         2.6732   -4.0431    1.0030 C.ar      1 <0>        -0.1243
     20 S1          0.1996   -5.2589    3.9243 S.o2      1 <0>         2.7005
     21 O2          0.4305   -6.6167    3.5746 O.2       1 <0>        -0.9595
     22 O3          0.3084   -4.7872    5.2603 O.2       1 <0>        -0.9578
     23 N2         -1.3338   -4.8937    3.4168 N.pl3     1 <0>        -1.2473
     24 H1         -0.9603    1.9042    0.0260 H         1 <0>         0.1305
     25 H2          1.1481    3.1718    0.0081 H         1 <0>         0.1325
     26 H3          3.3022    1.9838   -0.0199 H         1 <0>         0.1299
     27 H4          1.2185   -1.7603   -0.0192 H         1 <0>         0.1270
     28 H5         -0.9264   -0.5557    0.0079 H         1 <0>         0.1318
     29 H6          7.0970   -3.2374    0.9353 H         1 <0>         0.1109
     30 H7          5.6369   -3.8023    1.7822 H         1 <0>         0.1153
     31 H8          2.8529   -1.2924    2.9772 H         1 <0>         0.1359
     32 H9          1.3000   -2.6470    4.3209 H         1 <0>         0.1480
     33 H10         1.5098   -5.7808    1.4341 H         1 <0>         0.1488
     34 H11         3.0544   -4.4352    0.0717 H         1 <0>         0.1390
     35 H12        -2.0347   -5.5621    3.4709 H         1 <0>         0.4231
     36 H13        -1.5312   -4.0113    3.0655 H         1 <0>         0.4173
@<TRIPOS>BOND
     1    1    6 ar
     2    1    2 ar
     3    1   24 1
     4    2    3 ar
     5    2   25 1
     6    3    4 ar
     7    3   26 1
     8    4    5 ar
     9    4    7 1
    10    5    6 ar
    11    5   27 1
    12    6   28 1
    13    7   11 2
    14    7    8 1
    15    8    9 2
    16    8   14 1
    17    9   10 1
    18    9   12 1
    19   10   11 1
    20   12   13 1
    21   12   29 1
    22   12   30 1
    23   14   19 ar
    24   14   15 ar
    25   15   16 ar
    26   15   31 1
    27   16   17 ar
    28   16   32 1
    29   17   18 ar
    30   17   20 1
    31   18   19 ar
    32   18   33 1
    33   19   34 1
    34   20   21 2
    35   20   22 2
    36   20   23 1
    37   23   35 1
    38   23   36 1
@<TRIPOS>MOLECULE
CHEMBL401947
   48    51     0     0     0
SMALL
USER_CHARGES

@<TRIPOS>ATOM
      1 C1          0.3735    1.6405   -0.3508 C.3       1 <0>        -0.1287
      2 C2          0.3092    0.1381   -0.2514 C.ar      1 <0>        -0.0168
      3 C3          0.2123   -0.6270   -1.3986 C.ar      1 <0>        -0.1378
      4 C4          0.1533   -2.0050   -1.3074 C.ar      1 <0>        -0.0128
      5 C5          0.1917   -2.6180   -0.0690 C.ar      1 <0>        -0.6826
      6 C6          0.2895   -1.8530    1.0781 C.ar      1 <0>        -0.0094
      7 C7          0.3528   -0.4751    0.9867 C.ar      1 <0>        -0.1388
      8 S1          0.1153   -4.3745    0.0472 S.o2      1 <0>         2.6686
      9 O1         -0.3806   -4.6745    1.3447 O.2       1 <0>        -0.9247
     10 O2         -0.5228   -4.8326   -1.1369 O.2       1 <0>        -0.9212
     11 N1          1.6720   -4.9369   -0.0061 N.pl3     1 <0>        -0.8226
     12 C8          2.3077   -5.5888    1.0153 C.2       1 <0>         0.0817
     13 C9          3.5581   -5.9085    0.6462 C.2       1 <0>        -0.1715
     14 C10         3.7381   -5.4216   -0.7237 C.ar      1 <0>        -0.0645
     15 C11         2.5174   -4.8234   -1.0870 C.ar      1 <0>         0.1001
     16 C12         2.3818   -4.2672   -2.3546 C.ar      1 <0>        -0.1244
     17 C13         3.4386   -4.3112   -3.2377 C.ar      1 <0>        -0.0841
     18 C14         4.6394   -4.9056   -2.8758 C.ar      1 <0>        -0.1267
     19 C15         4.7972   -5.4506   -1.6325 C.ar      1 <0>        -0.0663
     20 C16         4.5826   -6.6309    1.4826 C.3       1 <0>         0.1597
     21 C17         5.7697   -5.6925    1.8184 C.3       1 <0>        -0.1290
     22 C18         5.3914   -5.2520    3.2583 C.3       1 <0>         0.0953
     23 H1          4.6856   -4.4217    3.2355 H         1 <0>         0.1153
     24 O3          4.7702   -6.4369    3.7999 O.3       1 <0>        -0.3241
     25 C19         4.0051   -6.9898    2.8384 C.2       1 <0>         0.4613
     26 O4          3.0186   -7.6619    3.0259 O.2       1 <0>        -0.4210
     27 C20         6.6415   -4.8769    4.0568 C.3       1 <0>        -0.1269
     28 S2          6.1600   -4.3687    5.7303 S.3       1 <0>         0.0797
     29 C21         7.7036   -3.9701    6.5198 C.1       1 <0>         0.1703
     30 N2          8.6893   -3.7157    7.0240 N.1       1 <0>        -0.3714
     31 O5          5.0424   -7.8034    0.8074 O.3       1 <0>        -0.5179
     32 H2          1.4138    1.9548   -0.4346 H         1 <0>         0.0832
     33 H3         -0.1777    1.9703   -1.2314 H         1 <0>         0.0761
     34 H4         -0.0690    2.0829    0.5417 H         1 <0>         0.0761
     35 H5          0.1823   -0.1480   -2.3662 H         1 <0>         0.1385
     36 H6          0.0768   -2.6027   -2.2037 H         1 <0>         0.1415
     37 H7          0.3192   -2.3319    2.0457 H         1 <0>         0.1431
     38 H8          0.4330    0.1224    1.8828 H         1 <0>         0.1386
     39 H9          1.8686   -5.8127    1.9762 H         1 <0>         0.1926
     40 H10         1.4513   -3.8028   -2.6458 H         1 <0>         0.1280
     41 H11         3.3312   -3.8791   -4.2217 H         1 <0>         0.1359
     42 H12         5.4578   -4.9319   -3.5800 H         1 <0>         0.1322
     43 H13         5.7341   -5.9126   -1.3582 H         1 <0>         0.1338
     44 H14         6.7152   -6.2348    1.8083 H         1 <0>         0.1166
     45 H15         5.8006   -4.8390    1.1411 H         1 <0>         0.1169
     46 H16         7.3069   -5.7381    4.1159 H         1 <0>         0.1164
     47 H17         7.1558   -4.0537    3.5610 H         1 <0>         0.1270
     48 H18         4.3430   -8.4387    0.6020 H         1 <0>         0.3945
@<TRIPOS>BOND
     1    1    2 1
     2    1   32 1
     3    1   33 1
     4    1   34 1
     5    2    7 ar
     6    2    3 ar
     7    3    4 ar
     8    3   35 1
     9    4    5 ar
    10    4   36 1
    11    5    6 ar
    12    5    8 1
    13    6    7 ar
    14    6   37 1
    15    7   38 1
    16    8    9 2
    17    8   10 2
    18    8   11 1
    19   11   15 1
    20   11   12 1
    21   12   13 2
    22   12   39 1
    23   13   14 1
    24   13   20 1
    25   14   19 ar
    26   14   15 ar
    27   15   16 ar
    28   16   17 ar
    29   16   40 1
    30   17   18 ar
    31   17   41 1
    32   18   19 ar
    33   18   42 1
    34   19   43 1
    35   20   25 1
    36   20   21 1
    37   20   31 1
    38   21   22 1
    39   21   44 1
    40   21   45 1
    41   22   23 1
    42   22   24 1
    43   22   27 1
    44   24   25 1
    45   25   26 2
    46   27   28 1
    47   27   46 1
    48   27   47 1
    49   28   29 1
    50   29   30 3
    51   31   48 1
@<TRIPOS>MOLECULE
CHEMBL30091
   41    43     0     0     0
SMALL
USER_CHARGES

@<TRIPOS>ATOM
      1 C1          0.1311    1.2508    0.2144 C.ar      1 <0>        -0.1260
      2 C2          1.3553    1.8847    0.2989 C.ar      1 <0>        -0.0015
      3 C3          2.5197    1.1399    0.3409 C.ar      1 <0>        -0.6763
      4 C4          2.4626   -0.2411    0.2985 C.ar      1 <0>         0.0045
      5 C5          1.2415   -0.8809    0.2144 C.ar      1 <0>        -0.1337
      6 C6          0.0704   -0.1359    0.1721 C.ar      1 <0>         0.2028
      7 N1         -1.1695   -0.7818    0.0869 N.pl3     1 <0>        -0.3136
      8 C7         -1.4640   -1.8612   -0.6991 C.2       1 <0>         0.1383
      9 C8         -2.7890   -2.1734   -0.4776 C.2       1 <0>        -0.2054
     10 C9         -3.2880   -1.2643    0.4547 C.2       1 <0>        -0.0037
     11 N2         -2.3283   -0.4416    0.7958 N.2       1 <0>        -0.2261
     12 C10        -4.6976   -1.2375    0.9871 C.3       1 <0>         0.5575
     13 F1         -4.7794   -2.0388    2.1310 F         1 <0>        -0.1645
     14 F2         -5.0483    0.0771    1.3126 F         1 <0>        -0.1645
     15 F3         -5.5737   -1.7260    0.0119 F         1 <0>        -0.1613
     16 C11        -0.5411   -2.5584   -1.6102 C.2       1 <0>        -0.0903
     17 C12        -0.0042   -1.8705   -2.5929 C.2       1 <0>        -0.0980
     18 C13         0.9441   -2.4534   -3.5998 C.3       1 <0>        -0.0942
     19 C14         1.5105   -3.7781   -3.0846 C.3       1 <0>        -0.1241
     20 C15         0.3447   -4.6540   -2.6094 C.3       1 <0>        -0.1194
     21 C16        -0.2633   -4.0118   -1.3590 C.3       1 <0>        -0.0736
     22 S1          4.0795    1.9524    0.4481 S.o2      1 <0>         2.7037
     23 O1          5.0441    1.0507   -0.0770 O.2       1 <0>        -0.9574
     24 O2          3.8934    3.2597   -0.0770 O.2       1 <0>        -0.9547
     25 N3          4.4276    2.1337    2.0569 N.pl3     1 <0>        -1.2467
     26 H1         -0.7782    1.8329    0.1858 H         1 <0>         0.1466
     27 H2          1.4032    2.9631    0.3319 H         1 <0>         0.1563
     28 H3          3.3738   -0.8199    0.3307 H         1 <0>         0.1562
     29 H4          1.1976   -1.9595    0.1809 H         1 <0>         0.1438
     30 H5         -3.3407   -2.9771   -0.9424 H         1 <0>         0.1721
     31 H6         -0.2605   -0.8250   -2.6813 H         1 <0>         0.1047
     32 H7          0.4146   -2.6268   -4.5367 H         1 <0>         0.0853
     33 H8          1.7618   -1.7539   -3.7733 H         1 <0>         0.0818
     34 H9          2.0455   -4.2847   -3.8878 H         1 <0>         0.0723
     35 H10         2.1883   -3.5876   -2.2524 H         1 <0>         0.0670
     36 H11        -0.4084   -4.7189   -3.3948 H         1 <0>         0.0699
     37 H12         0.7113   -5.6513   -2.3664 H         1 <0>         0.0732
     38 H13         0.4318   -4.1080   -0.5250 H         1 <0>         0.0766
     39 H14        -1.1950   -4.5201   -1.1107 H         1 <0>         0.0802
     40 H15         5.3504    2.1408    2.3557 H         1 <0>         0.4239
     41 H16         3.7087    2.2328    2.7005 H         1 <0>         0.4183
@<TRIPOS>BOND
     1    1    6 ar
     2    1    2 ar
     3    1   26 1
     4    2    3 ar
     5    2   27 1
     6    3    4 ar
     7    3   22 1
     8    4    5 ar
     9    4   28 1
    10    5    6 ar
    11    5   29 1
    12    6    7 1
    13    7   11 1
    14    7    8 1
    15    8    9 2
    16    8   16 1
    17    9   10 1
    18    9   30 1
    19   10   11 2
    20   10   12 1
    21   12   13 1
    22   12   14 1
    23   12   15 1
    24   16   21 1
    25   16   17 2
    26   17   18 1
    27   17   31 1
    28   18   19 1
    29   18   32 1
    30   18   33 1
    31   19   20 1
    32   19   34 1
    33   19   35 1
    34   20   21 1
    35   20   36 1
    36   20   37 1
    37   21   38 1
    38   21   39 1
    39   22   23 2
    40   22   24 2
    41   22   25 1
    42   25   40 1
    43   25   41 1
@<TRIPOS>MOLECULE
CHEMBL187137
   51    54     0     0     0
SMALL
USER_CHARGES

@<TRIPOS>ATOM
      1 C1         -0.0173    1.4248    0.0099 C.3       1 <0>         0.0222
      2 O1          0.0021   -0.0041    0.0020 O.3       1 <0>        -0.3100
      3 C2         -1.1992   -0.6369    0.0101 C.ar      1 <0>         0.1608
      4 C3         -2.3735    0.1061    0.0195 C.ar      1 <0>        -0.2138
      5 C4         -3.5943   -0.5315    0.0272 C.ar      1 <0>        -0.0303
      6 C5         -3.6509   -1.9284    0.0256 C.ar      1 <0>        -0.1216
      7 C6         -2.4669   -2.6718    0.0162 C.ar      1 <0>        -0.0364
      8 C7         -1.2507   -2.0256    0.0031 C.ar      1 <0>        -0.1550
      9 C8         -4.9555   -2.6157    0.0344 C.2       1 <0>         0.2177
     10 C9         -4.9929   -3.9784    0.0384 C.2       1 <0>        -0.2430
     11 C10        -6.2334   -4.6438    0.0472 C.2       1 <0>         0.1029
     12 C11        -7.4066   -3.8762    0.0517 C.2       1 <0>        -0.2202
     13 C12        -7.2969   -2.4675    0.0472 C.2       1 <0>         0.5109
     14 O2         -8.3026   -1.7788    0.0510 O.2       1 <0>        -0.4568
     15 O3         -6.0852   -1.8857    0.0439 O.3       1 <0>        -0.2578
     16 C13        -8.7341   -4.5287    0.0605 C.ar      1 <0>         0.0420
     17 C14        -9.1417   -5.3030   -1.0269 C.ar      1 <0>        -0.1174
     18 C15       -10.3810   -5.9088   -1.0124 C.ar      1 <0>        -0.0211
     19 C16       -11.2193   -5.7501    0.0770 C.ar      1 <0>        -0.6575
     20 C17       -10.8214   -4.9835    1.1579 C.ar      1 <0>        -0.0206
     21 C18        -9.5821   -4.3774    1.1587 C.ar      1 <0>        -0.1153
     22 S1        -12.8006   -6.5273    0.0874 S.o2      1 <0>         2.4985
     23 O4        -13.5943   -5.7228    0.9488 O.2       1 <0>        -0.9363
     24 O5        -13.1414   -6.6744   -1.2842 O.2       1 <0>        -0.9369
     25 C19       -12.5156   -8.1538    0.8383 C.3       1 <0>        -0.6503
     26 C20        -6.2979   -6.1226    0.0512 C.ar      1 <0>        -0.0712
     27 C21        -6.8367   -6.7974    1.1471 C.ar      1 <0>        -0.0879
     28 C22        -6.8938   -8.1759    1.1447 C.ar      1 <0>        -0.1173
     29 C23        -6.4178   -8.8890    0.0588 C.ar      1 <0>        -0.1052
     30 C24        -5.8820   -8.2258   -1.0308 C.ar      1 <0>        -0.1167
     31 C25        -5.8252   -6.8474   -1.0435 C.ar      1 <0>        -0.0942
     32 H1          1.0053    1.8021    0.0021 H         1 <0>         0.1060
     33 H2         -0.5445    1.7859   -0.8732 H         1 <0>         0.0607
     34 H3         -0.5275    1.7763    0.9067 H         1 <0>         0.0607
     35 H4         -2.3288    1.1852    0.0211 H         1 <0>         0.1393
     36 H5         -4.5065    0.0467    0.0349 H         1 <0>         0.1402
     37 H6         -2.5060   -3.7511    0.0153 H         1 <0>         0.1428
     38 H7         -0.3355   -2.5990   -0.0083 H         1 <0>         0.1438
     39 H8         -4.0739   -4.5456    0.0344 H         1 <0>         0.1624
     40 H9         -8.4884   -5.4273   -1.8779 H         1 <0>         0.1306
     41 H10       -10.6978   -6.5079   -1.8533 H         1 <0>         0.1439
     42 H11       -11.4807   -4.8630    2.0048 H         1 <0>         0.1448
     43 H12        -9.2708   -3.7832    2.0051 H         1 <0>         0.1317
     44 H13       -12.1232   -8.0246    1.8470 H         1 <0>         0.1315
     45 H14       -13.4558   -8.7036    0.8819 H         1 <0>         0.1332
     46 H15       -11.7967   -8.7106    0.2373 H         1 <0>         0.1313
     47 H16        -7.2079   -6.2419    1.9957 H         1 <0>         0.1243
     48 H17        -7.3106   -8.6994    1.9924 H         1 <0>         0.1276
     49 H18        -6.4645   -9.9680    0.0618 H         1 <0>         0.1263
     50 H19        -5.5114   -8.7882   -1.8751 H         1 <0>         0.1289
     51 H20        -5.4112   -6.3306   -1.8967 H         1 <0>         0.1274
@<TRIPOS>BOND
     1    1    2 1
     2    1   32 1
     3    1   33 1
     4    1   34 1
     5    2    3 1
     6    3    8 ar
     7    3    4 ar
     8    4    5 ar
     9    4   35 1
    10    5    6 ar
    11    5   36 1
    12    6    7 ar
    13    6    9 1
    14    7    8 ar
    15    7   37 1
    16    8   38 1
    17    9   15 1
    18    9   10 2
    19   10   11 1
    20   10   39 1
    21   11   12 2
    22   11   26 1
    23   12   13 1
    24   12   16 1
    25   13   14 2
    26   13   15 1
    27   16   21 ar
    28   16   17 ar
    29   17   18 ar
    30   17   40 1
    31   18   19 ar
    32   18   41 1
    33   19   20 ar
    34   19   22 1
    35   20   21 ar
    36   20   42 1
    37   21   43 1
    38   22   23 2
    39   22   24 2
    40   22   25 1
    41   25   44 1
    42   25   45 1
    43   25   46 1
    44   26   31 ar
    45   26   27 ar
    46   27   28 ar
    47   27   47 1
    48   28   29 ar
    49   28   48 1
    50   29   30 ar
    51   29   49 1
    52   30   31 ar
    53   30   50 1
    54   31   51 1
@<TRIPOS>MOLECULE
CHEMBL109017
   36    38     0     0     0
SMALL
USER_CHARGES

@<TRIPOS>ATOM
      1 C1         -0.0184    1.5028    0.0103 C.3       1 <0>        -0.0870
      2 C2          0.0021   -0.0041    0.0020 C.2       1 <0>         0.0552
      3 C3          0.0053   -0.6791   -1.1797 C.2       1 <0>        -0.1928
      4 S1          0.0319   -2.3690   -0.5946 S.3       1 <0>         0.0477
      5 C4          0.0359   -1.9939    1.1537 C.2       1 <0>         0.1533
      6 N1          0.0223   -0.6665    1.1329 N.2       1 <0>        -0.4429
      7 C5          0.0547   -2.9102    2.3060 C.2       1 <0>         0.3050
      8 N2          0.0503   -2.5557    3.5741 N.2       1 <0>        -0.3833
      9 C6          0.0710   -3.6517    4.3392 C.2       1 <0>        -0.0813
     10 C7          0.0892   -4.7352    3.5347 C.2       1 <0>         0.0562
     11 N3          0.0740   -4.2772    2.2435 N.pl3     1 <0>        -0.4056
     12 C8          0.0796   -5.0591    1.0809 C.ar      1 <0>         0.1598
     13 C9         -0.8456   -4.8159    0.0745 C.ar      1 <0>        -0.1319
     14 C10        -0.8372   -5.5881   -1.0706 C.ar      1 <0>         0.0119
     15 C11         0.0913   -6.6026   -1.2154 C.ar      1 <0>        -0.6676
     16 C12         1.0139   -6.8472   -0.2148 C.ar      1 <0>         0.0060
     17 C13         1.0140   -6.0750    0.9303 C.ar      1 <0>        -0.1244
     18 S2          0.0984   -7.5859   -2.6774 S.o2      1 <0>         2.7023
     19 O1          0.7122   -8.8205   -2.3336 O.2       1 <0>        -0.9543
     20 O2         -1.2118   -7.5123   -3.2227 O.2       1 <0>        -0.9541
     21 N4          1.1050   -6.8428   -3.7624 N.pl3     1 <0>        -1.2479
     22 C14         0.0741   -3.6736    5.8461 C.3       1 <0>         0.5579
     23 F1         -0.0637   -2.3689    6.3318 F         1 <0>        -0.1594
     24 F2         -0.9916   -4.4564    6.3032 F         1 <0>        -0.1689
     25 F3          1.2803   -4.2161    6.3021 F         1 <0>        -0.1689
     26 H1          1.0042    1.8801    0.0026 H         1 <0>         0.0786
     27 H2         -0.5455    1.8639   -0.8728 H         1 <0>         0.0785
     28 H3         -0.5286    1.8543    0.9071 H         1 <0>         0.0795
     29 H4         -0.0057   -0.2996   -2.1907 H         1 <0>         0.2061
     30 H5          0.1082   -5.7682    3.8493 H         1 <0>         0.2080
     31 H6         -1.5712   -4.0239    0.1871 H         1 <0>         0.1488
     32 H7         -1.5567   -5.3996   -1.8536 H         1 <0>         0.1613
     33 H8          1.7376   -7.6405   -0.3306 H         1 <0>         0.1613
     34 H9          1.7375   -6.2639    1.7096 H         1 <0>         0.1507
     35 H10         1.5543   -6.0178   -3.5207 H         1 <0>         0.4176
     36 H11         1.2453   -7.2326   -4.6394 H         1 <0>         0.4245
@<TRIPOS>BOND
     1    1    2 1
     2    1   26 1
     3    1   27 1
     4    1   28 1
     5    2    6 1
     6    2    3 2
     7    3    4 1
     8    3   29 1
     9    4    5 1
    10    5    6 2
    11    5    7 1
    12    7   11 1
    13    7    8 2
    14    8    9 1
    15    9   10 2
    16    9   22 1
    17   10   11 1
    18   10   30 1
    19   11   12 1
    20   12   17 ar
    21   12   13 ar
    22   13   14 ar
    23   13   31 1
    24   14   15 ar
    25   14   32 1
    26   15   16 ar
    27   15   18 1
    28   16   17 ar
    29   16   33 1
    30   17   34 1
    31   18   19 2
    32   18   20 2
    33   18   21 1
    34   21   35 1
    35   21   36 1
    36   22   23 1
    37   22   24 1
    38   22   25 1
@<TRIPOS>MOLECULE
CHEMBL350729
   31    33     0     0     0
SMALL
USER_CHARGES

@<TRIPOS>ATOM
      1 C1          2.1166    1.4196   -0.7316 C.ar      1 <0>        -0.0965
      2 C2          1.1739    2.0857    0.0303 C.ar      1 <0>        -0.1051
      3 C3          0.2530    1.3724    0.7752 C.ar      1 <0>        -0.1648
      4 C4          0.2713   -0.0086    0.7602 C.ar      1 <0>        -0.0742
      5 C5          1.2164   -0.6808   -0.0042 C.ar      1 <0>         0.1753
      6 C6          2.1406    0.0391   -0.7511 C.ar      1 <0>        -0.1232
      7 N1          1.2381   -2.0780   -0.0212 N.pl3     1 <0>        -0.6476
      8 C7          0.0531   -2.7920    0.0915 C.ar      1 <0>         0.4173
      9 C8          0.0887   -4.1926    0.1947 C.ar      1 <0>        -0.0937
     10 C9         -1.1170   -4.8904    0.3077 C.ar      1 <0>        -0.0119
     11 C10        -2.2985   -4.1666    0.3129 C.ar      1 <0>        -0.2188
     12 C11        -2.2529   -2.7894    0.2074 C.ar      1 <0>         0.1499
     13 N2         -1.1030   -2.1493    0.1066 N.ar      1 <0>        -0.5278
     14 C12         1.3763   -4.9143    0.1834 C.2       1 <0>         0.1400
     15 N3          2.5678   -4.3751    0.0883 N.2       1 <0>        -0.2921
     16 N4          3.4597   -5.3020    0.1105 N.2       1 <0>        -0.3358
     17 C13         2.8728   -6.4708    0.2208 C.2       1 <0>         0.3421
     18 O1          1.5447   -6.2522    0.2752 O.3       1 <0>        -0.2320
     19 S1          3.6753   -8.0379    0.2922 S.3       1 <0>        -0.7159
     20 C14        -0.7717    2.1026    1.6047 C.3       1 <0>         0.5104
     21 F1         -0.5917    3.4823    1.4597 F         1 <0>        -0.1799
     22 F2         -2.0558    1.7520    1.1742 F         1 <0>        -0.1749
     23 F3         -0.6188    1.7511    2.9501 F         1 <0>        -0.1781
     24 H1          2.8319    1.9797   -1.3155 H         1 <0>         0.1358
     25 H2          1.1574    3.1655    0.0438 H         1 <0>         0.1346
     26 H3         -0.4481   -0.5652    1.3425 H         1 <0>         0.1458
     27 H4          2.8768   -0.4804   -1.3465 H         1 <0>         0.1349
     28 H5          2.0813   -2.5489   -0.1119 H         1 <0>         0.4397
     29 H6         -1.1275   -5.9673    0.3886 H         1 <0>         0.1441
     30 H7         -3.2476   -4.6748    0.3984 H         1 <0>         0.1402
     31 H8         -3.1746   -2.2265    0.2112 H         1 <0>         0.1623
@<TRIPOS>BOND
     1    1    6 ar
     2    1    2 ar
     3    1   24 1
     4    2    3 ar
     5    2   25 1
     6    3    4 ar
     7    3   20 1
     8    4    5 ar
     9    4   26 1
    10    5    6 ar
    11    5    7 1
    12    6   27 1
    13    7    8 1
    14    7   28 1
    15    8   13 ar
    16    8    9 ar
    17    9   10 ar
    18    9   14 1
    19   10   11 ar
    20   10   29 1
    21   11   12 ar
    22   11   30 1
    23   12   13 ar
    24   12   31 1
    25   14   18 1
    26   14   15 2
    27   15   16 1
    28   16   17 2
    29   17   18 1
    30   17   19 1
    31   20   21 1
    32   20   22 1
    33   20   23 1
@<TRIPOS>MOLECULE
CHEMBL89429
   41    44     0     0     0
SMALL
USER_CHARGES

@<TRIPOS>ATOM
      1 C1         -0.0225    1.8097    0.0120 C.3       1 <0>        -0.6506
      2 S1          0.0021   -0.0041    0.0020 S.o2      1 <0>         2.4987
      3 O1          0.8352   -0.4880    1.0465 O.2       1 <0>        -0.9369
      4 O2         -1.3147   -0.5105   -0.1678 O.2       1 <0>        -0.9365
      5 C2          0.8454   -0.4373   -1.4831 C.ar      1 <0>        -0.6605
      6 C3          0.1315   -0.6121   -2.6550 C.ar      1 <0>        -0.0214
      7 C4          0.7867   -0.9519   -3.8211 C.ar      1 <0>        -0.1258
      8 C5          2.1705   -1.1185   -3.8166 C.ar      1 <0>         0.0258
      9 C6          2.8848   -0.9406   -2.6330 C.ar      1 <0>        -0.1265
     10 C7          2.2196   -0.5958   -1.4740 C.ar      1 <0>        -0.0211
     11 C8          2.8802   -1.4841   -5.0665 C.2       1 <0>        -0.0725
     12 C9          3.7716   -0.7072   -5.6957 C.2       1 <0>        -0.1026
     13 C10         4.2333   -1.4722   -6.9098 C.3       1 <0>        -0.1099
     14 C11         4.5479   -0.7635   -8.2235 C.3       1 <0>        -0.1344
     15 C12         5.6757   -1.3904   -7.3995 C.3       1 <0>        -0.1336
     16 C13         3.4862   -2.7812   -6.8829 C.2       1 <0>        -0.1075
     17 C14         2.7098   -2.7595   -5.7915 C.2       1 <0>        -0.0580
     18 C15         1.8045   -3.8573   -5.3737 C.ar      1 <0>        -0.0482
     19 C16         0.4245   -3.6605   -5.3656 C.ar      1 <0>        -0.0757
     20 C17        -0.4139   -4.6846   -4.9761 C.ar      1 <0>        -0.1509
     21 C18         0.1139   -5.9071   -4.5929 C.ar      1 <0>         0.1016
     22 C19         1.4850   -6.1070   -4.5990 C.ar      1 <0>        -0.1516
     23 C20         2.3307   -5.0908   -4.9933 C.ar      1 <0>        -0.0756
     24 F1         -0.7108   -6.9070   -4.2118 F         1 <0>        -0.1377
     25 H1          1.0001    2.1870    0.0043 H         1 <0>         0.1314
     26 H2         -0.5497    2.1708   -0.8711 H         1 <0>         0.1315
     27 H3         -0.5327    2.1613    0.9088 H         1 <0>         0.1335
     28 H4         -0.9407   -0.4828   -2.6573 H         1 <0>         0.1439
     29 H5          0.2282   -1.0889   -4.7353 H         1 <0>         0.1327
     30 H6          3.9571   -1.0684   -2.6238 H         1 <0>         0.1339
     31 H7          2.7724   -0.4538   -0.5572 H         1 <0>         0.1441
     32 H8          4.0963    0.2770   -5.3921 H         1 <0>         0.1464
     33 H9          4.2607   -1.2652   -9.1476 H         1 <0>         0.1063
     34 H10         4.4795    0.3242   -8.2377 H         1 <0>         0.1058
     35 H11         6.3490   -0.7149   -6.8718 H         1 <0>         0.1059
     36 H12         6.1303   -2.3044   -7.7817 H         1 <0>         0.1064
     37 H13         3.5653   -3.5834   -7.6017 H         1 <0>         0.1469
     38 H14         0.0123   -2.7078   -5.6635 H         1 <0>         0.1321
     39 H15        -1.4832   -4.5331   -4.9696 H         1 <0>         0.1387
     40 H16         1.8921   -7.0613   -4.2989 H         1 <0>         0.1382
     41 H17         3.3990   -5.2492   -5.0027 H         1 <0>         0.1335
@<TRIPOS>BOND
     1    1    2 1
     2    1   25 1
     3    1   26 1
     4    1   27 1
     5    2    3 2
     6    2    4 2
     7    2    5 1
     8    5   10 ar
     9    5    6 ar
    10    6    7 ar
    11    6   28 1
    12    7    8 ar
    13    7   29 1
    14    8    9 ar
    15    8   11 1
    16    9   10 ar
    17    9   30 1
    18   10   31 1
    19   11   17 1
    20   11   12 2
    21   12   13 1
    22   12   32 1
    23   13   15 1
    24   13   14 1
    25   13   16 1
    26   14   15 1
    27   14   33 1
    28   14   34 1
    29   15   35 1
    30   15   36 1
    31   16   17 2
    32   16   37 1
    33   17   18 1
    34   18   23 ar
    35   18   19 ar
    36   19   20 ar
    37   19   38 1
    38   20   21 ar
    39   20   39 1
    40   21   22 ar
    41   21   24 1
    42   22   23 ar
    43   22   40 1
    44   23   41 1
@<TRIPOS>MOLECULE
CHEMBL427356
   32    33     0     0     0
SMALL
USER_CHARGES

@<TRIPOS>ATOM
      1 C1         -0.0225    1.8097    0.0120 C.3       1 <0>        -0.6491
      2 S1          0.0021   -0.0041    0.0020 S.o2      1 <0>         2.4993
      3 O1          0.8352   -0.4880    1.0465 O.2       1 <0>        -0.9331
      4 O2         -1.3147   -0.5105   -0.1678 O.2       1 <0>        -0.9329
      5 C2          0.8454   -0.4373   -1.4831 C.ar      1 <0>        -0.6456
      6 C3          0.1300   -0.6119   -2.6551 C.ar      1 <0>        -0.0236
      7 C4          0.7825   -0.9505   -3.8215 C.ar      1 <0>        -0.1031
      8 C5          2.1715   -1.1176   -3.8183 C.ar      1 <0>         0.0465
      9 C6          2.8872   -0.9393   -2.6296 C.ar      1 <0>        -0.1043
     10 C7          2.2205   -0.5956   -1.4728 C.ar      1 <0>        -0.0244
     11 C8          2.8569   -1.4697   -5.0253 C.1       1 <0>        -0.0437
     12 C9          3.4188   -1.7584   -6.0149 C.1       1 <0>        -0.1944
     13 C10         4.1042   -2.1105   -7.2219 C.2       1 <0>         0.5119
     14 O3          3.4781   -2.2652   -8.2544 O.2       1 <0>        -0.4230
     15 C11         5.5717   -2.2860   -7.2141 C.ar      1 <0>        -0.1736
     16 C12         6.2918   -2.1147   -6.0295 C.ar      1 <0>        -0.0362
     17 C13         7.6601   -2.2795   -6.0279 C.ar      1 <0>        -0.1657
     18 C14         8.3220   -2.6149   -7.1995 C.ar      1 <0>         0.1387
     19 C15         7.6120   -2.7862   -8.3783 C.ar      1 <0>        -0.1648
     20 C16         6.2428   -2.6295   -8.3900 C.ar      1 <0>        -0.0244
     21 F1          9.6635   -2.7749   -7.1925 F         1 <0>        -0.1293
     22 H1          1.0001    2.1870    0.0043 H         1 <0>         0.1327
     23 H2         -0.5497    2.1708   -0.8711 H         1 <0>         0.1328
     24 H3         -0.5327    2.1613    0.9088 H         1 <0>         0.1356
     25 H4         -0.9423   -0.4829   -2.6559 H         1 <0>         0.1524
     26 H5          0.2228   -1.0867   -4.7351 H         1 <0>         0.1429
     27 H6          3.9597   -1.0665   -2.6191 H         1 <0>         0.1423
     28 H7          2.7721   -0.4537   -0.5552 H         1 <0>         0.1524
     29 H8          5.7774   -1.8531   -5.1166 H         1 <0>         0.1403
     30 H9          8.2180   -2.1470   -5.1127 H         1 <0>         0.1462
     31 H10         8.1325   -3.0471   -9.2880 H         1 <0>         0.1477
     32 H11         5.6903   -2.7675   -9.3077 H         1 <0>         0.1496
@<TRIPOS>BOND
     1    1    2 1
     2    1   22 1
     3    1   23 1
     4    1   24 1
     5    2    3 2
     6    2    4 2
     7    2    5 1
     8    5   10 ar
     9    5    6 ar
    10    6    7 ar
    11    6   25 1
    12    7    8 ar
    13    7   26 1
    14    8    9 ar
    15    8   11 1
    16    9   10 ar
    17    9   27 1
    18   10   28 1
    19   11   12 3
    20   12   13 1
    21   13   14 2
    22   13   15 1
    23   15   20 ar
    24   15   16 ar
    25   16   17 ar
    26   16   29 1
    27   17   18 ar
    28   17   30 1
    29   18   19 ar
    30   18   21 1
    31   19   20 ar
    32   19   31 1
    33   20   32 1
@<TRIPOS>MOLECULE
CHEMBL155781
   50    53     0     0     0
SMALL
USER_CHARGES

@<TRIPOS>ATOM
      1 C1         -0.0225    1.8097    0.0120 C.3       1 <0>        -0.6502
      2 S1          0.0021   -0.0041    0.0020 S.o2      1 <0>         2.4970
      3 O1          0.8352   -0.4880    1.0465 O.2       1 <0>        -0.9344
      4 O2         -1.3147   -0.5105   -0.1678 O.2       1 <0>        -0.9344
      5 C2          0.8454   -0.4373   -1.4831 C.ar      1 <0>        -0.6509
      6 C3          0.1311   -0.6120   -2.6551 C.ar      1 <0>        -0.0191
      7 C4          0.7855   -0.9513   -3.8213 C.ar      1 <0>        -0.1186
      8 C5          2.1708   -1.1177   -3.8172 C.ar      1 <0>        -0.0041
      9 C6          2.8855   -0.9397   -2.6322 C.ar      1 <0>        -0.1089
     10 C7          2.2199   -0.5958   -1.4737 C.ar      1 <0>        -0.0184
     11 C8          2.8793   -1.4822   -5.0648 C.2       1 <0>        -0.0188
     12 C9          2.6398   -2.7268   -5.6837 C.2       1 <0>         0.0869
     13 N1          3.2619   -3.0518   -6.7829 N.2       1 <0>        -0.2063
     14 N2          4.1809   -2.1859   -7.3827 N.am      1 <0>        -0.4066
     15 C10         4.4506   -0.9833   -6.8373 C.2       1 <0>         0.5068
     16 O3          5.2537   -0.2331   -7.3672 O.2       1 <0>        -0.5165
     17 C11         3.7880   -0.5956   -5.6457 C.2       1 <0>        -0.0749
     18 C12         4.0581    0.7208   -5.0267 C.ar      1 <0>        -0.0516
     19 C13         3.0449    1.6770   -4.9444 C.ar      1 <0>        -0.0638
     20 C14         3.3019    2.9024   -4.3660 C.ar      1 <0>        -0.1531
     21 C15         4.5636    3.1849   -3.8670 C.ar      1 <0>         0.1112
     22 C16         5.5733    2.2389   -3.9463 C.ar      1 <0>        -0.1506
     23 C17         5.3255    1.0085   -4.5180 C.ar      1 <0>        -0.0542
     24 F1          4.8103    4.3869   -3.3018 F         1 <0>        -0.1355
     25 C18         4.8584   -2.5901   -8.6172 C.3       1 <0>         0.1268
     26 C19         6.1571   -3.3208   -8.2704 C.3       1 <0>        -0.1014
     27 C20         6.8647   -3.7429   -9.5596 C.3       1 <0>        -0.1534
     28 C21         7.0360   -5.2420   -9.8131 C.3       1 <0>        -0.1776
     29 C22         8.2459   -4.3880   -9.4288 C.3       1 <0>        -0.1770
     30 H1          1.0001    2.1870    0.0043 H         1 <0>         0.1323
     31 H2         -0.5497    2.1708   -0.8711 H         1 <0>         0.1324
     32 H3         -0.5327    2.1613    0.9088 H         1 <0>         0.1350
     33 H4         -0.9412   -0.4829   -2.6569 H         1 <0>         0.1485
     34 H5          0.2267   -1.0881   -4.7353 H         1 <0>         0.1392
     35 H6          3.9579   -1.0675   -2.6225 H         1 <0>         0.1349
     36 H7          2.7724   -0.4537   -0.5566 H         1 <0>         0.1473
     37 H8          1.9354   -3.4169   -5.2433 H         1 <0>         0.1987
     38 H9          2.0614    1.4580   -5.3332 H         1 <0>         0.1324
     39 H10         2.5186    3.6432   -4.3020 H         1 <0>         0.1404
     40 H11         6.5549    2.4642   -3.5563 H         1 <0>         0.1415
     41 H12         6.1118    0.2704   -4.5752 H         1 <0>         0.1331
     42 H13         4.2089   -3.2542   -9.1874 H         1 <0>         0.0995
     43 H14         5.0868   -1.7060   -9.2125 H         1 <0>         0.1034
     44 H15         6.8066   -2.6566   -7.7002 H         1 <0>         0.0719
     45 H16         5.9288   -4.2049   -7.6751 H         1 <0>         0.0717
     46 H17         6.6880   -3.1029  -10.4241 H         1 <0>         0.1087
     47 H18         6.6446   -5.9275   -9.0615 H         1 <0>         0.0949
     48 H19         6.9719   -5.5886  -10.8446 H         1 <0>         0.0957
     49 H20         8.9777   -4.1727  -10.2073 H         1 <0>         0.0964
     50 H21         8.6505   -4.5116   -8.4242 H         1 <0>         0.0937
@<TRIPOS>BOND
     1    1    2 1
     2    1   30 1
     3    1   31 1
     4    1   32 1
     5    2    3 2
     6    2    4 2
     7    2    5 1
     8    5   10 ar
     9    5    6 ar
    10    6    7 ar
    11    6   33 1
    12    7    8 ar
    13    7   34 1
    14    8    9 ar
    15    8   11 1
    16    9   10 ar
    17    9   35 1
    18   10   36 1
    19   11   17 2
    20   11   12 1
    21   12   13 2
    22   12   37 1
    23   13   14 1
    24   14   15 am
    25   14   25 1
    26   15   16 2
    27   15   17 1
    28   17   18 1
    29   18   23 ar
    30   18   19 ar
    31   19   20 ar
    32   19   38 1
    33   20   21 ar
    34   20   39 1
    35   21   22 ar
    36   21   24 1
    37   22   23 ar
    38   22   40 1
    39   23   41 1
    40   25   26 1
    41   25   42 1
    42   25   43 1
    43   26   27 1
    44   26   44 1
    45   26   45 1
    46   27   29 1
    47   27   28 1
    48   27   46 1
    49   28   29 1
    50   28   47 1
    51   28   48 1
    52   29   49 1
    53   29   50 1
@<TRIPOS>MOLECULE
CHEMBL347147
   44    47     0     0     0
SMALL
USER_CHARGES

@<TRIPOS>ATOM
      1 C1         -0.0225    1.8097    0.0120 C.3       1 <0>        -0.6501
      2 S1          0.0021   -0.0041    0.0020 S.o2      1 <0>         2.4971
      3 O1          0.8352   -0.4880    1.0465 O.2       1 <0>        -0.9344
      4 O2         -1.3147   -0.5105   -0.1678 O.2       1 <0>        -0.9344
      5 C2          0.8454   -0.4373   -1.4831 C.ar      1 <0>        -0.6508
      6 C3          0.1311   -0.6120   -2.6551 C.ar      1 <0>        -0.0191
      7 C4          0.7855   -0.9513   -3.8213 C.ar      1 <0>        -0.1185
      8 C5          2.1708   -1.1177   -3.8172 C.ar      1 <0>        -0.0042
      9 C6          2.8855   -0.9397   -2.6322 C.ar      1 <0>        -0.1088
     10 C7          2.2199   -0.5958   -1.4737 C.ar      1 <0>        -0.0184
     11 C8          2.8793   -1.4822   -5.0648 C.2       1 <0>        -0.0194
     12 C9          2.6398   -2.7268   -5.6837 C.2       1 <0>         0.0886
     13 N1          3.2619   -3.0518   -6.7829 N.2       1 <0>        -0.2086
     14 N2          4.1809   -2.1859   -7.3827 N.am      1 <0>        -0.3803
     15 C10         4.4506   -0.9833   -6.8373 C.2       1 <0>         0.5107
     16 O3          5.2537   -0.2331   -7.3672 O.2       1 <0>        -0.5159
     17 C11         3.7880   -0.5956   -5.6457 C.2       1 <0>        -0.0731
     18 C12         4.0581    0.7208   -5.0267 C.ar      1 <0>        -0.0520
     19 C13         3.0449    1.6770   -4.9444 C.ar      1 <0>        -0.0634
     20 C14         3.3019    2.9024   -4.3660 C.ar      1 <0>        -0.1531
     21 C15         4.5636    3.1849   -3.8670 C.ar      1 <0>         0.1116
     22 C16         5.5733    2.2389   -3.9463 C.ar      1 <0>        -0.1506
     23 C17         5.3255    1.0085   -4.5180 C.ar      1 <0>        -0.0541
     24 F1          4.8103    4.3869   -3.3018 F         1 <0>        -0.1354
     25 C18         4.8584   -2.5901   -8.6172 C.3       1 <0>         0.0700
     26 C19         4.3734   -3.8688   -9.3030 C.3       1 <0>        -0.1612
     27 C20         5.7164   -3.8559   -8.5702 C.3       1 <0>        -0.1747
     28 H1          1.0001    2.1870    0.0043 H         1 <0>         0.1323
     29 H2         -0.5497    2.1708   -0.8711 H         1 <0>         0.1324
     30 H3         -0.5327    2.1613    0.9088 H         1 <0>         0.1350
     31 H4         -0.9412   -0.4829   -2.6569 H         1 <0>         0.1486
     32 H5          0.2267   -1.0881   -4.7353 H         1 <0>         0.1392
     33 H6          3.9579   -1.0675   -2.6225 H         1 <0>         0.1350
     34 H7          2.7724   -0.4537   -0.5566 H         1 <0>         0.1475
     35 H8          1.9354   -3.4169   -5.2433 H         1 <0>         0.1997
     36 H9          2.0614    1.4580   -5.3332 H         1 <0>         0.1326
     37 H10         2.5186    3.6432   -4.3020 H         1 <0>         0.1406
     38 H11         6.5549    2.4642   -3.5563 H         1 <0>         0.1418
     39 H12         6.1118    0.2704   -4.5752 H         1 <0>         0.1335
     40 H13         5.1991   -1.7745   -9.2552 H         1 <0>         0.1513
     41 H14         3.5503   -4.4094   -8.8358 H         1 <0>         0.1133
     42 H15         4.3948   -3.8948  -10.3925 H         1 <0>         0.1094
     43 H16         6.6214   -3.8734   -9.1775 H         1 <0>         0.1101
     44 H17         5.7768   -4.3880   -7.6208 H         1 <0>         0.1003
@<TRIPOS>BOND
     1    1    2 1
     2    1   28 1
     3    1   29 1
     4    1   30 1
     5    2    3 2
     6    2    4 2
     7    2    5 1
     8    5   10 ar
     9    5    6 ar
    10    6    7 ar
    11    6   31 1
    12    7    8 ar
    13    7   32 1
    14    8    9 ar
    15    8   11 1
    16    9   10 ar
    17    9   33 1
    18   10   34 1
    19   11   17 2
    20   11   12 1
    21   12   13 2
    22   12   35 1
    23   13   14 1
    24   14   15 am
    25   14   25 1
    26   15   16 2
    27   15   17 1
    28   17   18 1
    29   18   23 ar
    30   18   19 ar
    31   19   20 ar
    32   19   36 1
    33   20   21 ar
    34   20   37 1
    35   21   22 ar
    36   21   24 1
    37   22   23 ar
    38   22   38 1
    39   23   39 1
    40   25   27 1
    41   25   26 1
    42   25   40 1
    43   26   27 1
    44   26   41 1
    45   26   42 1
    46   27   43 1
    47   27   44 1
@<TRIPOS>MOLECULE
CHEMBL276850
   23    25     0     0     0
SMALL
USER_CHARGES

@<TRIPOS>ATOM
      1 C1         -0.0167    1.3808    0.0096 C.ar      1 <0>        -0.1032
      2 C2          1.1692    2.0906    0.0021 C.ar      1 <0>        -0.1218
      3 C3          2.3833    1.4254   -0.0149 C.ar      1 <0>        -0.1029
      4 C4          2.4109    0.0429   -0.0247 C.ar      1 <0>         0.0631
      5 C5          1.2117   -0.6712   -0.0136 C.ar      1 <0>         0.1259
      6 C6          0.0021   -0.0041    0.0020 C.ar      1 <0>        -0.1392
      7 N1          1.2704   -2.0781   -0.0130 N.pl3     1 <0>        -0.6894
      8 C7          2.4531   -2.6508    0.4931 C.ar      1 <0>         0.1259
      9 C8          2.4669   -3.9351    1.0020 C.ar      1 <0>        -0.1393
     10 C9          3.6483   -4.4643    1.4943 C.ar      1 <0>        -0.1032
     11 C10         4.8064   -3.7103    1.4771 C.ar      1 <0>        -0.1218
     12 C11         4.7967   -2.4236    0.9661 C.ar      1 <0>        -0.1029
     13 C12         3.6221   -1.8888    0.4698 C.ar      1 <0>         0.0631
     14 O1          3.5940   -0.6306   -0.0500 O.3       1 <0>        -0.2466
     15 H1         -0.9597    1.9069    0.0260 H         1 <0>         0.1321
     16 H2          1.1486    3.1704    0.0099 H         1 <0>         0.1345
     17 H3          3.3069    1.9851   -0.0209 H         1 <0>         0.1380
     18 H4         -0.9241   -0.5595    0.0086 H         1 <0>         0.1315
     19 H5          0.5377   -2.6219   -0.3421 H         1 <0>         0.4201
     20 H6          1.5611   -4.5231    1.0163 H         1 <0>         0.1315
     21 H7          3.6645   -5.4680    1.8927 H         1 <0>         0.1321
     22 H8          5.7243   -4.1274    1.8642 H         1 <0>         0.1345
     23 H9          5.7045   -1.8386    0.9558 H         1 <0>         0.1380
@<TRIPOS>BOND
     1    1    6 ar
     2    1    2 ar
     3    1   15 1
     4    2    3 ar
     5    2   16 1
     6    3    4 ar
     7    3   17 1
     8    4   14 1
     9    4    5 ar
    10    5    6 ar
    11    5    7 1
    12    6   18 1
    13    7    8 1
    14    7   19 1
    15    8   13 ar
    16    8    9 ar
    17    9   10 ar
    18    9   20 1
    19   10   11 ar
    20   10   21 1
    21   11   12 ar
    22   11   22 1
    23   12   13 ar
    24   12   23 1
    25   13   14 1
@<TRIPOS>MOLECULE
CHEMBL91118
   37    39     0     0     0
SMALL
USER_CHARGES

@<TRIPOS>ATOM
      1 C1         -0.0225    1.8097    0.0120 C.3       1 <0>        -0.6504
      2 S1          0.0021   -0.0041    0.0020 S.o2      1 <0>         2.4999
      3 O1          0.8352   -0.4880    1.0465 O.2       1 <0>        -0.9365
      4 O2         -1.3147   -0.5105   -0.1678 O.2       1 <0>        -0.9364
      5 C2          0.8454   -0.4373   -1.4831 C.ar      1 <0>        -0.6593
      6 C3          0.1299   -0.6120   -2.6551 C.ar      1 <0>        -0.0217
      7 C4          0.7822   -0.9510   -3.8214 C.ar      1 <0>        -0.1232
      8 C5          2.1714   -1.1185   -3.8182 C.ar      1 <0>         0.0394
      9 C6          2.8872   -0.9401   -2.6293 C.ar      1 <0>        -0.1201
     10 C7          2.2204   -0.5956   -1.4727 C.ar      1 <0>        -0.0210
     11 C8          2.8749   -1.4804   -5.0571 C.2       1 <0>        -0.1109
     12 C9          3.7958   -0.8812   -5.8592 C.2       1 <0>        -0.0437
     13 C10         3.9036   -1.9753   -6.8425 C.2       1 <0>        -0.1229
     14 C11         4.5802   -2.2265   -7.9589 C.2       1 <0>        -0.1329
     15 C12         2.8875   -2.6772   -5.9759 C.3       1 <0>        -0.0526
     16 C13         4.4679    0.4354   -5.7737 C.ar      1 <0>        -0.0437
     17 C14         3.7241    1.6102   -5.8873 C.ar      1 <0>        -0.1006
     18 C15         4.3562    2.8340   -5.8068 C.ar      1 <0>        -0.1191
     19 C16         5.7248    2.8975   -5.6143 C.ar      1 <0>        -0.1152
     20 C17         6.4681    1.7361   -5.5013 C.ar      1 <0>        -0.1188
     21 C18         5.8467    0.5063   -5.5734 C.ar      1 <0>        -0.1015
     22 H1          1.0001    2.1870    0.0043 H         1 <0>         0.1316
     23 H2         -0.5497    2.1708   -0.8711 H         1 <0>         0.1316
     24 H3         -0.5327    2.1613    0.9088 H         1 <0>         0.1339
     25 H4         -0.9423   -0.4826   -2.6557 H         1 <0>         0.1459
     26 H5          0.2225   -1.0873   -4.7349 H         1 <0>         0.1360
     27 H6          3.9596   -1.0679   -2.6185 H         1 <0>         0.1341
     28 H7          2.7720   -0.4533   -0.5551 H         1 <0>         0.1455
     29 H8          5.2732   -1.4945   -8.3466 H         1 <0>         0.1131
     30 H9          4.4368   -3.1625   -8.4781 H         1 <0>         0.1179
     31 H10         3.2757   -3.5789   -5.5024 H         1 <0>         0.0922
     32 H11         1.9348   -2.8435   -6.4787 H         1 <0>         0.0912
     33 H12         2.6558    1.5619   -6.0383 H         1 <0>         0.1208
     34 H13         3.7815    3.7441   -5.8946 H         1 <0>         0.1247
     35 H14         6.2151    3.8578   -5.5523 H         1 <0>         0.1239
     36 H15         7.5362    1.7922   -5.3515 H         1 <0>         0.1256
     37 H16         6.4273   -0.3996   -5.4800 H         1 <0>         0.1231
@<TRIPOS>BOND
     1    1    2 1
     2    1   22 1
     3    1   23 1
     4    1   24 1
     5    2    3 2
     6    2    4 2
     7    2    5 1
     8    5   10 ar
     9    5    6 ar
    10    6    7 ar
    11    6   25 1
    12    7    8 ar
    13    7   26 1
    14    8    9 ar
    15    8   11 1
    16    9   10 ar
    17    9   27 1
    18   10   28 1
    19   11   15 1
    20   11   12 2
    21   12   13 1
    22   12   16 1
    23   13   14 2
    24   13   15 1
    25   14   29 1
    26   14   30 1
    27   15   31 1
    28   15   32 1
    29   16   21 ar
    30   16   17 ar
    31   17   18 ar
    32   17   33 1
    33   18   19 ar
    34   18   34 1
    35   19   20 ar
    36   19   35 1
    37   20   21 ar
    38   20   36 1
    39   21   37 1
@<TRIPOS>MOLECULE
CHEMBL276052
   44    47     0     0     0
SMALL
USER_CHARGES

@<TRIPOS>ATOM
      1 C1          0.2040    1.6614   -0.2948 C.ar      1 <0>        -0.1220
      2 C2          1.4229    2.3117   -0.2468 C.ar      1 <0>        -0.1316
      3 C3          2.5952    1.5804   -0.2020 C.ar      1 <0>        -0.0879
      4 C4          2.5485    0.1988   -0.2046 C.ar      1 <0>        -0.0993
      5 C5          1.3295   -0.4514   -0.2517 C.ar      1 <0>        -0.0987
      6 C6          0.1573    0.2799   -0.2979 C.ar      1 <0>        -0.1337
      7 C7          3.8264   -0.5984   -0.1568 C.3       1 <0>         0.1417
      8 N1          4.1883   -0.8576    1.2390 N.am      1 <0>        -0.5315
      9 C8          4.9794    0.0399    1.9012 C.2       1 <0>         0.5404
     10 C9          5.3507   -0.1364    3.1886 C.2       1 <0>        -0.9016
     11 C10         4.9190   -1.2826    3.9002 C.ar      1 <0>         0.1398
     12 C11         5.2806   -1.5020    5.2335 C.ar      1 <0>        -0.1965
     13 C12         4.8379   -2.6231    5.8759 C.ar      1 <0>        -0.0620
     14 C13         4.0334   -3.5497    5.2233 C.ar      1 <0>        -0.2004
     15 C14         3.6633   -3.3631    3.9209 C.ar      1 <0>        -0.0254
     16 C15         4.0994   -2.2269    3.2376 C.ar      1 <0>        -0.2203
     17 C16         3.7284   -1.9735    1.8423 C.2       1 <0>         0.5684
     18 O1          3.0207   -2.7585    1.2369 O.2       1 <0>        -0.5486
     19 S1          6.3727    1.0596    3.9821 S.o2      1 <0>         2.6092
     20 O2          7.3951    0.3379    4.6550 O.2       1 <0>        -0.9713
     21 O3          6.6574    2.0583    3.0120 O.2       1 <0>        -0.9231
     22 C17         5.3976    1.8328    5.2295 C.ar      1 <0>        -0.6485
     23 C18         4.5412    2.8655    4.8963 C.ar      1 <0>        -0.0157
     24 C19         3.7762    3.4720    5.8749 C.ar      1 <0>        -0.1455
     25 C20         3.8672    3.0455    7.1867 C.ar      1 <0>        -0.0789
     26 C21         4.7228    2.0122    7.5197 C.ar      1 <0>        -0.1457
     27 C22         5.4847    1.4028    6.5404 C.ar      1 <0>        -0.0298
     28 O4          5.4062    1.1439    1.2437 O.3       1 <0>        -0.6232
     29 H1         -0.7120    2.2328   -0.3253 H         1 <0>         0.1153
     30 H2          1.4594    3.3911   -0.2447 H         1 <0>         0.1186
     31 H3          3.5475    2.0884   -0.1652 H         1 <0>         0.1378
     32 H4          1.2930   -1.5308   -0.2541 H         1 <0>         0.1258
     33 H5         -0.7950   -0.2282   -0.3351 H         1 <0>         0.1165
     34 H6          3.6835   -1.5455   -0.6770 H         1 <0>         0.0897
     35 H7          4.6244   -0.0350   -0.6404 H         1 <0>         0.1029
     36 H8          5.9059   -0.7899    5.7514 H         1 <0>         0.1291
     37 H9          5.1173   -2.7922    6.9053 H         1 <0>         0.1147
     38 H10         3.6964   -4.4289    5.7523 H         1 <0>         0.1140
     39 H11         3.0378   -4.0898    3.4240 H         1 <0>         0.1219
     40 H12         4.4701    3.1987    3.8714 H         1 <0>         0.1395
     41 H13         3.1077    4.2794    5.6147 H         1 <0>         0.1265
     42 H14         3.2700    3.5199    7.9514 H         1 <0>         0.1234
     43 H15         4.7942    1.6792    8.5446 H         1 <0>         0.1267
     44 H16         6.1505    0.5930    6.8000 H         1 <0>         0.1394
@<TRIPOS>BOND
     1    1    6 ar
     2    1    2 ar
     3    1   29 1
     4    2    3 ar
     5    2   30 1
     6    3    4 ar
     7    3   31 1
     8    4    5 ar
     9    4    7 1
    10    5    6 ar
    11    5   32 1
    12    6   33 1
    13    7    8 1
    14    7   34 1
    15    7   35 1
    16    8   17 am
    17    8    9 1
    18    9   10 2
    19    9   28 1
    20   10   11 1
    21   10   19 1
    22   11   16 ar
    23   11   12 ar
    24   12   13 ar
    25   12   36 1
    26   13   14 ar
    27   13   37 1
    28   14   15 ar
    29   14   38 1
    30   15   16 ar
    31   15   39 1
    32   16   17 1
    33   17   18 2
    34   19   20 2
    35   19   21 2
    36   19   22 1
    37   22   27 ar
    38   22   23 ar
    39   23   24 ar
    40   23   40 1
    41   24   25 ar
    42   24   41 1
    43   25   26 ar
    44   25   42 1
    45   26   27 ar
    46   26   43 1
    47   27   44 1
@<TRIPOS>MOLECULE
CHEMBL16516
   53    56     0     0     0
SMALL
USER_CHARGES

@<TRIPOS>ATOM
      1 C1          0.8977   -1.2088    1.3515 C.3       1 <0>        -0.6502
      2 S1         -0.0075   -0.2932    0.0737 S.o2      1 <0>         2.4979
      3 O1         -1.3053   -0.8460   -0.0979 O.2       1 <0>        -0.9350
      4 O2          0.1656    1.1051    0.2582 O.2       1 <0>        -0.9345
      5 C2          0.8383   -0.6565   -1.4287 C.ar      1 <0>        -0.6547
      6 C3          1.8874    0.1466   -1.8399 C.ar      1 <0>        -0.0179
      7 C4          2.5539   -0.1320   -3.0150 C.ar      1 <0>        -0.1104
      8 C5          2.1677   -1.2276   -3.7902 C.ar      1 <0>         0.0543
      9 C6          1.1079   -2.0338   -3.3691 C.ar      1 <0>        -0.1241
     10 C7          0.4539   -1.7469   -2.1890 C.ar      1 <0>        -0.0179
     11 C8          2.8761   -1.5318   -5.0494 C.2       1 <0>        -0.1828
     12 C9          4.2431   -1.6111   -5.3053 C.2       1 <0>         0.1333
     13 N1          4.5814   -1.9070   -6.5499 N.2       1 <0>        -0.5021
     14 C10         3.6804   -2.1106   -7.4752 C.2       1 <0>         0.0621
     15 S2          2.2191   -1.9081   -6.6665 S.3       1 <0>         0.1522
     16 C11         3.8997   -2.4531   -8.9263 C.3       1 <0>        -0.0342
     17 C12         3.9532   -3.9735   -9.0890 C.3       1 <0>        -0.1086
     18 C13         4.1758   -4.3213  -10.5622 C.3       1 <0>        -0.0821
     19 C14         4.2285   -5.8188  -10.7224 C.ar      1 <0>        -0.0675
     20 C15         5.4363   -6.4829  -10.6167 C.ar      1 <0>        -0.1103
     21 C16         5.4851   -7.8565  -10.7631 C.ar      1 <0>        -0.0881
     22 C17         4.3252   -8.5665  -11.0155 C.ar      1 <0>        -0.0943
     23 C18         3.1168   -7.9016  -11.1212 C.ar      1 <0>        -0.0884
     24 C19         3.0682   -6.5286  -10.9694 C.ar      1 <0>        -0.1112
     25 Br1         4.3913  -10.4456  -11.2166 Br        1 <0>        -0.0503
     26 C20         5.2556   -1.3781   -4.2494 C.ar      1 <0>        -0.0356
     27 C21         5.0761   -1.9190   -2.9764 C.ar      1 <0>        -0.0660
     28 C22         6.0218   -1.6992   -1.9964 C.ar      1 <0>        -0.1533
     29 C23         7.1486   -0.9424   -2.2751 C.ar      1 <0>         0.1107
     30 C24         7.3315   -0.4030   -3.5382 C.ar      1 <0>        -0.1542
     31 C25         6.3943   -0.6219   -4.5266 C.ar      1 <0>        -0.0541
     32 F1          8.0718   -0.7295   -1.3120 F         1 <0>        -0.1356
     33 H1          0.8723   -2.2741    1.1219 H         1 <0>         0.1323
     34 H2          1.9326   -0.8676    1.3787 H         1 <0>         0.1325
     35 H3          0.4322   -1.0350    2.3216 H         1 <0>         0.1346
     36 H4          2.1848    0.9937   -1.2396 H         1 <0>         0.1483
     37 H5          3.3724    0.4958   -3.3349 H         1 <0>         0.1361
     38 H6          0.8041   -2.8826   -3.9638 H         1 <0>         0.1363
     39 H7         -0.3627   -2.3723   -1.8597 H         1 <0>         0.1486
     40 H8          3.0795   -2.0526   -9.5221 H         1 <0>         0.0954
     41 H9          4.8403   -2.0182   -9.2641 H         1 <0>         0.1029
     42 H10         4.7734   -4.3740   -8.4932 H         1 <0>         0.0744
     43 H11         3.0125   -4.4084   -8.7511 H         1 <0>         0.0698
     44 H12         3.3556   -3.9208  -11.1580 H         1 <0>         0.0803
     45 H13         5.1164   -3.8864  -10.9001 H         1 <0>         0.0810
     46 H14         6.3420   -5.9284  -10.4200 H         1 <0>         0.1320
     47 H15         6.4288   -8.3752  -10.6809 H         1 <0>         0.1330
     48 H16         2.2109   -8.4555  -11.3182 H         1 <0>         0.1331
     49 H17         2.1243   -6.0098  -11.0478 H         1 <0>         0.1320
     50 H18         4.1980   -2.5087   -2.7581 H         1 <0>         0.1322
     51 H19         5.8836   -2.1172   -1.0103 H         1 <0>         0.1403
     52 H20         8.2112    0.1865   -3.7505 H         1 <0>         0.1409
     53 H21         6.5401   -0.2051   -5.5122 H         1 <0>         0.1372
@<TRIPOS>BOND
     1    1    2 1
     2    1   33 1
     3    1   34 1
     4    1   35 1
     5    2    3 2
     6    2    4 2
     7    2    5 1
     8    5   10 ar
     9    5    6 ar
    10    6    7 ar
    11    6   36 1
    12    7    8 ar
    13    7   37 1
    14    8    9 ar
    15    8   11 1
    16    9   10 ar
    17    9   38 1
    18   10   39 1
    19   11   15 1
    20   11   12 2
    21   12   13 1
    22   12   26 1
    23   13   14 2
    24   14   15 1
    25   14   16 1
    26   16   17 1
    27   16   40 1
    28   16   41 1
    29   17   18 1
    30   17   42 1
    31   17   43 1
    32   18   19 1
    33   18   44 1
    34   18   45 1
    35   19   24 ar
    36   19   20 ar
    37   20   21 ar
    38   20   46 1
    39   21   22 ar
    40   21   47 1
    41   22   23 ar
    42   22   25 1
    43   23   24 ar
    44   23   48 1
    45   24   49 1
    46   26   31 ar
    47   26   27 ar
    48   27   28 ar
    49   27   50 1
    50   28   29 ar
    51   28   51 1
    52   29   30 ar
    53   29   32 1
    54   30   31 ar
    55   30   52 1
    56   31   53 1
@<TRIPOS>MOLECULE
CHEMBL18020
   43    45     0     0     0
SMALL
USER_CHARGES

@<TRIPOS>ATOM
      1 C1         -0.0187    1.5258    0.0104 C.3       1 <0>        -0.1389
      2 C2          0.0021   -0.0041    0.0020 C.3       1 <0>        -0.5959
      3 C3          0.7421   -0.5109    1.2415 C.3       1 <0>        -0.1267
      4 S1         -1.6997   -0.6320    0.0149 S.o2      1 <0>         2.5312
      5 O1         -2.3591   -0.2345    1.2093 O.2       1 <0>        -0.9166
      6 O2         -2.3081   -0.4232   -1.2522 O.2       1 <0>        -0.9704
      7 C4         -1.5361   -2.3809    0.1524 C.2       1 <0>        -0.9026
      8 C5         -0.9084   -3.1492   -0.9191 C.ar      1 <0>         0.1432
      9 C6         -0.4191   -2.5409   -2.0777 C.ar      1 <0>        -0.1811
     10 C7          0.1599   -3.3105   -3.0487 C.ar      1 <0>         0.0282
     11 C8          0.2673   -4.6893   -2.8976 C.ar      1 <0>        -0.1897
     12 C9         -0.2023   -5.3111   -1.7753 C.ar      1 <0>        -0.0117
     13 C10        -0.7980   -4.5524   -0.7663 C.ar      1 <0>        -0.2103
     14 C11        -1.3190   -5.1631    0.4589 C.2       1 <0>         0.5698
     15 O3         -1.2419   -6.3671    0.6268 O.2       1 <0>        -0.5458
     16 N1         -1.8841   -4.3799    1.3988 N.am      1 <0>        -0.5306
     17 C12        -1.9857   -3.0246    1.2540 C.2       1 <0>         0.5401
     18 O4         -2.5608   -2.3024    2.2445 O.3       1 <0>        -0.6168
     19 C13        -2.4021   -5.0018    2.6199 C.3       1 <0>         0.1407
     20 C14        -1.3134   -5.0481    3.6608 C.ar      1 <0>        -0.0995
     21 C15        -0.4707   -6.1417    3.7314 C.ar      1 <0>        -0.0989
     22 C16         0.5279   -6.1842    4.6863 C.ar      1 <0>        -0.1340
     23 C17         0.6842   -5.1330    5.5703 C.ar      1 <0>        -0.1216
     24 C18        -0.1579   -4.0391    5.4991 C.ar      1 <0>        -0.1314
     25 C19        -1.1539   -3.9946    4.5415 C.ar      1 <0>        -0.0871
     26 Cl1         0.7685   -2.5568   -4.4893 Cl        1 <0>        -0.0844
     27 H1          1.0039    1.9031    0.0027 H         1 <0>         0.0726
     28 H2         -0.5459    1.8868   -0.8726 H         1 <0>         0.0648
     29 H3         -0.5289    1.8773    0.9072 H         1 <0>         0.0707
     30 H4          0.5123   -0.3556   -0.8948 H         1 <0>         0.1250
     31 H5          0.7568   -1.6008    1.2356 H         1 <0>         0.0698
     32 H6          1.7647   -0.1336    1.2338 H         1 <0>         0.0625
     33 H7          0.2319   -0.1594    2.1383 H         1 <0>         0.0714
     34 H8         -0.4979   -1.4714   -2.2057 H         1 <0>         0.1344
     35 H9          0.7278   -5.2763   -3.6784 H         1 <0>         0.1279
     36 H10        -0.1135   -6.3823   -1.6696 H         1 <0>         0.1346
     37 H11        -3.2412   -4.4174    2.9974 H         1 <0>         0.1032
     38 H12        -2.7360   -6.0154    2.3979 H         1 <0>         0.0899
     39 H13        -0.5928   -6.9629    3.0408 H         1 <0>         0.1260
     40 H14         1.1859   -7.0388    4.7419 H         1 <0>         0.1164
     41 H15         1.4640   -5.1665    6.3167 H         1 <0>         0.1153
     42 H16        -0.0361   -3.2179    6.1900 H         1 <0>         0.1185
     43 H17        -1.8094   -3.1383    4.4835 H         1 <0>         0.1380
@<TRIPOS>BOND
     1    1    2 1
     2    1   27 1
     3    1   28 1
     4    1   29 1
     5    2    3 1
     6    2    4 1
     7    2   30 1
     8    3   31 1
     9    3   32 1
    10    3   33 1
    11    4    5 2
    12    4    6 2
    13    4    7 1
    14    7   17 2
    15    7    8 1
    16    8   13 ar
    17    8    9 ar
    18    9   10 ar
    19    9   34 1
    20   10   11 ar
    21   10   26 1
    22   11   12 ar
    23   11   35 1
    24   12   13 ar
    25   12   36 1
    26   13   14 1
    27   14   15 2
    28   14   16 am
    29   16   17 1
    30   16   19 1
    31   17   18 1
    32   19   20 1
    33   19   37 1
    34   19   38 1
    35   20   25 ar
    36   20   21 ar
    37   21   22 ar
    38   21   39 1
    39   22   23 ar
    40   22   40 1
    41   23   24 ar
    42   23   41 1
    43   24   25 ar
    44   24   42 1
    45   25   43 1
@<TRIPOS>MOLECULE
CHEMBL436116
   40    43     0     0     0
SMALL
USER_CHARGES

@<TRIPOS>ATOM
      1 C1          0.0823    1.4041    0.4579 C.ar      1 <0>        -0.1230
      2 C2          1.2906    2.0864    0.4819 C.ar      1 <0>        -0.0910
      3 C3          2.4799    1.4083    0.3158 C.ar      1 <0>        -0.1097
      4 C4          2.4671    0.0339    0.1239 C.ar      1 <0>         0.0618
      5 C5          1.2428   -0.6579    0.1000 C.ar      1 <0>         0.0489
      6 C6          0.0493    0.0516    0.2702 C.ar      1 <0>        -0.0584
      7 N1          1.5262   -1.9678   -0.1014 N.2       1 <0>        -0.4585
      8 C7          2.8231   -2.1284   -0.2017 C.2       1 <0>         0.3127
      9 N2          3.4516   -0.9175   -0.0691 N.pl3     1 <0>        -0.4417
     10 C8          4.8325   -0.6872   -0.1195 C.ar      1 <0>         0.1155
     11 C9          5.3810    0.0219   -1.1799 C.ar      1 <0>        -0.0968
     12 C10         6.7427    0.2476   -1.2273 C.ar      1 <0>        -0.0951
     13 C11         7.5603   -0.2326   -0.2194 C.ar      1 <0>        -0.0230
     14 C12         7.0162   -0.9400    0.8383 C.ar      1 <0>        -0.0940
     15 C13         5.6543   -1.1627    0.8938 C.ar      1 <0>        -0.0925
     16 Cl1         9.2717    0.0523   -0.2822 Cl        1 <0>        -0.0494
     17 C14         3.5055   -3.4214   -0.4242 C.ar      1 <0>         0.0316
     18 C15         2.8380   -4.6195   -0.1665 C.ar      1 <0>        -0.0920
     19 C16         3.4803   -5.8224   -0.3760 C.ar      1 <0>        -0.0191
     20 C17         4.7834   -5.8425   -0.8405 C.ar      1 <0>        -0.6660
     21 C18         5.4507   -4.6582   -1.0979 C.ar      1 <0>        -0.0124
     22 C19         4.8178   -3.4487   -0.8980 C.ar      1 <0>        -0.1275
     23 S1          5.5967   -7.3830   -1.1049 S.o2      1 <0>         2.7013
     24 O1          6.9916   -7.1253   -1.0220 O.2       1 <0>        -0.9589
     25 O2          4.9467   -8.3336   -0.2723 O.2       1 <0>        -0.9557
     26 N3          5.2912   -7.8360   -2.6682 N.pl3     1 <0>        -1.2469
     27 H1         -0.8411    1.9475    0.5935 H         1 <0>         0.1348
     28 H2          1.2996    3.1560    0.6313 H         1 <0>         0.1350
     29 H3          3.4171    1.9446    0.3347 H         1 <0>         0.1247
     30 H4         -0.8967   -0.4692    0.2529 H         1 <0>         0.1345
     31 H5          4.7434    0.3963   -1.9671 H         1 <0>         0.1417
     32 H6          7.1698    0.7991   -2.0518 H         1 <0>         0.1481
     33 H7          7.6565   -1.3141    1.6235 H         1 <0>         0.1488
     34 H8          5.2295   -1.7106    1.7218 H         1 <0>         0.1406
     35 H9          1.8209   -4.6051    0.1965 H         1 <0>         0.1503
     36 H10         2.9649   -6.7503   -0.1767 H         1 <0>         0.1530
     37 H11         6.4680   -4.6807   -1.4601 H         1 <0>         0.1496
     38 H12         5.3382   -2.5250   -1.1039 H         1 <0>         0.1376
     39 H13         5.9396   -8.3692   -3.1542 H         1 <0>         0.4232
     40 H14         4.4638   -7.5682   -3.0979 H         1 <0>         0.4181
@<TRIPOS>BOND
     1    1    6 ar
     2    1    2 ar
     3    1   27 1
     4    2    3 ar
     5    2   28 1
     6    3    4 ar
     7    3   29 1
     8    4    9 1
     9    4    5 ar
    10    5    6 ar
    11    5    7 1
    12    6   30 1
    13    7    8 2
    14    8    9 1
    15    8   17 1
    16    9   10 1
    17   10   15 ar
    18   10   11 ar
    19   11   12 ar
    20   11   31 1
    21   12   13 ar
    22   12   32 1
    23   13   14 ar
    24   13   16 1
    25   14   15 ar
    26   14   33 1
    27   15   34 1
    28   17   22 ar
    29   17   18 ar
    30   18   19 ar
    31   18   35 1
    32   19   20 ar
    33   19   36 1
    34   20   21 ar
    35   20   23 1
    36   21   22 ar
    37   21   37 1
    38   22   38 1
    39   23   24 2
    40   23   25 2
    41   23   26 1
    42   26   39 1
    43   26   40 1
@<TRIPOS>MOLECULE
CHEMBL97040
   60    63     0     0     0
SMALL
USER_CHARGES

@<TRIPOS>ATOM
      1 C1         -0.6207    1.2184   -0.4213 C.3       1 <0>        -0.1064
      2 C2         -0.7855   -0.2659   -0.6226 C.2       1 <0>         0.1250
      3 C3         -0.7168   -0.8948   -1.8043 C.2       1 <0>        -0.1525
      4 C4         -0.9314   -2.3231   -1.5477 C.ar      1 <0>        -0.0353
      5 C5         -0.9737   -3.4560   -2.3616 C.ar      1 <0>        -0.1117
      6 C6         -1.2035   -4.6951   -1.7956 C.ar      1 <0>         0.1140
      7 C7         -1.3918   -4.8142   -0.4216 C.ar      1 <0>        -0.1749
      8 C8         -1.3523   -3.7016    0.3903 C.ar      1 <0>        -0.0822
      9 C9         -1.1219   -2.4471   -0.1609 C.ar      1 <0>         0.0767
     10 N1         -1.0226   -1.1763    0.3786 N.am      1 <0>        -0.5038
     11 C10        -1.1434   -0.8769    1.6871 C.2       1 <0>         0.6020
     12 O1         -2.2144   -0.5122    2.1306 O.2       1 <0>        -0.4269
     13 C11         0.0256   -0.9920    2.5818 C.ar      1 <0>        -0.1657
     14 C12         1.2839   -1.2941    2.0562 C.ar      1 <0>        -0.0428
     15 C13         2.3715   -1.4003    2.8969 C.ar      1 <0>        -0.1208
     16 C14         2.2183   -1.2081    4.2602 C.ar      1 <0>         0.0040
     17 C15         0.9728   -0.9088    4.7876 C.ar      1 <0>        -0.1229
     18 C16        -0.1214   -0.7938    3.9566 C.ar      1 <0>        -0.0377
     19 Cl1         3.5926   -1.3435    5.3121 Cl        1 <0>        -0.0517
     20 O2         -1.2463   -5.8024   -2.5836 O.3       1 <0>        -0.3163
     21 C17        -1.4880   -7.0521   -1.9339 C.3       1 <0>         0.0269
     22 C18        -0.4666   -0.2544   -3.1453 C.3       1 <0>        -0.0352
     23 C19         1.0154   -0.2194   -3.4165 C.2       1 <0>         0.4587
     24 O3          1.7890   -0.6685   -2.6043 O.2       1 <0>        -0.4994
     25 O4          1.4760    0.3105   -4.5605 O.3       1 <0>        -0.3370
     26 C20         2.8921    0.3105   -4.7516 C.3       1 <0>         0.0741
     27 C21         3.2247    0.9497   -6.1013 C.3       1 <0>         0.0536
     28 N2          2.8121    2.3596   -6.0903 N.3       1 <0>        -0.5310
     29 C22         2.6751    2.8791   -7.4588 C.3       1 <0>         0.0182
     30 C23         2.1874    4.3292   -7.4019 C.3       1 <0>         0.0630
     31 O5          3.0993    5.1031   -6.6178 O.3       1 <0>        -0.3853
     32 C24         3.2563    4.6255   -5.2789 C.3       1 <0>         0.0642
     33 C25         3.7548    3.1783   -5.3143 C.3       1 <0>         0.0131
     34 H1          0.4311    1.4473   -0.2500 H         1 <0>         0.0862
     35 H2         -0.9674    1.7462   -1.3098 H         1 <0>         0.0946
     36 H3         -1.2068    1.5354    0.4413 H         1 <0>         0.0723
     37 H4         -0.8280   -3.3645   -3.4279 H         1 <0>         0.1335
     38 H5         -1.5709   -5.7870    0.0118 H         1 <0>         0.1360
     39 H6         -1.5004   -3.8046    1.4551 H         1 <0>         0.1230
     40 H7          1.4046   -1.4444    0.9936 H         1 <0>         0.1439
     41 H8          3.3450   -1.6341    2.4917 H         1 <0>         0.1450
     42 H9          0.8596   -0.7605    5.8514 H         1 <0>         0.1467
     43 H10        -1.0910   -0.5556    4.3684 H         1 <0>         0.1480
     44 H11        -2.4515   -7.0169   -1.4256 H         1 <0>         0.0556
     45 H12        -1.4971   -7.8511   -2.6752 H         1 <0>         0.1008
     46 H13        -0.6995   -7.2413   -1.2055 H         1 <0>         0.0553
     47 H14        -0.9647   -0.8333   -3.9230 H         1 <0>         0.1169
     48 H15        -0.8593    0.7624   -3.1413 H         1 <0>         0.1152
     49 H16         3.3665    0.8807   -3.9528 H         1 <0>         0.0666
     50 H17         3.2611   -0.7150   -4.7345 H         1 <0>         0.0724
     51 H18         4.2983    0.8867   -6.2785 H         1 <0>         0.0619
     52 H19         2.6940    0.4221   -6.8938 H         1 <0>         0.0892
     53 H20         3.6414    2.8395   -7.9616 H         1 <0>         0.0436
     54 H21         1.9536    2.2737   -8.0074 H         1 <0>         0.0894
     55 H22         2.1390    4.7368   -8.4117 H         1 <0>         0.0992
     56 H23         1.1973    4.3627   -6.9474 H         1 <0>         0.0617
     57 H24         3.9809    5.2473   -4.7532 H         1 <0>         0.0984
     58 H25         2.2972    4.6675   -4.7626 H         1 <0>         0.0608
     59 H26         3.8214    2.7914   -4.2974 H         1 <0>         0.0850
     60 H27         4.7384    3.1435   -5.7828 H         1 <0>         0.0449
@<TRIPOS>BOND
     1    1    2 1
     2    1   34 1
     3    1   35 1
     4    1   36 1
     5    2   10 1
     6    2    3 2
     7    3    4 1
     8    3   22 1
     9    4    9 ar
    10    4    5 ar
    11    5    6 ar
    12    5   37 1
    13    6    7 ar
    14    6   20 1
    15    7    8 ar
    16    7   38 1
    17    8    9 ar
    18    8   39 1
    19    9   10 1
    20   10   11 am
    21   11   12 2
    22   11   13 1
    23   13   18 ar
    24   13   14 ar
    25   14   15 ar
    26   14   40 1
    27   15   16 ar
    28   15   41 1
    29   16   17 ar
    30   16   19 1
    31   17   18 ar
    32   17   42 1
    33   18   43 1
    34   20   21 1
    35   21   44 1
    36   21   45 1
    37   21   46 1
    38   22   23 1
    39   22   47 1
    40   22   48 1
    41   23   24 2
    42   23   25 1
    43   25   26 1
    44   26   27 1
    45   26   49 1
    46   26   50 1
    47   27   28 1
    48   27   51 1
    49   27   52 1
    50   28   33 1
    51   28   29 1
    52   29   30 1
    53   29   53 1
    54   29   54 1
    55   30   31 1
    56   30   55 1
    57   30   56 1
    58   31   32 1
    59   32   33 1
    60   32   57 1
    61   32   58 1
    62   33   59 1
    63   33   60 1
@<TRIPOS>MOLECULE
CHEMBL97040__1
   61    64     0     0     0
SMALL
USER_CHARGES

@<TRIPOS>ATOM
      1 C1         -0.3138    1.2211    0.1789 C.3       1 <0>        -0.1081
      2 C2         -0.4118   -0.2728    0.0067 C.2       1 <0>         0.1333
      3 C3         -0.4203   -0.9129   -1.1709 C.2       1 <0>        -0.1710
      4 C4         -0.5272   -2.3474   -0.8832 C.ar      1 <0>        -0.0367
      5 C5         -0.5821   -3.4919   -1.6800 C.ar      1 <0>        -0.1190
      6 C6         -0.6855   -4.7341   -1.0843 C.ar      1 <0>         0.1208
      7 C7         -0.7347   -4.8447    0.3023 C.ar      1 <0>        -0.1722
      8 C8         -0.6816   -3.7207    1.0975 C.ar      1 <0>        -0.0776
      9 C9         -0.5772   -2.4630    0.5164 C.ar      1 <0>         0.0753
     10 N1         -0.4997   -1.1812    1.0334 N.am      1 <0>        -0.4993
     11 C10        -0.5120   -0.8713    2.3450 C.2       1 <0>         0.5974
     12 O1         -1.5566   -0.5713    2.8886 O.2       1 <0>        -0.4212
     13 C11         0.7437   -0.8963    3.1214 C.ar      1 <0>        -0.1678
     14 C12         1.9613   -1.1301    2.4781 C.ar      1 <0>        -0.0460
     15 C13         3.1305   -1.1523    3.2087 C.ar      1 <0>        -0.1220
     16 C14         3.0992   -0.9434    4.5777 C.ar      1 <0>         0.0055
     17 C15         1.8948   -0.7115    5.2215 C.ar      1 <0>        -0.1204
     18 C16         0.7195   -0.6807    4.5012 C.ar      1 <0>        -0.0355
     19 Cl1         4.5756   -0.9729    5.4905 Cl        1 <0>        -0.0465
     20 O2         -0.7399   -5.8527   -1.8555 O.3       1 <0>        -0.3161
     21 C17        -0.8465   -7.1050   -1.1754 C.3       1 <0>         0.0251
     22 C18        -0.3363   -0.2779   -2.5350 C.3       1 <0>        -0.0288
     23 C19         1.1086   -0.1634   -2.9477 C.2       1 <0>         0.4650
     24 O3          1.9806   -0.5570   -2.2098 O.2       1 <0>        -0.4707
     25 O4          1.4268    0.3760   -4.1350 O.3       1 <0>        -0.3736
     26 C20         2.8159    0.4530   -4.4612 C.3       1 <0>         0.0306
     27 C21         2.9809    1.0914   -5.8418 C.3       1 <0>        -0.0006
     28 N2          2.4829    2.4729   -5.8052 N.4       1 <0>        -0.3872
     29 C22         2.5075    3.0387   -7.1611 C.3       1 <0>        -0.0438
     30 C23         1.9880    4.4779   -7.1203 C.3       1 <0>         0.0353
     31 O5          2.7903    5.2435   -6.2169 O.3       1 <0>        -0.3557
     32 C24         2.8173    4.7178   -4.8870 C.3       1 <0>         0.0374
     33 C25         3.3385    3.2790   -4.9236 C.3       1 <0>        -0.0509
     34 H1          0.7347    1.5110    0.2466 H         1 <0>         0.0854
     35 H2         -0.7733    1.7164   -0.6764 H         1 <0>         0.0917
     36 H3         -0.8320    1.5164    1.0913 H         1 <0>         0.0768
     37 H4         -0.5443   -3.4069   -2.7560 H         1 <0>         0.1315
     38 H5         -0.8156   -5.8201    0.7589 H         1 <0>         0.1393
     39 H6         -0.7213   -3.8173    2.1724 H         1 <0>         0.1259
     40 H7          1.9869   -1.2935    1.4109 H         1 <0>         0.1406
     41 H8          4.0725   -1.3333    2.7125 H         1 <0>         0.1445
     42 H9          1.8768   -0.5497    6.2892 H         1 <0>         0.1491
     43 H10        -0.2184   -0.4951    5.0035 H         1 <0>         0.1494
     44 H11        -1.7575   -7.1171   -0.5771 H         1 <0>         0.0581
     45 H12        -0.8806   -7.9133   -1.9057 H         1 <0>         0.1038
     46 H13         0.0174   -7.2396   -0.5245 H         1 <0>         0.0572
     47 H14        -0.8724   -0.8944   -3.2565 H         1 <0>         0.1232
     48 H15        -0.7844    0.7152   -2.5017 H         1 <0>         0.1174
     49 H16         3.3309    1.0598   -3.7164 H         1 <0>         0.0917
     50 H17         3.2429   -0.5498   -4.4712 H         1 <0>         0.1165
     51 H18         4.0354    1.0925   -6.1179 H         1 <0>         0.1511
     52 H19         2.4136    0.5199   -6.5765 H         1 <0>         0.1461
     53 H20         3.5297    3.0317   -7.5394 H         1 <0>         0.1403
     54 H21         1.8730    2.4415   -7.8159 H         1 <0>         0.1450
     55 H22         2.0457    4.9142   -8.1175 H         1 <0>         0.1433
     56 H23         0.9524    4.4816   -6.7801 H         1 <0>         0.0824
     57 H24         3.4753    5.3276   -4.2678 H         1 <0>         0.1425
     58 H25         1.8102    4.7297   -4.4703 H         1 <0>         0.0818
     59 H26         3.3208    2.8601   -3.9174 H         1 <0>         0.1396
     60 H27         4.3604    3.2719   -5.3028 H         1 <0>         0.1419
     61 H28         1.5368    2.4803   -5.4546 H         1 <0>         0.4290
@<TRIPOS>BOND
     1    1    2 1
     2    1   34 1
     3    1   35 1
     4    1   36 1
     5    2   10 1
     6    2    3 2
     7    3    4 1
     8    3   22 1
     9    4    9 ar
    10    4    5 ar
    11    5    6 ar
    12    5   37 1
    13    6    7 ar
    14    6   20 1
    15    7    8 ar
    16    7   38 1
    17    8    9 ar
    18    8   39 1
    19    9   10 1
    20   10   11 am
    21   11   12 2
    22   11   13 1
    23   13   18 ar
    24   13   14 ar
    25   14   15 ar
    26   14   40 1
    27   15   16 ar
    28   15   41 1
    29   16   17 ar
    30   16   19 1
    31   17   18 ar
    32   17   42 1
    33   18   43 1
    34   20   21 1
    35   21   44 1
    36   21   45 1
    37   21   46 1
    38   22   23 1
    39   22   47 1
    40   22   48 1
    41   23   24 2
    42   23   25 1
    43   25   26 1
    44   26   27 1
    45   26   49 1
    46   26   50 1
    47   27   28 1
    48   27   51 1
    49   27   52 1
    50   28   33 1
    51   28   29 1
    52   28   61 1
    53   29   30 1
    54   29   53 1
    55   29   54 1
    56   30   31 1
    57   30   55 1
    58   30   56 1
    59   31   32 1
    60   32   33 1
    61   32   57 1
    62   32   58 1
    63   33   59 1
    64   33   60 1
@<TRIPOS>MOLECULE
CHEMBL557909
   50    53     0     0     0
SMALL
USER_CHARGES

@<TRIPOS>ATOM
      1 C1         -0.0225    1.8097    0.0120 C.3       1 <0>        -0.6495
      2 S1          0.0021   -0.0041    0.0020 S.o2      1 <0>         2.4981
      3 O1          0.8352   -0.4880    1.0465 O.2       1 <0>        -0.9348
      4 O2         -1.3147   -0.5105   -0.1678 O.2       1 <0>        -0.9344
      5 C2          0.8454   -0.4373   -1.4831 C.ar      1 <0>        -0.6519
      6 C3          0.1346   -0.6126   -2.6557 C.ar      1 <0>        -0.0177
      7 C4          0.7962   -0.9525   -3.8208 C.ar      1 <0>        -0.1138
      8 C5          2.1688   -1.1167   -3.8136 C.ar      1 <0>        -0.0529
      9 C6          2.8797   -0.9405   -2.6412 C.ar      1 <0>        -0.1204
     10 C7          2.2186   -0.5964   -1.4770 C.ar      1 <0>        -0.0162
     11 C8          2.8899   -1.4882   -5.0836 C.3       1 <0>         0.1927
     12 N1          4.0762   -2.2717   -4.7569 N.am      1 <0>        -0.5951
     13 C9          5.2484   -1.7510   -4.3985 C.2       1 <0>         0.5576
     14 O3          6.1474   -2.5218   -4.1222 O.2       1 <0>        -0.5169
     15 C10         5.5330   -0.3149   -4.3136 C.ar      1 <0>        -0.1326
     16 C11         6.6038    0.1496   -3.5430 C.ar      1 <0>        -0.0453
     17 C12         6.8649    1.5000   -3.4729 C.ar      1 <0>        -0.1201
     18 C13         6.0759    2.4089   -4.1611 C.ar      1 <0>        -0.0768
     19 C14         5.0135    1.9697   -4.9257 C.ar      1 <0>        -0.0955
     20 C15         4.7359    0.6139   -5.0041 C.ar      1 <0>        -0.0659
     21 S2          3.3798    0.0229   -5.9650 S.3       1 <0>        -0.0742
     22 C16         3.9708   -3.7312   -4.8275 C.3       1 <0>         0.1135
     23 C17         4.3400   -4.2017   -6.2357 C.3       1 <0>        -0.0927
     24 C18         4.2316   -5.7030   -6.3083 C.ar      1 <0>        -0.0838
     25 C19         5.3258   -6.4906   -6.0028 C.ar      1 <0>        -0.1113
     26 C20         5.2264   -7.8677   -6.0694 C.ar      1 <0>        -0.1172
     27 C21         4.0326   -8.4573   -6.4410 C.ar      1 <0>        -0.1210
     28 C22         2.9381   -7.6698   -6.7457 C.ar      1 <0>        -0.1185
     29 C23         3.0363   -6.2928   -6.6749 C.ar      1 <0>        -0.1162
     30 H1          1.0001    2.1870    0.0043 H         1 <0>         0.1318
     31 H2         -0.5497    2.1708   -0.8711 H         1 <0>         0.1327
     32 H3         -0.5327    2.1613    0.9088 H         1 <0>         0.1349
     33 H4         -0.9378   -0.4844   -2.6614 H         1 <0>         0.1487
     34 H5          0.2407   -1.0902   -4.7367 H         1 <0>         0.1397
     35 H6          3.9520   -1.0690   -2.6355 H         1 <0>         0.1261
     36 H7          2.7745   -0.4551   -0.5619 H         1 <0>         0.1450
     37 H8          2.2284   -2.0793   -5.7168 H         1 <0>         0.1490
     38 H9          7.2250   -0.5498   -3.0033 H         1 <0>         0.1420
     39 H10         7.6925    1.8543   -2.8763 H         1 <0>         0.1373
     40 H11         6.2931    3.4650   -4.0985 H         1 <0>         0.1378
     41 H12         4.4006    2.6801   -5.4606 H         1 <0>         0.1384
     42 H13         4.6518   -4.1800   -4.1043 H         1 <0>         0.0995
     43 H14         2.9485   -4.0331   -4.5999 H         1 <0>         0.0847
     44 H15         3.6591   -3.7528   -6.9589 H         1 <0>         0.0745
     45 H16         5.3623   -3.8998   -6.4633 H         1 <0>         0.0798
     46 H17         6.2585   -6.0299   -5.7125 H         1 <0>         0.1232
     47 H18         6.0815   -8.4830   -5.8314 H         1 <0>         0.1228
     48 H19         3.9551   -9.5333   -6.4937 H         1 <0>         0.1220
     49 H20         2.0056   -8.1305   -7.0363 H         1 <0>         0.1225
     50 H21         2.1802   -5.6776   -6.9093 H         1 <0>         0.1204
@<TRIPOS>BOND
     1    1    2 1
     2    1   30 1
     3    1   31 1
     4    1   32 1
     5    2    3 2
     6    2    4 2
     7    2    5 1
     8    5   10 ar
     9    5    6 ar
    10    6    7 ar
    11    6   33 1
    12    7    8 ar
    13    7   34 1
    14    8    9 ar
    15    8   11 1
    16    9   10 ar
    17    9   35 1
    18   10   36 1
    19   11   21 1
    20   11   12 1
    21   11   37 1
    22   12   13 am
    23   12   22 1
    24   13   14 2
    25   13   15 1
    26   15   20 ar
    27   15   16 ar
    28   16   17 ar
    29   16   38 1
    30   17   18 ar
    31   17   39 1
    32   18   19 ar
    33   18   40 1
    34   19   20 ar
    35   19   41 1
    36   20   21 1
    37   22   23 1
    38   22   42 1
    39   22   43 1
    40   23   24 1
    41   23   44 1
    42   23   45 1
    43   24   29 ar
    44   24   25 ar
    45   25   26 ar
    46   25   46 1
    47   26   27 ar
    48   26   47 1
    49   27   28 ar
    50   27   48 1
    51   28   29 ar
    52   28   49 1
    53   29   50 1
@<TRIPOS>MOLECULE
CHEMBL557909__1
   50    53     0     0     0
SMALL
USER_CHARGES

@<TRIPOS>ATOM
      1 C1         -0.0225    1.8097    0.0120 C.3       1 <0>        -0.6501
      2 S1          0.0021   -0.0041    0.0020 S.o2      1 <0>         2.4977
      3 O1          0.8352   -0.4880    1.0465 O.2       1 <0>        -0.9347
      4 O2         -1.3147   -0.5105   -0.1678 O.2       1 <0>        -0.9341
      5 C2          0.8454   -0.4373   -1.4831 C.ar      1 <0>        -0.6517
      6 C3          0.1346   -0.6126   -2.6557 C.ar      1 <0>        -0.0172
      7 C4          0.7962   -0.9525   -3.8208 C.ar      1 <0>        -0.1144
      8 C5          2.1688   -1.1167   -3.8136 C.ar      1 <0>        -0.0513
      9 C6          2.8797   -0.9405   -2.6412 C.ar      1 <0>        -0.1200
     10 C7          2.2186   -0.5964   -1.4770 C.ar      1 <0>        -0.0162
     11 C8          2.8899   -1.4882   -5.0836 C.3       1 <0>         0.1924
     12 N1          4.2381   -0.9317   -5.0570 N.am      1 <0>        -0.5953
     13 C9          5.2782   -1.5042   -4.4538 C.2       1 <0>         0.5588
     14 O3          6.3413   -0.9145   -4.4814 O.2       1 <0>        -0.5173
     15 C10         5.2335   -2.7945   -3.7582 C.ar      1 <0>        -0.1344
     16 C11         6.2088   -3.1213   -2.8104 C.ar      1 <0>        -0.0454
     17 C12         6.1600   -4.3372   -2.1656 C.ar      1 <0>        -0.1198
     18 C13         5.1509   -5.2457   -2.4461 C.ar      1 <0>        -0.0753
     19 C14         4.1783   -4.9406   -3.3774 C.ar      1 <0>        -0.0946
     20 C15         4.2125   -3.7201   -4.0335 C.ar      1 <0>        -0.0659
     21 S2          2.9788   -3.2975   -5.2214 S.3       1 <0>        -0.0747
     22 C16         4.4631    0.3445   -5.7402 C.3       1 <0>         0.1155
     23 C17         4.2255    1.4960   -4.7611 C.3       1 <0>        -0.0930
     24 C18         4.4570    2.8088   -5.4640 C.ar      1 <0>        -0.0832
     25 C19         5.7179    3.3753   -5.4726 C.ar      1 <0>        -0.1114
     26 C20         5.9303    4.5795   -6.1173 C.ar      1 <0>        -0.1169
     27 C21         4.8818    5.2170   -6.7537 C.ar      1 <0>        -0.1212
     28 C22         3.6210    4.6501   -6.7459 C.ar      1 <0>        -0.1185
     29 C23         3.4096    3.4438   -6.1049 C.ar      1 <0>        -0.1165
     30 H1          1.0001    2.1870    0.0043 H         1 <0>         0.1318
     31 H2         -0.5497    2.1708   -0.8711 H         1 <0>         0.1323
     32 H3         -0.5327    2.1613    0.9088 H         1 <0>         0.1348
     33 H4         -0.9378   -0.4844   -2.6614 H         1 <0>         0.1484
     34 H5          0.2407   -1.0902   -4.7367 H         1 <0>         0.1395
     35 H6          3.9520   -1.0690   -2.6355 H         1 <0>         0.1261
     36 H7          2.7745   -0.4551   -0.5619 H         1 <0>         0.1445
     37 H8          2.3484   -1.0853   -5.9395 H         1 <0>         0.1491
     38 H9          6.9994   -2.4211   -2.5848 H         1 <0>         0.1417
     39 H10         6.9148   -4.5852   -1.4341 H         1 <0>         0.1376
     40 H11         5.1257   -6.1963   -1.9341 H         1 <0>         0.1384
     41 H12         3.3935   -5.6503   -3.5937 H         1 <0>         0.1388
     42 H13         5.4890    0.3847   -6.1063 H         1 <0>         0.0986
     43 H14         3.7739    0.4336   -6.5800 H         1 <0>         0.0849
     44 H15         3.1996    1.4558   -4.3950 H         1 <0>         0.0740
     45 H16         4.9147    1.4069   -3.9214 H         1 <0>         0.0785
     46 H17         6.5371    2.8772   -4.9753 H         1 <0>         0.1231
     47 H18         6.9152    5.0224   -6.1234 H         1 <0>         0.1228
     48 H19         5.0475    6.1582   -7.2568 H         1 <0>         0.1219
     49 H20         2.8018    5.1484   -7.2428 H         1 <0>         0.1222
     50 H21         2.4255    2.9990   -6.1019 H         1 <0>         0.1198
@<TRIPOS>BOND
     1    1    2 1
     2    1   30 1
     3    1   31 1
     4    1   32 1
     5    2    3 2
     6    2    4 2
     7    2    5 1
     8    5   10 ar
     9    5    6 ar
    10    6    7 ar
    11    6   33 1
    12    7    8 ar
    13    7   34 1
    14    8    9 ar
    15    8   11 1
    16    9   10 ar
    17    9   35 1
    18   10   36 1
    19   11   21 1
    20   11   12 1
    21   11   37 1
    22   12   13 am
    23   12   22 1
    24   13   14 2
    25   13   15 1
    26   15   20 ar
    27   15   16 ar
    28   16   17 ar
    29   16   38 1
    30   17   18 ar
    31   17   39 1
    32   18   19 ar
    33   18   40 1
    34   19   20 ar
    35   19   41 1
    36   20   21 1
    37   22   23 1
    38   22   42 1
    39   22   43 1
    40   23   24 1
    41   23   44 1
    42   23   45 1
    43   24   29 ar
    44   24   25 ar
    45   25   26 ar
    46   25   46 1
    47   26   27 ar
    48   26   47 1
    49   27   28 ar
    50   27   48 1
    51   28   29 ar
    52   28   49 1
    53   29   50 1
@<TRIPOS>MOLECULE
CHEMBL62772
   45    49     0     0     0
SMALL
USER_CHARGES

@<TRIPOS>ATOM
      1 C1         -0.0086    1.3853   -0.0381 C.ar      1 <0>        -0.1242
      2 C2          1.1789    2.0959   -0.0411 C.ar      1 <0>        -0.0987
      3 C3          2.3690    1.4025    0.0106 C.ar      1 <0>        -0.1232
      4 C4          2.3721    0.0087    0.0141 C.ar      1 <0>         0.1460
      5 C5          1.2170   -0.7020   -0.0725 C.ar      1 <0>        -0.0929
      6 C6          0.0066    0.0104   -0.0402 C.ar      1 <0>        -0.1079
      7 C7          1.0433   -2.1652   -0.3470 C.3       1 <0>        -0.0748
      8 C8          1.9789   -2.7359   -1.3816 C.3       1 <0>        -0.0725
      9 C9          3.4108   -2.7950   -0.9461 C.ar      1 <0>        -0.0956
     10 C10         4.1521   -3.9088   -1.3454 C.ar      1 <0>        -0.0829
     11 C11         5.4576   -4.1018   -0.9537 C.ar      1 <0>        -0.1348
     12 C12         6.1035   -3.1814   -0.1351 C.ar      1 <0>        -0.0341
     13 C13         5.3790   -2.0699    0.2376 C.ar      1 <0>        -0.1257
     14 C14         4.0504   -1.8606   -0.1629 C.ar      1 <0>         0.1557
     15 N1          3.6187   -0.6114    0.2465 N.am      1 <0>        -0.4932
     16 C15         4.5664    0.0239    0.9887 C.2       1 <0>         0.5311
     17 O1          4.4630    1.1213    1.4947 O.2       1 <0>        -0.4696
     18 C16         5.7713   -0.8863    1.0684 C.3       1 <0>        -0.1029
     19 C17         6.9859   -0.2100    0.4865 C.2       1 <0>         0.5383
     20 O2          7.4985   -0.6472   -0.5221 O.2       1 <0>        -0.4911
     21 N2          7.5023    0.8806    1.0866 N.am      1 <0>        -0.6649
     22 C18         8.6853    1.4515    0.6029 C.ar      1 <0>         0.1476
     23 C19         9.5990    2.0116    1.4859 C.ar      1 <0>        -0.1285
     24 C20        10.7654    2.5742    1.0060 C.ar      1 <0>        -0.0904
     25 C21        11.0240    2.5802   -0.3535 C.ar      1 <0>        -0.0476
     26 C22        10.1150    2.0226   -1.2355 C.ar      1 <0>        -0.0904
     27 C23         8.9498    1.4536   -0.7603 C.ar      1 <0>        -0.1081
     28 Cl1        12.4908    3.2887   -0.9534 Cl        1 <0>        -0.0673
     29 H1         -0.9510    1.9127   -0.0295 H         1 <0>         0.1280
     30 H2          1.1733    3.1751   -0.0836 H         1 <0>         0.1331
     31 H3          3.3039    1.9419    0.0483 H         1 <0>         0.1396
     32 H4         -0.9276   -0.5310   -0.0164 H         1 <0>         0.1302
     33 H5          1.1897   -2.7094    0.5860 H         1 <0>         0.0746
     34 H6          0.0191   -2.3329   -0.6804 H         1 <0>         0.0876
     35 H7          1.6494   -3.7453   -1.6280 H         1 <0>         0.0891
     36 H8          1.9152   -2.1245   -2.2817 H         1 <0>         0.0771
     37 H9          3.6850   -4.6445   -1.9833 H         1 <0>         0.1309
     38 H10         5.9883   -4.9815   -1.2869 H         1 <0>         0.1319
     39 H11         7.1217   -3.3305    0.1925 H         1 <0>         0.1401
     40 H12         5.9563   -1.1867    2.0997 H         1 <0>         0.1583
     41 H13         7.0543    1.2699    1.8538 H         1 <0>         0.4198
     42 H14         9.3976    2.0075    2.5469 H         1 <0>         0.1375
     43 H15        11.4763    3.0103    1.6923 H         1 <0>         0.1396
     44 H16        10.3190    2.0289   -2.2961 H         1 <0>         0.1382
     45 H17         8.2428    1.0146   -1.4487 H         1 <0>         0.1470
@<TRIPOS>BOND
     1    1    6 ar
     2    1    2 ar
     3    1   29 1
     4    2    3 ar
     5    2   30 1
     6    3    4 ar
     7    3   31 1
     8    4   15 1
     9    4    5 ar
    10    5    6 ar
    11    5    7 1
    12    6   32 1
    13    7    8 1
    14    7   33 1
    15    7   34 1
    16    8    9 1
    17    8   35 1
    18    8   36 1
    19    9   14 ar
    20    9   10 ar
    21   10   11 ar
    22   10   37 1
    23   11   12 ar
    24   11   38 1
    25   12   13 ar
    26   12   39 1
    27   13   18 1
    28   13   14 ar
    29   14   15 1
    30   15   16 am
    31   16   17 2
    32   16   18 1
    33   18   19 1
    34   18   40 1
    35   19   20 2
    36   19   21 am
    37   21   22 1
    38   21   41 1
    39   22   27 ar
    40   22   23 ar
    41   23   24 ar
    42   23   42 1
    43   24   25 ar
    44   24   43 1
    45   25   26 ar
    46   25   28 1
    47   26   27 ar
    48   26   44 1
    49   27   45 1
@<TRIPOS>MOLECULE
CHEMBL62772__1
   44    48     0     0     0
SMALL
USER_CHARGES

@<TRIPOS>ATOM
      1 C1         -0.0061    1.4168    0.0171 C.ar      1 <0>        -0.1463
      2 C2          1.1879    2.1146    0.0039 C.ar      1 <0>        -0.1079
      3 C3          2.3849    1.4316   -0.0160 C.ar      1 <0>        -0.1184
      4 C4          2.4052    0.0384   -0.0202 C.ar      1 <0>         0.1752
      5 C5          1.2010   -0.6585    0.0021 C.ar      1 <0>        -0.1136
      6 C6          0.0043    0.0360    0.0153 C.ar      1 <0>        -0.1043
      7 C7          1.1943   -2.1495    0.0275 C.3       1 <0>        -0.0721
      8 C8          1.7696   -2.7685   -1.2154 C.3       1 <0>        -0.0657
      9 C9          3.2490   -2.7941   -1.2468 C.ar      1 <0>        -0.0822
     10 C10         3.9345   -3.8183   -1.8785 C.ar      1 <0>        -0.1536
     11 C11         5.3157   -3.8880   -1.8905 C.ar      1 <0>        -0.1280
     12 C12         6.0911   -2.9341   -1.2517 C.ar      1 <0>        -0.1320
     13 C13         5.4147   -1.8909   -0.6231 C.ar      1 <0>         0.0069
     14 C14         4.0024   -1.7872   -0.6456 C.ar      1 <0>         0.0810
     15 N1          3.6567   -0.5981   -0.0544 N.pl3     1 <0>        -0.4621
     16 C15         4.7729   -0.0227    0.5066 C.2       1 <0>         0.4696
     17 O1          4.7733    1.0928    1.2699 O.3       1 <0>        -0.6755
     18 C16         5.8959   -0.7595    0.1708 C.2       1 <0>        -0.4535
     19 C17         7.2815   -0.4668    0.5354 C.2       1 <0>         0.6475
     20 O2          7.9694    0.2254   -0.1928 O.2       1 <0>        -0.5391
     21 N2          7.7971   -0.9631    1.6775 N.am      1 <0>        -0.6736
     22 C18         9.1487   -0.7644    1.9792 C.ar      1 <0>         0.1723
     23 C19         9.8675   -1.7542    2.6367 C.ar      1 <0>        -0.1453
     24 C20        11.2016   -1.5555    2.9333 C.ar      1 <0>        -0.0919
     25 C21        11.8221   -0.3711    2.5764 C.ar      1 <0>        -0.0634
     26 C22        11.1082    0.6168    1.9211 C.ar      1 <0>        -0.0906
     27 C23         9.7755    0.4207    1.6166 C.ar      1 <0>        -0.1136
     28 Cl1        13.4990   -0.1241    2.9518 Cl        1 <0>        -0.0862
     29 H1         -0.9447    1.9508    0.0333 H         1 <0>         0.1178
     30 H2          1.1824    3.1946    0.0089 H         1 <0>         0.1206
     31 H3          3.3148    1.9809   -0.0289 H         1 <0>         0.1430
     32 H4         -0.9296   -0.5065    0.0239 H         1 <0>         0.1197
     33 H5          1.7738   -2.4871    0.8867 H         1 <0>         0.0691
     34 H6          0.1665   -2.4926    0.1455 H         1 <0>         0.0721
     35 H7          1.4029   -3.7919   -1.2952 H         1 <0>         0.0721
     36 H8          1.4137   -2.2074   -2.0794 H         1 <0>         0.0668
     37 H9          3.3701   -4.5908   -2.3796 H         1 <0>         0.1071
     38 H10         5.7997   -4.7029   -2.4082 H         1 <0>         0.1064
     39 H11         7.1693   -2.9965   -1.2413 H         1 <0>         0.1143
     40 H12         7.2310   -1.4581    2.2903 H         1 <0>         0.4110
     41 H13         9.3836   -2.6784    2.9161 H         1 <0>         0.1327
     42 H14        11.7611   -2.3249    3.4446 H         1 <0>         0.1315
     43 H15        11.5948    1.5403    1.6440 H         1 <0>         0.1319
     44 H16         9.2200    1.1901    1.1010 H         1 <0>         0.1505
@<TRIPOS>BOND
     1    1    6 ar
     2    1    2 ar
     3    1   29 1
     4    2    3 ar
     5    2   30 1
     6    3    4 ar
     7    3   31 1
     8    4   15 1
     9    4    5 ar
    10    5    6 ar
    11    5    7 1
    12    6   32 1
    13    7    8 1
    14    7   33 1
    15    7   34 1
    16    8    9 1
    17    8   35 1
    18    8   36 1
    19    9   14 ar
    20    9   10 ar
    21   10   11 ar
    22   10   37 1
    23   11   12 ar
    24   11   38 1
    25   12   13 ar
    26   12   39 1
    27   13   18 1
    28   13   14 ar
    29   14   15 1
    30   15   16 1
    31   16   17 1
    32   16   18 2
    33   18   19 1
    34   19   20 2
    35   19   21 am
    36   21   22 1
    37   21   40 1
    38   22   27 ar
    39   22   23 ar
    40   23   24 ar
    41   23   41 1
    42   24   25 ar
    43   24   42 1
    44   25   26 ar
    45   25   28 1
    46   26   27 ar
    47   26   43 1
    48   27   44 1
@<TRIPOS>MOLECULE
CHEMBL62772__2
   45    49     0     0     0
SMALL
USER_CHARGES

@<TRIPOS>ATOM
      1 C1          0.0073    1.4014   -0.0192 C.ar      1 <0>        -0.1243
      2 C2          1.1972    2.1081   -0.0234 C.ar      1 <0>        -0.0993
      3 C3          2.3850    1.4107    0.0244 C.ar      1 <0>        -0.1233
      4 C4          2.3836    0.0168    0.0252 C.ar      1 <0>         0.1451
      5 C5          1.2259   -0.6898   -0.0603 C.ar      1 <0>        -0.0920
      6 C6          0.0180    0.0265   -0.0241 C.ar      1 <0>        -0.1081
      7 C7          1.0468   -2.1519   -0.3373 C.3       1 <0>        -0.0764
      8 C8          1.9784   -2.7237   -1.3750 C.3       1 <0>        -0.0718
      9 C9          3.4110   -2.7884   -0.9426 C.ar      1 <0>        -0.0951
     10 C10         4.1478   -3.9038   -1.3457 C.ar      1 <0>        -0.0832
     11 C11         5.4537   -4.1014   -0.9579 C.ar      1 <0>        -0.1342
     12 C12         6.1043   -3.1848   -0.1389 C.ar      1 <0>        -0.0400
     13 C13         5.3840   -2.0721    0.2382 C.ar      1 <0>        -0.1232
     14 C14         4.0553   -1.8576   -0.1590 C.ar      1 <0>         0.1577
     15 N1          3.6286   -0.6078    0.2538 N.am      1 <0>        -0.4937
     16 C15         4.5799    0.0229    0.9951 C.2       1 <0>         0.5320
     17 O1          4.4812    1.1197    1.5036 O.2       1 <0>        -0.4686
     18 C16         5.7819   -0.8914    1.0707 C.3       1 <0>        -0.1035
     19 C17         6.0402   -1.3107    2.4950 C.2       1 <0>         0.5384
     20 O2          5.9138   -2.4731    2.8174 O.2       1 <0>        -0.4905
     21 N2          6.4117   -0.3940    3.4105 N.am      1 <0>        -0.6645
     22 C18         6.5575   -0.7644    4.7524 C.ar      1 <0>         0.1465
     23 C19         6.2148    0.1266    5.7610 C.ar      1 <0>        -0.1279
     24 C20         6.3596   -0.2413    7.0843 C.ar      1 <0>        -0.0907
     25 C21         6.8456   -1.4965    7.4056 C.ar      1 <0>        -0.0475
     26 C22         7.1878   -2.3863    6.4024 C.ar      1 <0>        -0.0912
     27 C23         7.0395   -2.0254    5.0775 C.ar      1 <0>        -0.1082
     28 Cl1         7.0270   -1.9556    9.0699 Cl        1 <0>        -0.0675
     29 H1         -0.9334    1.9319   -0.0076 H         1 <0>         0.1279
     30 H2          1.1950    3.1874   -0.0638 H         1 <0>         0.1333
     31 H3          3.3218    1.9470    0.0612 H         1 <0>         0.1411
     32 H4         -0.9180   -0.5119    0.0006 H         1 <0>         0.1301
     33 H5          1.1934   -2.6985    0.5943 H         1 <0>         0.0744
     34 H6          0.0214   -2.3156   -0.6688 H         1 <0>         0.0879
     35 H7          1.6450   -3.7315   -1.6227 H         1 <0>         0.0890
     36 H8          1.9147   -2.1103   -2.2738 H         1 <0>         0.0775
     37 H9          3.6769   -4.6367   -1.9840 H         1 <0>         0.1309
     38 H10         5.9810   -4.9818   -1.2945 H         1 <0>         0.1320
     39 H11         7.1230   -3.3375    0.1857 H         1 <0>         0.1402
     40 H12         6.6607   -0.4038    0.6486 H         1 <0>         0.1574
     41 H13         6.5781    0.5223    3.1394 H         1 <0>         0.4191
     42 H14         5.8358    1.1064    5.5108 H         1 <0>         0.1375
     43 H15         6.0937    0.4514    7.8690 H         1 <0>         0.1393
     44 H16         7.5672   -3.3652    6.6558 H         1 <0>         0.1386
     45 H17         7.3025   -2.7218    4.2950 H         1 <0>         0.1489
@<TRIPOS>BOND
     1    1    6 ar
     2    1    2 ar
     3    1   29 1
     4    2    3 ar
     5    2   30 1
     6    3    4 ar
     7    3   31 1
     8    4   15 1
     9    4    5 ar
    10    5    6 ar
    11    5    7 1
    12    6   32 1
    13    7    8 1
    14    7   33 1
    15    7   34 1
    16    8    9 1
    17    8   35 1
    18    8   36 1
    19    9   14 ar
    20    9   10 ar
    21   10   11 ar
    22   10   37 1
    23   11   12 ar
    24   11   38 1
    25   12   13 ar
    26   12   39 1
    27   13   18 1
    28   13   14 ar
    29   14   15 1
    30   15   16 am
    31   16   17 2
    32   16   18 1
    33   18   19 1
    34   18   40 1
    35   19   20 2
    36   19   21 am
    37   21   22 1
    38   21   41 1
    39   22   27 ar
    40   22   23 ar
    41   23   24 ar
    42   23   42 1
    43   24   25 ar
    44   24   43 1
    45   25   26 ar
    46   25   28 1
    47   26   27 ar
    48   26   44 1
    49   27   45 1
@<TRIPOS>MOLECULE
CHEMBL66435
   47    49     0     0     0
SMALL
USER_CHARGES

@<TRIPOS>ATOM
      1 C1         -0.8185   -3.5248    0.3002 C.3       1 <0>        -0.6495
      2 S1         -0.0272   -1.8937    0.2368 S.o2      1 <0>         2.4989
      3 O1         -1.0124   -0.8756    0.1283 O.2       1 <0>        -0.9333
      4 O2          0.9977   -1.8085    1.2175 O.2       1 <0>        -0.9344
      5 C2          0.8233   -1.8627   -1.3061 C.ar      1 <0>        -0.6539
      6 C3          2.1305   -2.3091   -1.3811 C.ar      1 <0>        -0.0163
      7 C4          2.8019   -2.2874   -2.5864 C.ar      1 <0>        -0.1410
      8 C5          2.1597   -1.8139   -3.7307 C.ar      1 <0>         0.0236
      9 C6          0.8414   -1.3651   -3.6484 C.ar      1 <0>        -0.1103
     10 C7          0.1790   -1.3972   -2.4384 C.ar      1 <0>        -0.0158
     11 C8          2.8741   -1.7874   -5.0263 C.2       1 <0>         0.1133
     12 C9          2.3052   -1.8638   -6.2662 C.2       1 <0>        -0.2248
     13 C10         3.3296   -1.8036   -7.2112 C.2       1 <0>         0.0625
     14 N1          4.4722   -1.6953   -6.5818 N.2       1 <0>        -0.2497
     15 N2          4.2208   -1.6762   -5.2039 N.pl3     1 <0>        -0.3427
     16 C11         5.2254   -1.5606   -4.1439 C.3       1 <0>         0.1486
     17 C12         6.1664   -0.3958   -4.4579 C.3       1 <0>        -0.1246
     18 C13         7.2156   -0.2750   -3.3509 C.3       1 <0>        -0.1182
     19 C14         8.0210   -1.5732   -3.2678 C.3       1 <0>        -0.1247
     20 C15         7.0800   -2.7380   -2.9537 C.3       1 <0>        -0.1177
     21 C16         6.0308   -2.8587   -4.0608 C.3       1 <0>        -0.1314
     22 C17         3.1508   -1.8553   -8.7066 C.3       1 <0>         0.1197
     23 O3          1.7610   -1.9766   -9.0162 O.3       1 <0>        -0.2191
     24 N3          1.4828   -2.0338  -10.4034 N.pl3     1 <0>         0.1310
     25 O4          2.3871   -1.9798  -11.2040 O.2       1 <0>        -0.1210
     26 O5          0.3410   -2.1367  -10.7873 O.3       1 <0>        -0.0639
     27 H1         -1.5045   -3.6287   -0.5405 H         1 <0>         0.1329
     28 H2         -0.0555   -4.3012    0.2446 H         1 <0>         0.1322
     29 H3         -1.3710   -3.6245    1.2345 H         1 <0>         0.1356
     30 H4          2.6267   -2.6751   -0.4944 H         1 <0>         0.1495
     31 H5          3.8225   -2.6358   -2.6436 H         1 <0>         0.1388
     32 H6          0.3390   -0.9971   -4.5308 H         1 <0>         0.1422
     33 H7         -0.8431   -1.0545   -2.3744 H         1 <0>         0.1514
     34 H8          1.2499   -1.9548   -6.4772 H         1 <0>         0.1576
     35 H9          4.7286   -1.3795   -3.1907 H         1 <0>         0.1128
     36 H10         6.6632   -0.5768   -5.4111 H         1 <0>         0.0819
     37 H11         5.5926    0.5291   -4.5172 H         1 <0>         0.0689
     38 H12         7.8860    0.5548   -3.5746 H         1 <0>         0.0743
     39 H13         6.7188   -0.0939   -2.3977 H         1 <0>         0.0667
     40 H14         8.5178   -1.7542   -4.2209 H         1 <0>         0.0669
     41 H15         8.7685   -1.4871   -2.4791 H         1 <0>         0.0704
     42 H16         7.6538   -3.6628   -2.8945 H         1 <0>         0.0747
     43 H17         6.5832   -2.5569   -2.0005 H         1 <0>         0.0673
     44 H18         5.3604   -3.6886   -3.8370 H         1 <0>         0.0687
     45 H19         6.5276   -3.0398   -5.0139 H         1 <0>         0.0804
     46 H20         3.5436   -0.9410   -9.1514 H         1 <0>         0.1109
     47 H21         3.6886   -2.7145   -9.1073 H         1 <0>         0.1105
@<TRIPOS>BOND
     1    1    2 1
     2    1   27 1
     3    1   28 1
     4    1   29 1
     5    2    3 2
     6    2    4 2
     7    2    5 1
     8    5   10 ar
     9    5    6 ar
    10    6    7 ar
    11    6   30 1
    12    7    8 ar
    13    7   31 1
    14    8    9 ar
    15    8   11 1
    16    9   10 ar
    17    9   32 1
    18   10   33 1
    19   11   15 1
    20   11   12 2
    21   12   13 1
    22   12   34 1
    23   13   14 2
    24   13   22 1
    25   14   15 1
    26   15   16 1
    27   16   21 1
    28   16   17 1
    29   16   35 1
    30   17   18 1
    31   17   36 1
    32   17   37 1
    33   18   19 1
    34   18   38 1
    35   18   39 1
    36   19   20 1
    37   19   40 1
    38   19   41 1
    39   20   21 1
    40   20   42 1
    41   20   43 1
    42   21   44 1
    43   21   45 1
    44   22   23 1
    45   22   46 1
    46   22   47 1
    47   23   24 1
    48   24   25 2
    49   24   26 1
@<TRIPOS>MOLECULE
CHEMBL424063
   41    44     0     0     0
SMALL
USER_CHARGES

@<TRIPOS>ATOM
      1 C1         -0.0169    1.3932    0.0097 C.ar      1 <0>        -0.1300
      2 C2          1.1700    2.0956    0.0021 C.ar      1 <0>        -0.0156
      3 C3          2.3776    1.4200   -0.0135 C.ar      1 <0>        -0.6772
      4 C4          2.4042    0.0365   -0.0216 C.ar      1 <0>        -0.0146
      5 C5          1.2254   -0.6794   -0.0138 C.ar      1 <0>        -0.1236
      6 C6          0.0021   -0.0041    0.0020 C.ar      1 <0>         0.0310
      7 C7         -1.2620   -0.7618    0.0105 C.2       1 <0>        -0.1003
      8 C8         -1.6848   -1.5521   -0.9851 C.2       1 <0>        -0.0657
      9 C9         -3.0189   -2.1721   -0.6397 C.3       1 <0>        -0.0880
     10 C10        -3.1594   -1.9878    0.8882 C.3       1 <0>        -0.1222
     11 C11        -2.2588   -0.7608    1.1463 C.3       1 <0>        -0.0833
     12 C12        -0.9517   -1.7838   -2.2420 C.ar      1 <0>        -0.0334
     13 C13        -0.7407   -0.7294   -3.1349 C.ar      1 <0>        -0.0908
     14 C14        -0.0544   -0.9489   -4.3102 C.ar      1 <0>        -0.0973
     15 C15         0.4288   -2.2143   -4.6115 C.ar      1 <0>         0.0367
     16 C16         0.2218   -3.2711   -3.7252 C.ar      1 <0>         0.0345
     17 C17        -0.4603   -3.0571   -2.5422 C.ar      1 <0>        -0.0868
     18 O1          0.7895   -4.3969   -4.2491 O.3       1 <0>        -0.3078
     19 C18         0.9872   -4.1127   -5.6467 C.3       1 <0>         0.2130
     20 O2          1.1260   -2.6803   -5.6886 O.3       1 <0>        -0.3069
     21 S1          3.8889    2.3259   -0.0236 S.o2      1 <0>         2.6996
     22 O3          4.8719    1.4696   -0.5888 O.2       1 <0>        -0.9625
     23 O4          3.5915    3.6058   -0.5647 O.2       1 <0>        -0.9628
     24 N1          4.3245    2.5692    1.5554 N.pl3     1 <0>        -1.2500
     25 H1         -0.9586    1.9217    0.0260 H         1 <0>         0.1360
     26 H2          1.1570    3.1755    0.0081 H         1 <0>         0.1450
     27 H3          3.3504   -0.4841   -0.0345 H         1 <0>         0.1439
     28 H4          1.2477   -1.7591   -0.0201 H         1 <0>         0.1332
     29 H5         -3.8241   -1.6532   -1.1597 H         1 <0>         0.0841
     30 H6         -3.0222   -3.2316   -0.8956 H         1 <0>         0.0778
     31 H7         -4.1937   -1.7796    1.1622 H         1 <0>         0.0797
     32 H8         -2.7846   -2.8611    1.4222 H         1 <0>         0.0746
     33 H9         -1.7445   -0.8609    2.1021 H         1 <0>         0.0764
     34 H10        -2.8529    0.1530    1.1284 H         1 <0>         0.0820
     35 H11        -1.1155    0.2569   -2.9044 H         1 <0>         0.1372
     36 H12         0.1074   -0.1331   -4.9992 H         1 <0>         0.1387
     37 H13        -0.6168   -3.8736   -1.8529 H         1 <0>         0.1369
     38 H14         1.8936   -4.5960   -6.0112 H         1 <0>         0.1340
     39 H15         0.1220   -4.4308   -6.2282 H         1 <0>         0.0863
     40 H16         3.7663    2.2265    2.2709 H         1 <0>         0.4168
     41 H17         5.1379    3.0543    1.7649 H         1 <0>         0.4214
@<TRIPOS>BOND
     1    1    6 ar
     2    1    2 ar
     3    1   25 1
     4    2    3 ar
     5    2   26 1
     6    3    4 ar
     7    3   21 1
     8    4    5 ar
     9    4   27 1
    10    5    6 ar
    11    5   28 1
    12    6    7 1
    13    7   11 1
    14    7    8 2
    15    8    9 1
    16    8   12 1
    17    9   10 1
    18    9   29 1
    19    9   30 1
    20   10   11 1
    21   10   31 1
    22   10   32 1
    23   11   33 1
    24   11   34 1
    25   12   17 ar
    26   12   13 ar
    27   13   14 ar
    28   13   35 1
    29   14   15 ar
    30   14   36 1
    31   15   20 1
    32   15   16 ar
    33   16   17 ar
    34   16   18 1
    35   17   37 1
    36   18   19 1
    37   19   20 1
    38   19   38 1
    39   19   39 1
    40   21   22 2
    41   21   23 2
    42   21   24 1
    43   24   40 1
    44   24   41 1
@<TRIPOS>MOLECULE
CHEMBL283497
   48    51     0     0     0
SMALL
USER_CHARGES

@<TRIPOS>ATOM
      1 C1          0.0498    1.6210   -0.6973 C.ar      1 <0>        -0.0870
      2 C2          1.2478    2.2529   -0.4262 C.ar      1 <0>        -0.1372
      3 C3          2.4364    1.7234   -0.9115 C.ar      1 <0>         0.1552
      4 C4          2.4169    0.5591   -1.6685 C.ar      1 <0>        -0.1135
      5 C5          1.2152   -0.0687   -1.9364 C.ar      1 <0>        -0.0165
      6 C6          0.0325    0.4622   -1.4510 C.ar      1 <0>        -0.1229
      7 Cl1         1.1888   -1.5241   -2.8824 Cl        1 <0>        -0.0619
      8 N1          3.6506    2.3615   -0.6389 N.am      1 <0>        -0.6598
      9 C7          4.7644    1.6311   -0.4329 C.2       1 <0>         0.6090
     10 O1          4.7322    0.4229   -0.5654 O.2       1 <0>        -0.4999
     11 C8          6.0239    2.2982   -0.0464 C.2       1 <0>        -0.0009
     12 C9          7.2641    1.6677    0.1959 C.2       1 <0>        -0.1431
     13 C10         8.1282    2.6759    0.5203 C.2       1 <0>         0.0673
     14 N2          7.4145    3.8398    0.4670 N.pl3     1 <0>        -0.2383
     15 N3          6.1994    3.5936    0.1308 N.2       1 <0>        -0.2432
     16 C11         7.9322    5.1131    0.7340 C.ar      1 <0>         0.1811
     17 C12         9.1492    5.4982    0.1868 C.ar      1 <0>        -0.1268
     18 C13         9.6569    6.7550    0.4517 C.ar      1 <0>        -0.0015
     19 C14         8.9551    7.6294    1.2612 C.ar      1 <0>        -0.6687
     20 C15         7.7433    7.2487    1.8080 C.ar      1 <0>         0.0002
     21 C16         7.2271    5.9957    1.5419 C.ar      1 <0>        -0.1182
     22 S1          9.6067    9.2316    1.5972 S.o2      1 <0>         2.7024
     23 O2          9.0242    9.6585    2.8210 O.2       1 <0>        -0.9558
     24 O3         11.0129    9.1452    1.4121 O.2       1 <0>        -0.9554
     25 N4          9.0361   10.2486    0.4214 N.pl3     1 <0>        -1.2483
     26 C17         9.5604    2.5340    0.8638 C.ar      1 <0>        -0.0487
     27 C18        10.1821    3.4815    1.6776 C.ar      1 <0>        -0.0821
     28 C19        11.5174    3.3444    1.9953 C.ar      1 <0>        -0.1470
     29 C20        12.2412    2.2683    1.5073 C.ar      1 <0>         0.1164
     30 C21        11.6284    1.3245    0.6986 C.ar      1 <0>        -0.1474
     31 C22        10.2922    1.4493    0.3798 C.ar      1 <0>        -0.0577
     32 F1         13.5490    2.1390    1.8207 F         1 <0>        -0.1318
     33 H1         -0.8742    2.0302   -0.3162 H         1 <0>         0.1389
     34 H2          1.2601    3.1583    0.1624 H         1 <0>         0.1337
     35 H3          3.3395    0.1450   -2.0476 H         1 <0>         0.1507
     36 H4         -0.9055   -0.0301   -1.6612 H         1 <0>         0.1364
     37 H5          3.6912    3.3298   -0.5980 H         1 <0>         0.4201
     38 H6          7.4833    0.6117    0.1377 H         1 <0>         0.1771
     39 H7          9.6981    4.8156   -0.4449 H         1 <0>         0.1479
     40 H8         10.6033    7.0551    0.0265 H         1 <0>         0.1595
     41 H9          7.1979    7.9336    2.4403 H         1 <0>         0.1592
     42 H10         6.2784    5.7008    1.9653 H         1 <0>         0.1495
     43 H11         8.4543    9.9065   -0.2753 H         1 <0>         0.4177
     44 H12         9.2838   11.1864    0.4293 H         1 <0>         0.4240
     45 H13         9.6190    4.3210    2.0579 H         1 <0>         0.1328
     46 H14        11.9996    4.0773    2.6252 H         1 <0>         0.1443
     47 H15        12.1969    0.4876    0.3208 H         1 <0>         0.1461
     48 H16         9.8145    0.7110   -0.2472 H         1 <0>         0.1437
@<TRIPOS>BOND
     1    1    6 ar
     2    1    2 ar
     3    1   33 1
     4    2    3 ar
     5    2   34 1
     6    3    4 ar
     7    3    8 1
     8    4    5 ar
     9    4   35 1
    10    5    6 ar
    11    5    7 1
    12    6   36 1
    13    8    9 am
    14    8   37 1
    15    9   10 2
    16    9   11 1
    17   11   15 2
    18   11   12 1
    19   12   13 2
    20   12   38 1
    21   13   14 1
    22   13   26 1
    23   14   15 1
    24   14   16 1
    25   16   21 ar
    26   16   17 ar
    27   17   18 ar
    28   17   39 1
    29   18   19 ar
    30   18   40 1
    31   19   20 ar
    32   19   22 1
    33   20   21 ar
    34   20   41 1
    35   21   42 1
    36   22   23 2
    37   22   24 2
    38   22   25 1
    39   25   43 1
    40   25   44 1
    41   26   31 ar
    42   26   27 ar
    43   27   28 ar
    44   27   45 1
    45   28   29 ar
    46   28   46 1
    47   29   30 ar
    48   29   32 1
    49   30   31 ar
    50   30   47 1
    51   31   48 1
@<TRIPOS>MOLECULE
CHEMBL417254
   51    53     0     0     0
SMALL
USER_CHARGES

@<TRIPOS>ATOM
      1 C1         -0.0187    1.5258    0.0104 C.3       1 <0>        -0.1368
      2 C2          0.0021   -0.0041    0.0020 C.3       1 <0>        -0.0515
      3 C3         -1.4208   -0.5776    0.2013 C.3       1 <0>         0.0540
      4 O1         -1.4944   -0.7620    1.6248 O.3       1 <0>        -0.2903
      5 C4         -0.2449   -0.9741    2.1168 C.ar      1 <0>         0.1552
      6 C5          0.7294   -0.5433    1.2192 C.ar      1 <0>        -0.1740
      7 C6          2.0544   -0.6499    1.5157 C.ar      1 <0>        -0.0070
      8 C7          2.4559   -1.2073    2.7370 C.ar      1 <0>        -0.1947
      9 C8          1.4846   -1.6506    3.6432 C.ar      1 <0>        -0.0396
     10 C9          0.1507   -1.5340    3.3336 C.ar      1 <0>        -0.1030
     11 C10        -0.8905   -2.0129    4.3121 C.3       1 <0>        -0.0218
     12 C11        -0.2005   -2.5788    5.5549 C.3       1 <0>        -0.1482
     13 C12        -1.7880   -0.8414    4.7159 C.3       1 <0>        -0.1416
     14 C13        -1.7403   -3.1048    3.6589 C.3       1 <0>        -0.1418
     15 C14         3.8828   -1.3260    3.0636 C.2       1 <0>         0.4183
     16 O2          4.7197   -0.9407    2.2746 O.2       1 <0>        -0.4308
     17 C15         4.3073   -1.9265    4.3789 C.3       1 <0>        -0.1534
     18 S1          6.1183   -1.9337    4.4840 S.3       1 <0>        -0.1957
     19 C16         6.4610   -2.6769    6.1029 C.3       1 <0>        -0.0683
     20 C17         7.9735   -2.7443    6.3232 C.3       1 <0>        -0.1418
     21 C18         8.6074   -4.1308    6.4534 C.3       1 <0>        -0.1731
     22 C19         8.4678   -3.2346    7.6856 C.3       1 <0>        -0.1697
     23 C20         0.6299   -0.5328   -1.2892 C.3       1 <0>        -0.1384
     24 H1          1.0039    1.9031    0.0027 H         1 <0>         0.0647
     25 H2         -0.5459    1.8868   -0.8726 H         1 <0>         0.0666
     26 H3         -0.5289    1.8773    0.9072 H         1 <0>         0.0607
     27 H4         -2.1745    0.1343   -0.1352 H         1 <0>         0.1107
     28 H5         -1.5291   -1.5301   -0.3174 H         1 <0>         0.0823
     29 H6          2.7954   -0.3053    0.8096 H         1 <0>         0.1353
     30 H7          1.7840   -2.0846    4.5857 H         1 <0>         0.1427
     31 H8          0.4049   -1.8009    6.0202 H         1 <0>         0.0591
     32 H9         -0.9536   -2.9252    6.2626 H         1 <0>         0.0633
     33 H10         0.4389   -3.4134    5.2672 H         1 <0>         0.0589
     34 H11        -2.2796   -0.4383    3.8305 H         1 <0>         0.0648
     35 H12        -2.5411   -1.1878    5.4237 H         1 <0>         0.0596
     36 H13        -1.1826   -0.0636    5.1812 H         1 <0>         0.0542
     37 H14        -1.1009   -3.9394    3.3712 H         1 <0>         0.0540
     38 H15        -2.4934   -3.4512    4.3667 H         1 <0>         0.0599
     39 H16        -2.2319   -2.7017    2.7735 H         1 <0>         0.0637
     40 H17         3.8982   -1.3344    5.1976 H         1 <0>         0.1152
     41 H18         3.9353   -2.9487    4.4486 H         1 <0>         0.1150
     42 H19         6.0066   -2.0690    6.8853 H         1 <0>         0.0849
     43 H20         6.0437   -3.6833    6.1363 H         1 <0>         0.0820
     44 H21         8.5561   -1.9690    5.8257 H         1 <0>         0.1139
     45 H22         7.9468   -4.9948    6.3821 H         1 <0>         0.0961
     46 H23         9.6071   -4.2678    6.0413 H         1 <0>         0.0981
     47 H24         9.3758   -2.7821    8.0842 H         1 <0>         0.0992
     48 H25         7.7155   -3.5091    8.4250 H         1 <0>         0.0960
     49 H26         1.6576   -0.1776   -1.3654 H         1 <0>         0.0659
     50 H27         0.6221   -1.6227   -1.2772 H         1 <0>         0.0612
     51 H28         0.0574   -0.1747   -2.1448 H         1 <0>         0.0661
@<TRIPOS>BOND
     1    1    2 1
     2    1   24 1
     3    1   25 1
     4    1   26 1
     5    2    6 1
     6    2    3 1
     7    2   23 1
     8    3    4 1
     9    3   27 1
    10    3   28 1
    11    4    5 1
    12    5   10 ar
    13    5    6 ar
    14    6    7 ar
    15    7    8 ar
    16    7   29 1
    17    8    9 ar
    18    8   15 1
    19    9   10 ar
    20    9   30 1
    21   10   11 1
    22   11   12 1
    23   11   13 1
    24   11   14 1
    25   12   31 1
    26   12   32 1
    27   12   33 1
    28   13   34 1
    29   13   35 1
    30   13   36 1
    31   14   37 1
    32   14   38 1
    33   14   39 1
    34   15   16 2
    35   15   17 1
    36   17   18 1
    37   17   40 1
    38   17   41 1
    39   18   19 1
    40   19   20 1
    41   19   42 1
    42   19   43 1
    43   20   22 1
    44   20   21 1
    45   20   44 1
    46   21   22 1
    47   21   45 1
    48   21   46 1
    49   22   47 1
    50   22   48 1
    51   23   49 1
    52   23   50 1
    53   23   51 1
@<TRIPOS>MOLECULE
CHEMBL257295
   47    49     0     0     0
SMALL
USER_CHARGES

@<TRIPOS>ATOM
      1 C1         -0.0225    1.8097    0.0120 C.3       1 <0>        -0.6496
      2 S1          0.0021   -0.0041    0.0020 S.o2      1 <0>         2.4988
      3 O1          0.8352   -0.4880    1.0465 O.2       1 <0>        -0.9347
      4 O2         -1.3147   -0.5105   -0.1678 O.2       1 <0>        -0.9338
      5 C2          0.8454   -0.4373   -1.4831 C.ar      1 <0>        -0.6410
      6 C3          0.1315   -0.6121   -2.6550 C.ar      1 <0>        -0.0327
      7 C4          0.7868   -0.9515   -3.8212 C.ar      1 <0>        -0.0870
      8 C5          2.1706   -1.1181   -3.8167 C.ar      1 <0>         0.0039
      9 C6          2.8847   -0.9407   -2.6331 C.ar      1 <0>        -0.0876
     10 C7          2.2196   -0.5958   -1.4740 C.ar      1 <0>        -0.0342
     11 C8          2.8804   -1.4832   -5.0667 C.ar      1 <0>         0.4078
     12 N1          2.1831   -1.6426   -6.1832 N.ar      1 <0>        -0.5144
     13 C9          2.7813   -1.9684   -7.3184 C.ar      1 <0>         0.1266
     14 C10         4.1522   -2.1437   -7.3345 C.ar      1 <0>        -0.2416
     15 C11         4.8605   -1.9692   -6.1430 C.ar      1 <0>         0.4565
     16 N2          4.1968   -1.6370   -5.0412 N.ar      1 <0>        -0.5489
     17 N3          6.2357   -2.1352   -6.1121 N.pl3     1 <0>        -0.6957
     18 C12         6.9577   -2.4963   -7.3346 C.3       1 <0>         0.1461
     19 C13         6.9256   -4.0152   -7.5160 C.3       1 <0>        -0.1370
     20 C14         7.6796   -4.3923   -8.7928 C.3       1 <0>        -0.1185
     21 C15         9.1316   -3.9220   -8.6855 C.3       1 <0>        -0.1243
     22 C16         9.1636   -2.4031   -8.5041 C.3       1 <0>        -0.1164
     23 C17         8.4096   -2.0260   -7.2273 C.3       1 <0>        -0.1255
     24 C18         1.9760   -2.1467   -8.5797 C.3       1 <0>         0.5246
     25 F1          0.6415   -1.8067   -8.3329 F         1 <0>        -0.1557
     26 F2          2.4905   -1.3180   -9.5826 F         1 <0>        -0.1660
     27 F3          2.0483   -3.4808   -8.9945 F         1 <0>        -0.1652
     28 H1          1.0001    2.1870    0.0043 H         1 <0>         0.1322
     29 H2         -0.5497    2.1708   -0.8711 H         1 <0>         0.1327
     30 H3         -0.5327    2.1613    0.9088 H         1 <0>         0.1346
     31 H4         -0.9407   -0.4831   -2.6572 H         1 <0>         0.1504
     32 H5          0.2284   -1.0881   -4.7355 H         1 <0>         0.1504
     33 H6          3.9570   -1.0688   -2.6238 H         1 <0>         0.1475
     34 H7          2.7725   -0.4534   -0.5573 H         1 <0>         0.1494
     35 H8          4.6642   -2.4100   -8.2474 H         1 <0>         0.1575
     36 H9          6.7205   -2.0123   -5.2809 H         1 <0>         0.4135
     37 H10         6.4832   -2.0180   -8.1915 H         1 <0>         0.0872
     38 H11         7.4001   -4.4935   -6.6592 H         1 <0>         0.0716
     39 H12         5.8912   -4.3502   -7.5925 H         1 <0>         0.0666
     40 H13         7.6568   -5.4744   -8.9220 H         1 <0>         0.0698
     41 H14         7.2051   -3.9140   -9.6497 H         1 <0>         0.0659
     42 H15         9.6060   -4.4003   -7.8286 H         1 <0>         0.0646
     43 H16         9.6687   -4.1907   -9.5951 H         1 <0>         0.0676
     44 H17        10.1980   -2.0680   -8.4276 H         1 <0>         0.0716
     45 H18         8.6891   -1.9248   -9.3610 H         1 <0>         0.0669
     46 H19         8.4324   -0.9439   -7.0981 H         1 <0>         0.0728
     47 H20         8.8841   -2.5043   -6.3705 H         1 <0>         0.0729
@<TRIPOS>BOND
     1    1    2 1
     2    1   28 1
     3    1   29 1
     4    1   30 1
     5    2    3 2
     6    2    4 2
     7    2    5 1
     8    5   10 ar
     9    5    6 ar
    10    6    7 ar
    11    6   31 1
    12    7    8 ar
    13    7   32 1
    14    8    9 ar
    15    8   11 1
    16    9   10 ar
    17    9   33 1
    18   10   34 1
    19   11   16 ar
    20   11   12 ar
    21   12   13 ar
    22   13   14 ar
    23   13   24 1
    24   14   15 ar
    25   14   35 1
    26   15   16 ar
    27   15   17 1
    28   17   18 1
    29   17   36 1
    30   18   23 1
    31   18   19 1
    32   18   37 1
    33   19   20 1
    34   19   38 1
    35   19   39 1
    36   20   21 1
    37   20   40 1
    38   20   41 1
    39   21   22 1
    40   21   42 1
    41   21   43 1
    42   22   23 1
    43   22   44 1
    44   22   45 1
    45   23   46 1
    46   23   47 1
    47   24   25 1
    48   24   26 1
    49   24   27 1
@<TRIPOS>MOLECULE
CHEMBL62038
   29    31     0     0     0
SMALL
USER_CHARGES

@<TRIPOS>ATOM
      1 C1          1.9025    3.4154   -2.8069 C.2       1 <0>        -0.1822
      2 C2          2.1917    3.1284   -1.4938 C.2       1 <0>        -0.1077
      3 C3          3.1899    2.1885   -1.2887 C.2       1 <0>        -0.2282
      4 S1          3.6517    1.7741   -2.9599 S.3       1 <0>         0.2414
      5 C4          2.5907    2.7803   -3.7871 C.2       1 <0>        -0.2625
      6 C5          3.7269    1.6700   -0.0250 C.2       1 <0>         0.5575
      7 O1          3.3541    2.1425    1.0353 O.2       1 <0>        -0.4632
      8 C6          4.7105    0.5848   -0.0376 C.2       1 <0>        -0.4597
      9 C7          6.1796    0.7228    0.0078 C.ar      1 <0>         0.0233
     10 C8          7.0407    1.8152    0.0710 C.ar      1 <0>        -0.1172
     11 C9          8.4047    1.6093    0.1006 C.ar      1 <0>        -0.0332
     12 C10         8.9170    0.3205    0.0675 C.ar      1 <0>        -0.1429
     13 C11         8.0731   -0.7686    0.0049 C.ar      1 <0>        -0.0989
     14 C12         6.6971   -0.5803   -0.0256 C.ar      1 <0>         0.0804
     15 N1          5.6254   -1.4612   -0.0873 N.am      1 <0>        -0.5216
     16 C13         4.4464   -0.7722   -0.0884 C.2       1 <0>         0.4918
     17 O2          3.2157   -1.3282   -0.1348 O.3       1 <0>        -0.6719
     18 C14         5.7333   -2.8038   -0.1334 C.2       1 <0>         0.7415
     19 O3          5.7530   -3.4476    0.8971 O.2       1 <0>        -0.5370
     20 N2          5.8192   -3.4325   -1.3225 N.am      1 <0>        -0.8414
     21 Cl1         9.4832    2.9674    0.1788 Cl        1 <0>        -0.0954
     22 H1          1.1345    4.1334   -3.0541 H         1 <0>         0.1269
     23 H2          1.6745    3.6052   -0.6743 H         1 <0>         0.1420
     24 H3          2.4819    2.8950   -4.8555 H         1 <0>         0.1801
     25 H4          6.6428    2.8189    0.0965 H         1 <0>         0.1221
     26 H5          9.9861    0.1687    0.0907 H         1 <0>         0.1249
     27 H6          8.4820   -1.7679   -0.0200 H         1 <0>         0.1167
     28 H7          5.8035   -2.9186   -2.1450 H         1 <0>         0.4038
     29 H8          5.8969   -4.3988   -1.3557 H         1 <0>         0.4105
@<TRIPOS>BOND
     1    1    5 2
     2    1    2 1
     3    1   22 1
     4    2    3 2
     5    2   23 1
     6    3    4 1
     7    3    6 1
     8    4    5 1
     9    5   24 1
    10    6    7 2
    11    6    8 1
    12    8   16 2
    13    8    9 1
    14    9   14 ar
    15    9   10 ar
    16   10   11 ar
    17   10   25 1
    18   11   12 ar
    19   11   21 1
    20   12   13 ar
    21   12   26 1
    22   13   14 ar
    23   13   27 1
    24   14   15 1
    25   15   16 1
    26   15   18 am
    27   16   17 1
    28   18   19 2
    29   18   20 am
    30   20   28 1
    31   20   29 1
@<TRIPOS>MOLECULE
CHEMBL321597
   48    51     0     0     0
SMALL
USER_CHARGES

@<TRIPOS>ATOM
      1 C1         -0.0799    0.9501    0.8391 C.3       1 <0>        -0.1542
      2 C2          0.0635   -0.5126    0.4137 C.3       1 <0>         0.1365
      3 C3          0.7947   -0.5992   -0.9055 C.2       1 <0>        -0.0589
      4 C4          1.9191   -1.3168   -0.6760 C.2       1 <0>         0.0089
      5 C5          1.9500   -1.7005    0.7371 C.2       1 <0>         0.5015
      6 O1          2.8306   -2.3524    1.2643 O.2       1 <0>        -0.4284
      7 O2          0.8593   -1.2247    1.3657 O.3       1 <0>        -0.2962
      8 O3          2.8626   -1.6299   -1.6030 O.3       1 <0>        -0.2091
      9 C6          4.1022   -1.1028   -1.4525 C.ar      1 <0>         0.3403
     10 C7          5.1224   -1.4946   -2.3285 C.ar      1 <0>        -0.1695
     11 C8          6.3739   -0.9730   -2.1901 C.ar      1 <0>        -0.0215
     12 C9          6.5990   -0.0439   -1.1543 C.ar      1 <0>        -0.1275
     13 C10         7.8629    0.5331   -0.9547 C.ar      1 <0>        -0.0838
     14 C11         8.0428    1.4275    0.0564 C.ar      1 <0>        -0.1238
     15 C12         6.9881    1.7780    0.8962 C.ar      1 <0>        -0.0868
     16 C13         5.7497    1.2377    0.7308 C.ar      1 <0>        -0.1036
     17 C14         5.5252    0.3109   -0.3018 C.ar      1 <0>         0.1683
     18 N1          4.3169   -0.2313   -0.4904 N.ar      1 <0>        -0.5237
     19 C15         0.3680   -0.0180   -2.1881 C.ar      1 <0>         0.0132
     20 C16         0.3213    1.3704   -2.3498 C.ar      1 <0>        -0.1169
     21 C17        -0.0792    1.9073   -3.5550 C.ar      1 <0>        -0.0207
     22 C18        -0.4344    1.0762   -4.6031 C.ar      1 <0>        -0.6519
     23 C19        -0.3913   -0.2988   -4.4509 C.ar      1 <0>        -0.0183
     24 C20         0.0126   -0.8512   -3.2538 C.ar      1 <0>        -0.1095
     25 S1         -0.9448    1.7721   -6.1393 S.o2      1 <0>         2.4986
     26 O4         -1.6976    0.7453   -6.7703 O.2       1 <0>        -0.9340
     27 O5         -1.5541    3.0082   -5.7927 O.2       1 <0>        -0.9336
     28 C21         0.5949    2.0685   -7.0513 C.3       1 <0>        -0.6501
     29 C22        -1.3168   -1.1615    0.2935 C.3       1 <0>        -0.1530
     30 H1          0.9081    1.4030    0.9218 H         1 <0>         0.0736
     31 H2         -0.6657    1.4893    0.0946 H         1 <0>         0.0881
     32 H3         -0.5844    1.0000    1.8041 H         1 <0>         0.0878
     33 H4          4.9178   -2.2091   -3.1121 H         1 <0>         0.1501
     34 H5          7.1725   -1.2642   -2.8565 H         1 <0>         0.1535
     35 H6          8.6882    0.2688   -1.5992 H         1 <0>         0.1333
     36 H7          9.0158    1.8706    0.2093 H         1 <0>         0.1305
     37 H8          7.1556    2.4894    1.6914 H         1 <0>         0.1326
     38 H9          4.9427    1.5198    1.3907 H         1 <0>         0.1342
     39 H10         0.5978    2.0203   -1.5327 H         1 <0>         0.1397
     40 H11        -0.1162    2.9793   -3.6814 H         1 <0>         0.1484
     41 H12        -0.6707   -0.9408   -5.2732 H         1 <0>         0.1514
     42 H13         0.0500   -1.9243   -3.1379 H         1 <0>         0.1396
     43 H14         1.0830    1.1163   -7.2594 H         1 <0>         0.1329
     44 H15         0.3695    2.5740   -7.9903 H         1 <0>         0.1354
     45 H16         1.2576    2.6932   -6.4523 H         1 <0>         0.1316
     46 H17        -1.9012   -0.6353   -0.4613 H         1 <0>         0.0874
     47 H18        -1.2033   -2.2057    0.0023 H         1 <0>         0.0717
     48 H19        -1.8294   -1.1057    1.2538 H         1 <0>         0.0860
@<TRIPOS>BOND
     1    1    2 1
     2    1   30 1
     3    1   31 1
     4    1   32 1
     5    2    7 1
     6    2    3 1
     7    2   29 1
     8    3    4 2
     9    3   19 1
    10    4    5 1
    11    4    8 1
    12    5    6 2
    13    5    7 1
    14    8    9 1
    15    9   18 ar
    16    9   10 ar
    17   10   11 ar
    18   10   33 1
    19   11   12 ar
    20   11   34 1
    21   12   17 ar
    22   12   13 ar
    23   13   14 ar
    24   13   35 1
    25   14   15 ar
    26   14   36 1
    27   15   16 ar
    28   15   37 1
    29   16   17 ar
    30   16   38 1
    31   17   18 ar
    32   19   24 ar
    33   19   20 ar
    34   20   21 ar
    35   20   39 1
    36   21   22 ar
    37   21   40 1
    38   22   23 ar
    39   22   25 1
    40   23   24 ar
    41   23   41 1
    42   24   42 1
    43   25   26 2
    44   25   27 2
    45   25   28 1
    46   28   43 1
    47   28   44 1
    48   28   45 1
    49   29   46 1
    50   29   47 1
    51   29   48 1
@<TRIPOS>MOLECULE
CHEMBL305971
   48    51     0     0     0
SMALL
USER_CHARGES

@<TRIPOS>ATOM
      1 C1          1.1777   -0.6007   -0.4783 C.3       1 <0>        -0.1425
      2 C2          0.1686    0.0996    0.4339 C.3       1 <0>        -0.1126
      3 C3         -1.2407   -0.4053    0.1179 C.3       1 <0>         0.2095
      4 C4         -1.2900   -1.9075    0.2697 C.2       1 <0>         0.0759
      5 C5         -1.8905   -2.7140   -0.6363 C.2       1 <0>        -0.1766
      6 C6         -1.7397   -4.0718   -0.1656 C.ar      1 <0>        -0.0857
      7 C7         -2.1484   -5.3077   -0.6768 C.ar      1 <0>        -0.0727
      8 C8         -1.8217   -6.4221    0.0554 C.ar      1 <0>        -0.1536
      9 C9         -1.1207   -6.3405    1.2475 C.ar      1 <0>        -0.1107
     10 C10        -0.7038   -5.1317    1.7771 C.ar      1 <0>        -0.1287
     11 C11        -1.0211   -3.9829    1.0555 C.ar      1 <0>         0.0923
     12 N1         -0.7685   -2.6601    1.2850 N.pl3     1 <0>        -0.5729
     13 H1         -0.2906   -2.3080    2.0522 H         1 <0>         0.4144
     14 C12        -2.5686   -2.1960   -1.8798 C.3       1 <0>        -0.0330
     15 H2         -1.9356   -2.3782   -2.7482 H         1 <0>         0.0812
     16 C13        -2.7868   -0.6864   -1.7034 C.3       1 <0>         0.0625
     17 O1         -1.5780   -0.0814   -1.2367 O.3       1 <0>        -0.3239
     18 C14        -3.9159   -2.8970   -2.0650 C.3       1 <0>        -0.0723
     19 C15        -4.5311   -2.4657   -3.3713 C.ar      1 <0>        -0.0748
     20 C16        -5.3570   -1.3580   -3.4140 C.ar      1 <0>        -0.1150
     21 C17        -5.9214   -0.9624   -4.6122 C.ar      1 <0>        -0.1164
     22 C18        -5.6595   -1.6741   -5.7680 C.ar      1 <0>        -0.1288
     23 C19        -4.8328   -2.7812   -5.7255 C.ar      1 <0>        -0.1209
     24 C20        -4.2650   -3.1744   -4.5280 C.ar      1 <0>        -0.1179
     25 C21        -2.2472    0.2439    1.0699 C.3       1 <0>        -0.2061
     26 C22        -2.2620    1.7341    0.8454 C.2       1 <0>         0.4972
     27 O2         -1.6238    2.2184   -0.0736 O.co2     1 <0>        -0.6687
     28 O3         -2.9122    2.4552    1.5828 O.co2     1 <0>        -0.7081
     29 H3          2.1686   -0.1762   -0.3173 H         1 <0>         0.0473
     30 H4          1.1971   -1.6660   -0.2484 H         1 <0>         0.0403
     31 H5          0.8863   -0.4588   -1.5190 H         1 <0>         0.0639
     32 H6          0.4076   -0.1181    1.4749 H         1 <0>         0.0544
     33 H7          0.2146    1.1759    0.2680 H         1 <0>         0.1100
     34 H8         -2.6960   -5.3820   -1.6047 H         1 <0>         0.1258
     35 H9         -2.1212   -7.3935   -0.3094 H         1 <0>         0.1127
     36 H10        -0.8915   -7.2509    1.7813 H         1 <0>         0.1154
     37 H11        -0.1581   -5.0812    2.7077 H         1 <0>         0.1235
     38 H12        -3.0680   -0.2457   -2.6598 H         1 <0>         0.0926
     39 H13        -3.5817   -0.5166   -0.9772 H         1 <0>         0.0511
     40 H14        -3.7657   -3.9766   -2.0730 H         1 <0>         0.0769
     41 H15        -4.5809   -2.6287   -1.2441 H         1 <0>         0.0734
     42 H16        -5.5617   -0.8019   -2.5110 H         1 <0>         0.1233
     43 H17        -6.5672   -0.0974   -4.6454 H         1 <0>         0.1207
     44 H18        -6.1009   -1.3654   -6.7040 H         1 <0>         0.1175
     45 H19        -4.6284   -3.3375   -6.6284 H         1 <0>         0.1179
     46 H20        -3.6162   -4.0371   -4.4955 H         1 <0>         0.1193
     47 H21        -3.2409   -0.1620    0.8802 H         1 <0>         0.0617
     48 H22        -1.9599    0.0346    2.1004 H         1 <0>         0.0611
@<TRIPOS>BOND
     1    1    2 1
     2    1   29 1
     3    1   30 1
     4    1   31 1
     5    2    3 1
     6    2   32 1
     7    2   33 1
     8    3   17 1
     9    3    4 1
    10    3   25 1
    11    4   12 1
    12    4    5 2
    13    5    6 1
    14    5   14 1
    15    6   11 ar
    16    6    7 ar
    17    7    8 ar
    18    7   34 1
    19    8    9 ar
    20    8   35 1
    21    9   10 ar
    22    9   36 1
    23   10   11 ar
    24   10   37 1
    25   11   12 1
    26   12   13 1
    27   14   15 1
    28   14   16 1
    29   14   18 1
    30   16   17 1
    31   16   38 1
    32   16   39 1
    33   18   19 1
    34   18   40 1
    35   18   41 1
    36   19   24 ar
    37   19   20 ar
    38   20   21 ar
    39   20   42 1
    40   21   22 ar
    41   21   43 1
    42   22   23 ar
    43   22   44 1
    44   23   24 ar
    45   23   45 1
    46   24   46 1
    47   25   26 1
    48   25   47 1
    49   25   48 1
    50   26   27 2
    51   26   28 1
@<TRIPOS>MOLECULE
CHEMBL305971__1
   48    51     0     0     0
SMALL
USER_CHARGES

@<TRIPOS>ATOM
      1 C1          0.0587    1.4420   -0.1579 C.3       1 <0>        -0.1464
      2 C2          0.0243   -0.0827   -0.0365 C.3       1 <0>        -0.1443
      3 C3         -1.4234   -0.5484    0.1319 C.3       1 <0>         0.2053
      4 C4         -1.4595   -2.0487    0.3049 C.2       1 <0>         0.1112
      5 C5         -1.6687   -2.6410    1.5037 C.2       1 <0>        -0.1607
      6 C6         -1.6382   -4.0691    1.2856 C.ar      1 <0>        -0.0800
      7 C7         -1.7913   -5.1662    2.1392 C.ar      1 <0>        -0.0752
      8 C8         -1.7011   -6.4129    1.5716 C.ar      1 <0>        -0.1564
      9 C9         -1.4688   -6.5905    0.2175 C.ar      1 <0>        -0.1160
     10 C10        -1.3123   -5.5239   -0.6504 C.ar      1 <0>        -0.1293
     11 C11        -1.3999   -4.2459   -0.1028 C.ar      1 <0>         0.0946
     12 N1         -1.2969   -3.0030   -0.6606 N.pl3     1 <0>        -0.5735
     13 H1         -1.1338   -2.8246   -1.6000 H         1 <0>         0.4100
     14 C12        -1.8833   -1.8666    2.7798 C.3       1 <0>        -0.0254
     15 H2         -2.9394   -1.8841    3.0487 H         1 <0>         0.0869
     16 C13        -1.4335   -0.4192    2.5340 C.3       1 <0>         0.0653
     17 O1         -1.9909    0.0506    1.3037 O.3       1 <0>        -0.3320
     18 C14        -1.0521   -2.4841    3.9062 C.3       1 <0>        -0.0744
     19 C15        -1.3645   -1.7833    5.2033 C.ar      1 <0>        -0.0711
     20 C16        -0.6357   -0.6710    5.5808 C.ar      1 <0>        -0.1193
     21 C17        -0.9222   -0.0281    6.7706 C.ar      1 <0>        -0.1196
     22 C18        -1.9379   -0.4973    7.5825 C.ar      1 <0>        -0.1308
     23 C19        -2.6672   -1.6090    7.2045 C.ar      1 <0>        -0.1183
     24 C20        -2.3835   -2.2493    6.0127 C.ar      1 <0>        -0.1153
     25 C21        -2.2403   -0.1499   -1.0988 C.3       1 <0>        -0.1806
     26 C22        -3.6756   -0.5665   -0.9056 C.2       1 <0>         0.4926
     27 O2         -3.9984   -1.2000    0.0849 O.co2     1 <0>        -0.6620
     28 O3         -4.5140   -0.2701   -1.7397 O.co2     1 <0>        -0.7142
     29 H3          1.0942    1.7815   -0.1793 H         1 <0>         0.0488
     30 H4         -0.4420    1.7447   -1.0775 H         1 <0>         0.0587
     31 H5         -0.4517    1.8862    0.6968 H         1 <0>         0.0638
     32 H6          0.4469   -0.5286   -0.9368 H         1 <0>         0.0648
     33 H7          0.6084   -0.3915    0.8305 H         1 <0>         0.0637
     34 H8         -1.9719   -5.0386    3.1963 H         1 <0>         0.1231
     35 H9         -1.8146   -7.2833    2.2009 H         1 <0>         0.1099
     36 H10        -1.4073   -7.5951   -0.1740 H         1 <0>         0.1126
     37 H11        -1.1306   -5.6754   -1.7042 H         1 <0>         0.1208
     38 H12        -1.7773    0.2122    3.3532 H         1 <0>         0.0898
     39 H13        -0.3456   -0.3813    2.4777 H         1 <0>         0.0441
     40 H14        -1.2941   -3.5429    3.9979 H         1 <0>         0.0778
     41 H15         0.0080   -2.3720    3.6789 H         1 <0>         0.0701
     42 H16         0.1578   -0.3044    4.9465 H         1 <0>         0.1199
     43 H17        -0.3524    0.8405    7.0659 H         1 <0>         0.1182
     44 H18        -2.1613    0.0045    8.5124 H         1 <0>         0.1167
     45 H19        -3.4605   -1.9758    7.8391 H         1 <0>         0.1186
     46 H20        -2.9558   -3.1157    5.7156 H         1 <0>         0.1215
     47 H21        -2.1906    0.9306   -1.2336 H         1 <0>         0.0743
     48 H22        -1.8338   -0.6451   -1.9807 H         1 <0>         0.0617
@<TRIPOS>BOND
     1    1    2 1
     2    1   29 1
     3    1   30 1
     4    1   31 1
     5    2    3 1
     6    2   32 1
     7    2   33 1
     8    3   17 1
     9    3    4 1
    10    3   25 1
    11    4   12 1
    12    4    5 2
    13    5    6 1
    14    5   14 1
    15    6   11 ar
    16    6    7 ar
    17    7    8 ar
    18    7   34 1
    19    8    9 ar
    20    8   35 1
    21    9   10 ar
    22    9   36 1
    23   10   11 ar
    24   10   37 1
    25   11   12 1
    26   12   13 1
    27   14   15 1
    28   14   16 1
    29   14   18 1
    30   16   17 1
    31   16   38 1
    32   16   39 1
    33   18   19 1
    34   18   40 1
    35   18   41 1
    36   19   24 ar
    37   19   20 ar
    38   20   21 ar
    39   20   42 1
    40   21   22 ar
    41   21   43 1
    42   22   23 ar
    43   22   44 1
    44   23   24 ar
    45   23   45 1
    46   24   46 1
    47   25   26 1
    48   25   47 1
    49   25   48 1
    50   26   27 2
    51   26   28 1
@<TRIPOS>MOLECULE
CHEMBL16996
   52    55     0     0     0
SMALL
USER_CHARGES

@<TRIPOS>ATOM
      1 C1         -1.3102    0.0112   -0.0792 C.3       1 <0>         0.0233
      2 O1          0.1108   -0.1300   -0.1331 O.3       1 <0>        -0.3070
      3 C2          0.7135   -0.7183    0.9341 C.ar      1 <0>         0.1090
      4 C3         -0.0507   -1.1549    2.0070 C.ar      1 <0>        -0.1815
      5 C4          0.5568   -1.7526    3.0914 C.ar      1 <0>        -0.0610
      6 C5          1.9419   -1.9186    3.1100 C.ar      1 <0>        -0.0398
      7 C6          2.7085   -1.4791    2.0305 C.ar      1 <0>        -0.0791
      8 C7          2.0934   -0.8863    0.9457 C.ar      1 <0>         0.0674
      9 F1          2.8336   -0.4647   -0.1029 F         1 <0>        -0.1293
     10 C8          2.5969   -2.5597    4.2732 C.2       1 <0>         0.1862
     11 C9          2.0464   -3.6935    4.8603 C.2       1 <0>        -0.2079
     12 S1          3.2316   -3.9983    6.1640 S.3       1 <0>         0.0194
     13 C10         4.3160   -2.6226    5.8099 C.2       1 <0>         0.3899
     14 N1          3.7194   -2.0677    4.7699 N.2       1 <0>        -0.5659
     15 N2          5.4795   -2.2411    6.4539 N.pl3     1 <0>        -0.6644
     16 C11         6.2209   -1.0651    5.9914 C.3       1 <0>         0.1741
     17 C12         7.4397   -0.8679    6.8555 C.ar      1 <0>        -0.1184
     18 C13         7.3604   -0.0894    7.9950 C.ar      1 <0>        -0.0967
     19 C14         8.4784    0.0915    8.7876 C.ar      1 <0>        -0.1217
     20 C15         9.6756   -0.5064    8.4409 C.ar      1 <0>        -0.1061
     21 C16         9.7546   -1.2856    7.3018 C.ar      1 <0>        -0.1217
     22 C17         8.6355   -1.4700    6.5115 C.ar      1 <0>        -0.0966
     23 C18         0.8234   -4.4386    4.5057 C.ar      1 <0>         0.0782
     24 C19         0.5821   -4.8007    3.1779 C.ar      1 <0>        -0.1171
     25 C20        -0.5631   -5.4976    2.8539 C.ar      1 <0>        -0.0157
     26 C21        -1.4721   -5.8383    3.8402 C.ar      1 <0>        -0.6786
     27 C22        -1.2397   -5.4830    5.1574 C.ar      1 <0>        -0.0102
     28 C23        -0.0963   -4.7907    5.4969 C.ar      1 <0>        -0.1307
     29 S2         -2.9327   -6.7282    3.4168 S.o2      1 <0>         2.7004
     30 O2         -3.8864   -6.4506    4.4330 O.2       1 <0>        -0.9620
     31 O3         -3.1846   -6.4652    2.0432 O.2       1 <0>        -0.9594
     32 N3         -2.5742   -8.3408    3.5319 N.pl3     1 <0>        -1.2481
     33 H1         -1.5824    0.6198    0.7831 H         1 <0>         0.0596
     34 H2         -1.6621    0.4944   -0.9906 H         1 <0>         0.1057
     35 H3         -1.7699   -0.9730    0.0110 H         1 <0>         0.0614
     36 H4         -1.1229   -1.0261    1.9930 H         1 <0>         0.1438
     37 H5         -0.0393   -2.0915    3.9258 H         1 <0>         0.1332
     38 H6          3.7810   -1.6058    2.0416 H         1 <0>         0.1462
     39 H7          5.8044   -2.7521    7.2116 H         1 <0>         0.4224
     40 H8          6.5293   -1.2139    4.9566 H         1 <0>         0.0825
     41 H9          5.5824   -0.1841    6.0572 H         1 <0>         0.0825
     42 H10         6.4251    0.3777    8.2659 H         1 <0>         0.1252
     43 H11         8.4167    0.7003    9.6776 H         1 <0>         0.1263
     44 H12        10.5493   -0.3645    9.0597 H         1 <0>         0.1255
     45 H13        10.6900   -1.7524    7.0307 H         1 <0>         0.1263
     46 H14         8.6963   -2.0818    5.6236 H         1 <0>         0.1253
     47 H15         1.2905   -4.5351    2.4072 H         1 <0>         0.1363
     48 H16        -0.7511   -5.7778    1.8280 H         1 <0>         0.1465
     49 H17        -1.9535   -5.7523    5.9219 H         1 <0>         0.1463
     50 H18         0.0858   -4.5177    6.5259 H         1 <0>         0.1361
     51 H19        -3.2676   -8.9760    3.7700 H         1 <0>         0.4222
     52 H20        -1.6709   -8.6502    3.3613 H         1 <0>         0.4176
@<TRIPOS>BOND
     1    1    2 1
     2    1   33 1
     3    1   34 1
     4    1   35 1
     5    2    3 1
     6    3    8 ar
     7    3    4 ar
     8    4    5 ar
     9    4   36 1
    10    5    6 ar
    11    5   37 1
    12    6    7 ar
    13    6   10 1
    14    7    8 ar
    15    7   38 1
    16    8    9 1
    17   10   14 1
    18   10   11 2
    19   11   12 1
    20   11   23 1
    21   12   13 1
    22   13   14 2
    23   13   15 1
    24   15   16 1
    25   15   39 1
    26   16   17 1
    27   16   40 1
    28   16   41 1
    29   17   22 ar
    30   17   18 ar
    31   18   19 ar
    32   18   42 1
    33   19   20 ar
    34   19   43 1
    35   20   21 ar
    36   20   44 1
    37   21   22 ar
    38   21   45 1
    39   22   46 1
    40   23   28 ar
    41   23   24 ar
    42   24   25 ar
    43   24   47 1
    44   25   26 ar
    45   25   48 1
    46   26   27 ar
    47   26   29 1
    48   27   28 ar
    49   27   49 1
    50   28   50 1
    51   29   30 2
    52   29   31 2
    53   29   32 1
    54   32   51 1
    55   32   52 1
@<TRIPOS>MOLECULE
CHEMBL55448
   36    38     0     0     0
SMALL
USER_CHARGES

@<TRIPOS>ATOM
      1 C1         -0.0184    1.5028    0.0103 C.3       1 <0>        -0.1097
      2 C2          0.0021   -0.0041    0.0020 C.ar      1 <0>        -0.1040
      3 C3          0.0057   -0.6855   -1.1960 C.ar      1 <0>        -0.0991
      4 C4          0.0247   -2.0832   -1.2023 C.ar      1 <0>        -0.0559
      5 C5          0.0399   -2.7829    0.0078 C.ar      1 <0>        -0.1052
      6 C6          0.0361   -2.0924    1.2005 C.ar      1 <0>        -0.1033
      7 C7          0.0230   -0.7037    1.2015 C.ar      1 <0>         0.1024
      8 O1          0.0254   -0.0272    2.3801 O.3       1 <0>        -0.4914
      9 C8          0.0520   -2.8454    2.5058 C.3       1 <0>        -0.1099
     10 C9          0.0281   -2.8165   -2.4800 C.2       1 <0>        -0.1018
     11 C10         0.0464   -4.1610   -2.4836 C.2       1 <0>        -0.0922
     12 C11         0.0498   -4.8932   -3.7593 C.2       1 <0>        -0.0745
     13 C12         0.0403   -4.2245   -4.9419 C.2       1 <0>        -0.1522
     14 S1          0.0493   -5.5281   -6.1570 S.3       1 <0>         0.0403
     15 C13         0.0653   -6.9288   -5.0681 C.ar      1 <0>        -0.1150
     16 C14         0.0696   -6.3573   -3.7801 C.ar      1 <0>        -0.0798
     17 C15         0.0869   -7.2528   -2.6881 C.ar      1 <0>        -0.0765
     18 C16         0.1043   -8.6076   -2.8950 C.ar      1 <0>        -0.1200
     19 C17         0.1054   -9.1414   -4.1760 C.ar      1 <0>        -0.0948
     20 C18         0.0772   -8.2934   -5.2654 C.ar      1 <0>        -0.0771
     21 H1          1.0042    1.8801    0.0026 H         1 <0>         0.0731
     22 H2         -0.5455    1.8639   -0.8728 H         1 <0>         0.0668
     23 H3         -0.5286    1.8543    0.9071 H         1 <0>         0.0682
     24 H4         -0.0065   -0.1404   -2.1283 H         1 <0>         0.1289
     25 H5          0.0542   -3.8629    0.0081 H         1 <0>         0.1278
     26 H6         -0.8572    0.1569    2.7298 H         1 <0>         0.3868
     27 H7          1.0834   -3.0133    2.8159 H         1 <0>         0.0732
     28 H8         -0.4662   -2.2629    3.2676 H         1 <0>         0.0684
     29 H9         -0.4498   -3.8046    2.3781 H         1 <0>         0.0662
     30 H10         0.0160   -2.2742   -3.4139 H         1 <0>         0.1229
     31 H11         0.0585   -4.7034   -1.5497 H         1 <0>         0.1229
     32 H12         0.0296   -3.1572   -5.1065 H         1 <0>         0.1910
     33 H13         0.0868   -6.8660   -1.6797 H         1 <0>         0.1250
     34 H14         0.1177   -9.2728   -2.0443 H         1 <0>         0.1297
     35 H15         0.1200  -10.2117   -4.3196 H         1 <0>         0.1361
     36 H16         0.0782   -8.6968   -6.2672 H         1 <0>         0.1326
@<TRIPOS>BOND
     1    1    2 1
     2    1   21 1
     3    1   22 1
     4    1   23 1
     5    2    7 ar
     6    2    3 ar
     7    3    4 ar
     8    3   24 1
     9    4    5 ar
    10    4   10 1
    11    5    6 ar
    12    5   25 1
    13    6    7 ar
    14    6    9 1
    15    7    8 1
    16    8   26 1
    17    9   27 1
    18    9   28 1
    19    9   29 1
    20   10   11 2
    21   10   30 1
    22   11   12 1
    23   11   31 1
    24   12   16 1
    25   12   13 2
    26   13   14 1
    27   13   32 1
    28   14   15 1
    29   15   20 ar
    30   15   16 ar
    31   16   17 ar
    32   17   18 ar
    33   17   33 1
    34   18   19 ar
    35   18   34 1
    36   19   20 ar
    37   19   35 1
    38   20   36 1
@<TRIPOS>MOLECULE
CHEMBL559886
   45    47     0     0     0
SMALL
USER_CHARGES

@<TRIPOS>ATOM
      1 C1         -0.0225    1.8097    0.0120 C.3       1 <0>        -0.6493
      2 S1          0.0021   -0.0041    0.0020 S.o2      1 <0>         2.4984
      3 O1          0.8352   -0.4880    1.0465 O.2       1 <0>        -0.9332
      4 O2         -1.3147   -0.5105   -0.1678 O.2       1 <0>        -0.9334
      5 C2          0.8454   -0.4373   -1.4831 C.ar      1 <0>        -0.6422
      6 C3          0.1315   -0.6121   -2.6550 C.ar      1 <0>        -0.0295
      7 C4          0.7868   -0.9510   -3.8213 C.ar      1 <0>        -0.0879
      8 C5          2.1707   -1.1172   -3.8169 C.ar      1 <0>        -0.0105
      9 C6          2.8848   -0.9398   -2.6332 C.ar      1 <0>        -0.1072
     10 C7          2.2196   -0.5958   -1.4740 C.ar      1 <0>        -0.0268
     11 C8          2.8805   -1.4819   -5.0670 C.ar      1 <0>         0.2676
     12 C9          4.2671   -1.6561   -5.0705 C.ar      1 <0>        -0.2329
     13 C10         4.8856   -1.9960   -6.2603 C.ar      1 <0>         0.1436
     14 N1          4.1519   -2.1451   -7.3520 N.ar      1 <0>        -0.5305
     15 C11         2.8384   -1.9736   -7.3196 C.ar      1 <0>         0.5841
     16 N2          2.2061   -1.6535   -6.2015 N.ar      1 <0>        -0.5398
     17 N3          2.1079   -2.1385   -8.4837 N.pl3     1 <0>        -0.6837
     18 C12         2.7880   -2.4982   -9.7305 C.3       1 <0>         0.1563
     19 C13         2.9519   -4.0194   -9.8044 C.3       1 <0>        -0.1668
     20 C14         3.5918   -4.3914  -11.1445 C.3       1 <0>         0.0636
     21 O3          2.7802   -3.8973  -12.2118 O.3       1 <0>        -0.3799
     22 C15         2.6306   -2.4761  -12.2213 C.3       1 <0>         0.0652
     23 C16         1.9521   -2.0272  -10.9245 C.3       1 <0>        -0.1649
     24 C17         6.3786   -2.1940   -6.3131 C.3       1 <0>         0.5256
     25 F1          6.6811   -3.5338   -6.0472 F         1 <0>        -0.1633
     26 F2          6.8494   -1.8534   -7.5857 F         1 <0>        -0.1588
     27 F3          6.9913   -1.3786   -5.3556 F         1 <0>        -0.1639
     28 H1          1.0001    2.1870    0.0043 H         1 <0>         0.1328
     29 H2         -0.5497    2.1708   -0.8711 H         1 <0>         0.1325
     30 H3         -0.5327    2.1613    0.9088 H         1 <0>         0.1353
     31 H4         -0.9408   -0.4834   -2.6571 H         1 <0>         0.1499
     32 H5          0.2284   -1.0875   -4.7356 H         1 <0>         0.1478
     33 H6          3.9572   -1.0677   -2.6240 H         1 <0>         0.1424
     34 H7          2.7724   -0.4538   -0.5572 H         1 <0>         0.1517
     35 H8          4.8424   -1.5281   -4.1655 H         1 <0>         0.1627
     36 H9          1.1457   -2.0160   -8.4741 H         1 <0>         0.4187
     37 H10         3.7683   -2.0226   -9.7614 H         1 <0>         0.0968
     38 H11         3.5918   -4.3568   -8.9890 H         1 <0>         0.0786
     39 H12         1.9748   -4.4954   -9.7227 H         1 <0>         0.0749
     40 H13         4.5856   -3.9481  -11.2082 H         1 <0>         0.0562
     41 H14         3.6717   -5.4758  -11.2205 H         1 <0>         0.0993
     42 H15         3.6118   -2.0078  -12.2992 H         1 <0>         0.0560
     43 H16         2.0180   -2.1808  -13.0732 H         1 <0>         0.1019
     44 H17         0.9547   -2.4630  -10.8654 H         1 <0>         0.0804
     45 H18         1.8769   -0.9399  -10.9102 H         1 <0>         0.0827
@<TRIPOS>BOND
     1    1    2 1
     2    1   28 1
     3    1   29 1
     4    1   30 1
     5    2    3 2
     6    2    4 2
     7    2    5 1
     8    5   10 ar
     9    5    6 ar
    10    6    7 ar
    11    6   31 1
    12    7    8 ar
    13    7   32 1
    14    8    9 ar
    15    8   11 1
    16    9   10 ar
    17    9   33 1
    18   10   34 1
    19   11   16 ar
    20   11   12 ar
    21   12   13 ar
    22   12   35 1
    23   13   14 ar
    24   13   24 1
    25   14   15 ar
    26   15   16 ar
    27   15   17 1
    28   17   18 1
    29   17   36 1
    30   18   23 1
    31   18   19 1
    32   18   37 1
    33   19   20 1
    34   19   38 1
    35   19   39 1
    36   20   21 1
    37   20   40 1
    38   20   41 1
    39   21   22 1
    40   22   23 1
    41   22   42 1
    42   22   43 1
    43   23   44 1
    44   23   45 1
    45   24   25 1
    46   24   26 1
    47   24   27 1
@<TRIPOS>MOLECULE
CHEMBL29500
   44    47     0     0     0
SMALL
USER_CHARGES

@<TRIPOS>ATOM
      1 C1          0.8726    0.0754   -0.8158 C.ar      1 <0>        -0.1309
      2 C2          2.1177    0.6520   -0.6588 C.ar      1 <0>        -0.0006
      3 C3          2.6081    0.9076    0.6086 C.ar      1 <0>        -0.6729
      4 C4          1.8542    0.5869    1.7225 C.ar      1 <0>         0.0014
      5 C5          0.6085    0.0097    1.5723 C.ar      1 <0>        -0.1240
      6 C6          0.1130   -0.2478    0.3009 C.ar      1 <0>         0.1994
      7 N1         -1.1504   -0.8324    0.1450 N.pl3     1 <0>        -0.3174
      8 C7         -1.4644   -1.8599   -0.6980 C.2       1 <0>         0.1509
      9 C8         -2.7961   -2.1225   -0.5398 C.2       1 <0>        -0.2043
     10 C9         -3.2962   -1.2377    0.4160 C.2       1 <0>        -0.0032
     11 N2         -2.3179   -0.4723    0.8303 N.2       1 <0>        -0.2181
     12 C10        -4.7233   -1.1773    0.8965 C.3       1 <0>         0.5581
     13 F1         -4.8812   -2.0265    1.9970 F         1 <0>        -0.1638
     14 F2         -5.0341    0.1343    1.2712 F         1 <0>        -0.1639
     15 F3         -5.5794   -1.5835   -0.1327 F         1 <0>        -0.1610
     16 C11        -0.5354   -2.5587   -1.6129 C.ar      1 <0>        -0.0536
     17 C12         0.8303   -2.5994   -1.3294 C.ar      1 <0>        -0.1018
     18 C13         1.6885   -3.2527   -2.1874 C.ar      1 <0>        -0.1024
     19 C14         1.2033   -3.8692   -3.3306 C.ar      1 <0>        -0.0735
     20 C15        -0.1499   -3.8322   -3.6171 C.ar      1 <0>        -0.0940
     21 C16        -1.0203   -3.1850   -2.7599 C.ar      1 <0>        -0.0686
     22 C17        -0.4194   -4.5730   -4.9097 C.3       1 <0>        -0.0839
     23 C18         0.9543   -4.6872   -5.6038 C.3       1 <0>        -0.1213
     24 C19         1.9333   -4.6379   -4.4118 C.3       1 <0>        -0.0883
     25 S1          4.1974    1.6429    0.8046 S.o2      1 <0>         2.7034
     26 O1          4.6566    1.2784    2.0990 O.2       1 <0>        -0.9571
     27 O2          4.9307    1.3456   -0.3757 O.2       1 <0>        -0.9571
     28 N3          3.9783    3.2842    0.8249 N.pl3     1 <0>        -1.2487
     29 H1          0.4882   -0.1199   -1.8060 H         1 <0>         0.1458
     30 H2          2.7091    0.9033   -1.5269 H         1 <0>         0.1579
     31 H3          2.2399    0.7878    2.7111 H         1 <0>         0.1578
     32 H4          0.0204   -0.2412    2.4427 H         1 <0>         0.1479
     33 H5         -3.3613   -2.8801   -1.0623 H         1 <0>         0.1730
     34 H6          1.2136   -2.1201   -0.4407 H         1 <0>         0.1264
     35 H7          2.7455   -3.2843   -1.9680 H         1 <0>         0.1299
     36 H8         -2.0769   -3.1604   -2.9818 H         1 <0>         0.1313
     37 H9         -0.8212   -5.5644   -4.7007 H         1 <0>         0.0847
     38 H10        -1.1120   -4.0070   -5.5326 H         1 <0>         0.0792
     39 H11         1.0411   -5.6336   -6.1375 H         1 <0>         0.0806
     40 H12         1.1198   -3.8454   -6.2761 H         1 <0>         0.0749
     41 H13         2.8477   -4.1164   -4.6947 H         1 <0>         0.0805
     42 H14         2.1630   -5.6468   -4.0691 H         1 <0>         0.0859
     43 H15         3.0866    3.6557    0.7362 H         1 <0>         0.4178
     44 H16         4.7417    3.8742    0.9255 H         1 <0>         0.4235
@<TRIPOS>BOND
     1    1    6 ar
     2    1    2 ar
     3    1   29 1
     4    2    3 ar
     5    2   30 1
     6    3    4 ar
     7    3   25 1
     8    4    5 ar
     9    4   31 1
    10    5    6 ar
    11    5   32 1
    12    6    7 1
    13    7   11 1
    14    7    8 1
    15    8    9 2
    16    8   16 1
    17    9   10 1
    18    9   33 1
    19   10   11 2
    20   10   12 1
    21   12   13 1
    22   12   14 1
    23   12   15 1
    24   16   21 ar
    25   16   17 ar
    26   17   18 ar
    27   17   34 1
    28   18   19 ar
    29   18   35 1
    30   19   24 1
    31   19   20 ar
    32   20   21 ar
    33   20   22 1
    34   21   36 1
    35   22   23 1
    36   22   37 1
    37   22   38 1
    38   23   24 1
    39   23   39 1
    40   23   40 1
    41   24   41 1
    42   24   42 1
    43   25   26 2
    44   25   27 2
    45   25   28 1
    46   28   43 1
    47   28   44 1
@<TRIPOS>MOLECULE
CHEMBL441236
   49    52     0     0     0
SMALL
USER_CHARGES

@<TRIPOS>ATOM
      1 C1          0.7785    1.1348    0.7350 C.3       1 <0>        -0.6495
      2 S1          0.8490   -0.6688    0.5543 S.o2      1 <0>         2.4983
      3 O1          1.8356   -1.2096    1.4223 O.2       1 <0>        -0.9308
      4 O2         -0.4648   -1.2095    0.5248 O.2       1 <0>        -0.9313
      5 C2          1.4820   -0.9369   -1.0681 C.ar      1 <0>        -0.6541
      6 C3          0.6138   -1.0362   -2.1398 C.ar      1 <0>        -0.0053
      7 C4          1.1069   -1.2459   -3.4128 C.ar      1 <0>        -0.1308
      8 C5          2.4759   -1.3570   -3.6158 C.ar      1 <0>         0.1662
      9 C6          3.3451   -1.2569   -2.5377 C.ar      1 <0>        -0.1262
     10 C7          2.8462   -1.0420   -1.2679 C.ar      1 <0>        -0.0072
     11 N1          2.9793   -1.5703   -4.9061 N.pl3     1 <0>        -0.4190
     12 C8          2.6543   -2.6017   -5.7488 C.2       1 <0>        -0.0032
     13 C9          3.3630   -2.4237   -6.8822 C.2       1 <0>         0.0036
     14 N2          4.1045   -1.3178   -6.7486 N.2       1 <0>        -0.4497
     15 C10         3.8834   -0.7864   -5.5665 C.2       1 <0>         0.2611
     16 C11         4.5079    0.4462   -5.0405 C.ar      1 <0>        -0.0158
     17 C12         5.6924    0.9259   -5.6018 C.ar      1 <0>        -0.0607
     18 C13         6.2702    2.0766   -5.1072 C.ar      1 <0>        -0.1070
     19 C14         5.6773    2.7557   -4.0560 C.ar      1 <0>        -0.0223
     20 C15         4.5024    2.2844   -3.4948 C.ar      1 <0>        -0.1069
     21 C16         3.9123    1.1379   -3.9847 C.ar      1 <0>        -0.0997
     22 Cl1         6.4104    4.2033   -3.4389 Cl        1 <0>        -0.0598
     23 C17         3.3262   -3.3187   -8.0940 C.3       1 <0>         0.1494
     24 O3          2.4181   -4.3974   -7.8622 O.3       1 <0>        -0.3112
     25 C18         2.2667   -5.3029   -8.8645 C.ar      1 <0>         0.1393
     26 C19         2.9820   -5.1590  -10.0443 C.ar      1 <0>        -0.1961
     27 C20         2.8268   -6.0802  -11.0619 C.ar      1 <0>        -0.0678
     28 C21         1.9582   -7.1458  -10.9051 C.ar      1 <0>        -0.0725
     29 C22         1.2435   -7.2909   -9.7292 C.ar      1 <0>        -0.0695
     30 C23         1.4010   -6.3753   -8.7067 C.ar      1 <0>        -0.1380
     31 Cl2         1.7643   -8.3020  -12.1855 Cl        1 <0>        -0.0685
     32 H1          1.7792    1.5509    0.6187 H         1 <0>         0.1336
     33 H2          0.1210    1.5510   -0.0282 H         1 <0>         0.1334
     34 H3          0.3930    1.3861    1.7231 H         1 <0>         0.1370
     35 H4         -0.4510   -0.9500   -1.9812 H         1 <0>         0.1562
     36 H5          0.4283   -1.3237   -4.2494 H         1 <0>         0.1448
     37 H6          4.4105   -1.3434   -2.6925 H         1 <0>         0.1433
     38 H7          3.5221   -0.9599   -0.4295 H         1 <0>         0.1564
     39 H8          1.9619   -3.4048   -5.5437 H         1 <0>         0.1895
     40 H9          6.1558    0.3969   -6.4214 H         1 <0>         0.1468
     41 H10         7.1869    2.4485   -5.5404 H         1 <0>         0.1433
     42 H11         4.0449    2.8178   -2.6747 H         1 <0>         0.1398
     43 H12         2.9935    0.7737   -3.5492 H         1 <0>         0.1331
     44 H13         2.9953   -2.7449   -8.9596 H         1 <0>         0.0839
     45 H14         4.3233   -3.7172   -8.2819 H         1 <0>         0.0837
     46 H15         3.6595   -4.3270  -10.1674 H         1 <0>         0.1395
     47 H16         3.3834   -5.9685  -11.9806 H         1 <0>         0.1376
     48 H17         0.5658   -8.1230   -9.6087 H         1 <0>         0.1415
     49 H18         0.8467   -6.4915   -7.7872 H         1 <0>         0.1411
@<TRIPOS>BOND
     1    1    2 1
     2    1   32 1
     3    1   33 1
     4    1   34 1
     5    2    3 2
     6    2    4 2
     7    2    5 1
     8    5   10 ar
     9    5    6 ar
    10    6    7 ar
    11    6   35 1
    12    7    8 ar
    13    7   36 1
    14    8    9 ar
    15    8   11 1
    16    9   10 ar
    17    9   37 1
    18   10   38 1
    19   11   15 1
    20   11   12 1
    21   12   13 2
    22   12   39 1
    23   13   14 1
    24   13   23 1
    25   14   15 2
    26   15   16 1
    27   16   21 ar
    28   16   17 ar
    29   17   18 ar
    30   17   40 1
    31   18   19 ar
    32   18   41 1
    33   19   20 ar
    34   19   22 1
    35   20   21 ar
    36   20   42 1
    37   21   43 1
    38   23   24 1
    39   23   44 1
    40   23   45 1
    41   24   25 1
    42   25   30 ar
    43   25   26 ar
    44   26   27 ar
    45   26   46 1
    46   27   28 ar
    47   27   47 1
    48   28   29 ar
    49   28   31 1
    50   29   30 ar
    51   29   48 1
    52   30   49 1
@<TRIPOS>MOLECULE
CHEMBL260841
   44    45     0     0     0
SMALL
USER_CHARGES

@<TRIPOS>ATOM
      1 C1          0.6281   -0.5574    1.1847 C.3       1 <0>        -0.6496
      2 S1          0.0492   -1.9992    0.2484 S.o2      1 <0>         2.4958
      3 O1          0.5360   -3.1954    0.8413 O.2       1 <0>        -0.9334
      4 O2         -1.3287   -1.8562   -0.0680 O.2       1 <0>        -0.9343
      5 C2          0.8797   -1.8956   -1.3021 C.ar      1 <0>        -0.6461
      6 C3          0.2998   -1.1989   -2.3483 C.ar      1 <0>        -0.0258
      7 C4          0.9426   -1.1133   -3.5647 C.ar      1 <0>        -0.1112
      8 C5          2.1854   -1.7329   -3.7402 C.ar      1 <0>        -0.0294
      9 C6          2.7650   -2.4350   -2.6769 C.ar      1 <0>        -0.1123
     10 C7          2.1111   -2.5064   -1.4654 C.ar      1 <0>        -0.0239
     11 C8          2.8774   -1.6473   -5.0331 C.2       1 <0>         0.0085
     12 C9          4.2336   -1.5436   -5.0734 C.2       1 <0>        -0.1155
     13 C10         4.9995   -1.3556   -3.8198 C.ar      1 <0>        -0.0332
     14 C11         4.8863   -0.1648   -3.1021 C.ar      1 <0>        -0.0919
     15 C12         5.6018    0.0046   -1.9348 C.ar      1 <0>        -0.0867
     16 C13         6.4308   -1.0045   -1.4753 C.ar      1 <0>        -0.0842
     17 C14         6.5473   -2.1882   -2.1837 C.ar      1 <0>        -0.0855
     18 C15         5.8323   -2.3710   -3.3492 C.ar      1 <0>        -0.0962
     19 Br1         7.4082   -0.7647    0.1256 Br        1 <0>        -0.0424
     20 C16         4.9386   -1.6181   -6.3614 C.2       1 <0>         0.5151
     21 O3          4.3099   -1.7724   -7.3904 O.2       1 <0>        -0.4953
     22 O4          6.2824   -1.5154   -6.4014 O.3       1 <0>        -0.3395
     23 C17         6.9013   -1.5965   -7.6868 C.3       1 <0>         0.0755
     24 C18         8.4174   -1.4603   -7.5324 C.3       1 <0>         0.0307
     25 O5          8.9236   -2.5767   -6.7980 O.3       1 <0>        -0.2203
     26 N1         10.3252   -2.5473   -6.5985 N.pl3     1 <0>         0.1290
     27 O6         10.9789   -1.6296   -7.0368 O.2       1 <0>        -0.1271
     28 O7         10.8681   -3.4398   -5.9900 O.3       1 <0>        -0.0683
     29 H1          1.7104   -0.6114    1.3026 H         1 <0>         0.1326
     30 H2          0.3662    0.3540    0.6471 H         1 <0>         0.1323
     31 H3          0.1556   -0.5484    2.1669 H         1 <0>         0.1353
     32 H4         -0.6592   -0.7214   -2.2112 H         1 <0>         0.1483
     33 H5          0.4884   -0.5700   -4.3802 H         1 <0>         0.1410
     34 H6          3.7235   -2.9162   -2.8042 H         1 <0>         0.1414
     35 H7          2.5589   -3.0440   -0.6427 H         1 <0>         0.1466
     36 H8          2.3098   -1.6667   -5.9517 H         1 <0>         0.1562
     37 H9          4.2402    0.6232   -3.4599 H         1 <0>         0.1326
     38 H10         5.5152    0.9262   -1.3785 H         1 <0>         0.1371
     39 H11         7.1961   -2.9718   -1.8209 H         1 <0>         0.1389
     40 H12         5.9202   -3.2967   -3.8985 H         1 <0>         0.1342
     41 H13         6.6675   -2.5586   -8.1426 H         1 <0>         0.0902
     42 H14         6.5272   -0.7932   -8.3216 H         1 <0>         0.1117
     43 H15         8.8820   -1.4330   -8.5181 H         1 <0>         0.1154
     44 H16         8.6468   -0.5390   -6.9970 H         1 <0>         0.1036
@<TRIPOS>BOND
     1    1    2 1
     2    1   29 1
     3    1   30 1
     4    1   31 1
     5    2    3 2
     6    2    4 2
     7    2    5 1
     8    5   10 ar
     9    5    6 ar
    10    6    7 ar
    11    6   32 1
    12    7    8 ar
    13    7   33 1
    14    8    9 ar
    15    8   11 1
    16    9   10 ar
    17    9   34 1
    18   10   35 1
    19   11   12 2
    20   11   36 1
    21   12   13 1
    22   12   20 1
    23   13   18 ar
    24   13   14 ar
    25   14   15 ar
    26   14   37 1
    27   15   16 ar
    28   15   38 1
    29   16   17 ar
    30   16   19 1
    31   17   18 ar
    32   17   39 1
    33   18   40 1
    34   20   21 2
    35   20   22 1
    36   22   23 1
    37   23   24 1
    38   23   41 1
    39   23   42 1
    40   24   25 1
    41   24   43 1
    42   24   44 1
    43   25   26 1
    44   26   27 2
    45   26   28 1
@<TRIPOS>MOLECULE
CHEMBL134424
   62    66     0     0     0
SMALL
USER_CHARGES

@<TRIPOS>ATOM
      1 C1         -0.8920    0.1150   -0.8827 C.ar      1 <0>        -0.1128
      2 C2          0.1769    0.9894   -0.8204 C.ar      1 <0>        -0.1134
      3 C3          1.4652    0.4997   -0.7142 C.ar      1 <0>        -0.1091
      4 C4          1.6847   -0.8644   -0.6699 C.ar      1 <0>        -0.0919
      5 C5          0.6158   -1.7388   -0.7313 C.ar      1 <0>        -0.1163
      6 C6         -0.6725   -1.2491   -0.8389 C.ar      1 <0>        -0.1160
      7 C7          3.0893   -1.3982   -0.5552 C.3       1 <0>        -0.0564
      8 C8          3.3992   -2.2879   -1.7624 C.3       1 <0>        -0.1367
      9 C9          4.7966   -2.8899   -1.6002 C.3       1 <0>        -0.0058
     10 N1          4.8479   -3.6930   -0.3727 N.4       1 <0>        -0.3794
     11 C10         4.6226   -2.8327    0.7951 C.3       1 <0>        -0.0152
     12 C11         3.2185   -2.2286    0.7251 C.3       1 <0>        -0.1359
     13 C12         6.1663   -4.3314   -0.2617 C.3       1 <0>         0.0107
     14 C13         6.1799   -5.2663    0.9494 C.3       1 <0>        -0.1405
     15 S1          7.8079   -6.0546    1.0864 S.3       1 <0>        -0.1904
     16 C14         7.6970   -7.0280    2.6131 C.3       1 <0>         0.0403
     17 C15         6.7439   -8.1271    2.3438 C.ar      1 <0>        -0.0614
     18 C16         7.1662   -8.9674    1.2927 C.ar      1 <0>        -0.1032
     19 C17         6.4554  -10.0831    0.9302 C.ar      1 <0>        -0.1150
     20 C18         5.2989  -10.3971    1.6212 C.ar      1 <0>        -0.1099
     21 C19         4.8780   -9.5635    2.6266 C.ar      1 <0>        -0.1232
     22 C20         5.5895   -8.3965    2.9676 C.ar      1 <0>        -0.1055
     23 C21         4.8279   -7.5739    3.9826 C.3       1 <0>         0.1135
     24 O1          5.6217   -6.9768    4.9640 O.3       1 <0>        -0.3129
     25 C22         6.5836   -6.0562    4.6704 C.ar      1 <0>         0.1261
     26 C23         7.5398   -6.0592    3.7199 C.ar      1 <0>        -0.1575
     27 C24         8.5106   -5.0477    3.7150 C.ar      1 <0>        -0.0514
     28 C25         8.4676   -3.9995    4.6269 C.ar      1 <0>        -0.1436
     29 C26         7.4256   -3.9573    5.5603 C.ar      1 <0>        -0.0479
     30 C27         6.5082   -4.9703    5.5770 C.ar      1 <0>        -0.1671
     31 C28         9.5015   -2.9512    4.6114 C.2       1 <0>         0.5191
     32 O2         10.4081   -2.9983    3.7914 O.co2     1 <0>        -0.6818
     33 O3          9.4539   -2.0332    5.4186 O.co2     1 <0>        -0.6812
     34 H1         -1.8989    0.4976   -0.9612 H         1 <0>         0.1257
     35 H2          0.0054    2.0551   -0.8550 H         1 <0>         0.1268
     36 H3          2.3003    1.1829   -0.6663 H         1 <0>         0.1248
     37 H4          0.7873   -2.8045   -0.6971 H         1 <0>         0.1176
     38 H5         -1.5075   -1.9323   -0.8873 H         1 <0>         0.1248
     39 H6          3.7936   -0.5670   -0.5231 H         1 <0>         0.0980
     40 H7          2.6626   -3.0891   -1.8228 H         1 <0>         0.0882
     41 H8          3.3637   -1.6906   -2.6735 H         1 <0>         0.1134
     42 H9          5.0206   -3.5237   -2.4582 H         1 <0>         0.1318
     43 H10         5.5324   -2.0879   -1.5402 H         1 <0>         0.1323
     44 H11         4.7181   -3.4245    1.7055 H         1 <0>         0.1325
     45 H12         5.3621   -2.0320    0.8041 H         1 <0>         0.1358
     46 H13         3.0538   -1.5889    1.5921 H         1 <0>         0.1150
     47 H14         2.4781   -3.0285    0.7163 H         1 <0>         0.0876
     48 H15         6.3694   -4.9051   -1.1659 H         1 <0>         0.1383
     49 H16         6.9317   -3.5653   -0.1379 H         1 <0>         0.1429
     50 H17         5.9767   -4.6926    1.8536 H         1 <0>         0.1047
     51 H18         5.4145   -6.0324    0.8255 H         1 <0>         0.0967
     52 H19         8.6751   -7.4912    2.7426 H         1 <0>         0.1331
     53 H20         8.0738   -8.7262    0.7593 H         1 <0>         0.1304
     54 H21         6.7937  -10.7074    0.1164 H         1 <0>         0.1290
     55 H22         4.7357  -11.2845    1.3730 H         1 <0>         0.1279
     56 H23         3.9780   -9.8086    3.1709 H         1 <0>         0.1249
     57 H24         4.2856   -6.7900    3.4540 H         1 <0>         0.0511
     58 H25         4.1003   -8.2199    4.4738 H         1 <0>         0.1145
     59 H26         9.3080   -5.0835    2.9874 H         1 <0>         0.1414
     60 H27         7.3477   -3.1362    6.2575 H         1 <0>         0.1371
     61 H28         5.7055   -4.9418    6.2990 H         1 <0>         0.1263
     62 H29         4.1337   -4.4048   -0.4076 H         1 <0>         0.4190
@<TRIPOS>BOND
     1    1    6 ar
     2    1    2 ar
     3    1   34 1
     4    2    3 ar
     5    2   35 1
     6    3    4 ar
     7    3   36 1
     8    4    5 ar
     9    4    7 1
    10    5    6 ar
    11    5   37 1
    12    6   38 1
    13    7   12 1
    14    7    8 1
    15    7   39 1
    16    8    9 1
    17    8   40 1
    18    8   41 1
    19    9   10 1
    20    9   42 1
    21    9   43 1
    22   10   11 1
    23   10   13 1
    24   10   62 1
    25   11   12 1
    26   11   44 1
    27   11   45 1
    28   12   46 1
    29   12   47 1
    30   13   14 1
    31   13   48 1
    32   13   49 1
    33   14   15 1
    34   14   50 1
    35   14   51 1
    36   15   16 1
    37   16   26 1
    38   16   17 1
    39   16   52 1
    40   17   22 ar
    41   17   18 ar
    42   18   19 ar
    43   18   53 1
    44   19   20 ar
    45   19   54 1
    46   20   21 ar
    47   20   55 1
    48   21   22 ar
    49   21   56 1
    50   22   23 1
    51   23   24 1
    52   23   57 1
    53   23   58 1
    54   24   25 1
    55   25   30 ar
    56   25   26 ar
    57   26   27 ar
    58   27   28 ar
    59   27   59 1
    60   28   29 ar
    61   28   31 1
    62   29   30 ar
    63   29   60 1
    64   30   61 1
    65   31   32 2
    66   31   33 1
@<TRIPOS>MOLECULE
CHEMBL134424__1
   62    66     0     0     0
SMALL
USER_CHARGES

@<TRIPOS>ATOM
      1 C1         -0.0078    1.3885    0.0171 C.ar      1 <0>        -0.1122
      2 C2          1.1807    2.0944    0.0089 C.ar      1 <0>        -0.1147
      3 C3          2.3862    1.4180   -0.0072 C.ar      1 <0>        -0.1107
      4 C4          2.4031    0.0358   -0.0147 C.ar      1 <0>        -0.0936
      5 C5          1.2146   -0.6701   -0.0056 C.ar      1 <0>        -0.1151
      6 C6          0.0091    0.0063    0.0091 C.ar      1 <0>        -0.1143
      7 C7          3.7173   -0.7015   -0.0333 C.3       1 <0>        -0.0539
      8 C8          3.7926   -1.5824   -1.2837 C.3       1 <0>        -0.1392
      9 C9          5.0935   -2.3877   -1.2560 C.3       1 <0>        -0.0052
     10 N1          5.1239   -3.2339   -0.0571 N.4       1 <0>        -0.3812
     11 C10         5.1244   -2.3931    1.1461 C.3       1 <0>        -0.0111
     12 C11         3.8247   -1.5880    1.2109 C.3       1 <0>        -0.1377
     13 C12         6.3372   -4.0618   -0.0746 C.3       1 <0>         0.0116
     14 C13         6.3096   -5.0322    1.1080 C.3       1 <0>        -0.1391
     15 S1          7.8079   -6.0546    1.0864 S.3       1 <0>        -0.1912
     16 C14         7.6970   -7.0280    2.6131 C.3       1 <0>         0.0401
     17 C15         7.8785   -6.0779    3.7327 C.ar      1 <0>        -0.0654
     18 C16         9.0394   -5.2892    3.5933 C.ar      1 <0>        -0.1015
     19 C17         9.3538   -4.3021    4.4924 C.ar      1 <0>        -0.1190
     20 C18         8.5036   -4.0681    5.5582 C.ar      1 <0>        -0.1102
     21 C19         7.3884   -4.8541    5.7041 C.ar      1 <0>        -0.1258
     22 C20         7.0917   -5.8937    4.8010 C.ar      1 <0>        -0.1007
     23 C21         5.9113   -6.7084    5.2803 C.3       1 <0>         0.1064
     24 O1          5.0369   -7.1183    4.2719 O.3       1 <0>        -0.3183
     25 C22         5.4227   -7.9403    3.2549 C.ar      1 <0>         0.1213
     26 C23         6.5164   -7.9074    2.4672 C.ar      1 <0>        -0.1534
     27 C24         6.6137   -8.7930    1.3846 C.ar      1 <0>        -0.0535
     28 C25         5.6380   -9.7539    1.1463 C.ar      1 <0>        -0.1395
     29 C26         4.5442   -9.8373    2.0155 C.ar      1 <0>        -0.0478
     30 C27         4.4448   -8.9435    3.0447 C.ar      1 <0>        -0.1637
     31 C28         5.7530  -10.6685   -0.0018 C.2       1 <0>         0.5185
     32 O2          6.7132  -10.5865   -0.7554 O.co2     1 <0>        -0.6820
     33 O3          4.8885  -11.5106   -0.2021 O.co2     1 <0>        -0.6803
     34 H1         -0.9496    1.9169    0.0342 H         1 <0>         0.1260
     35 H2          1.1674    3.1743    0.0148 H         1 <0>         0.1262
     36 H3          3.3147    1.9695   -0.0143 H         1 <0>         0.1230
     37 H4          1.2279   -1.7500   -0.0118 H         1 <0>         0.1196
     38 H5         -0.9194   -0.5452    0.0158 H         1 <0>         0.1262
     39 H6          4.5377    0.0160   -0.0415 H         1 <0>         0.0951
     40 H7          2.9426   -2.2645   -1.3002 H         1 <0>         0.0908
     41 H8          3.7728   -0.9534   -2.1737 H         1 <0>         0.1137
     42 H9          5.1504   -3.0158   -2.1450 H         1 <0>         0.1342
     43 H10         5.9428   -1.7047   -1.2398 H         1 <0>         0.1294
     44 H11         5.2041   -3.0252    2.0305 H         1 <0>         0.1314
     45 H12         5.9731   -1.7100    1.1111 H         1 <0>         0.1296
     46 H13         3.8278   -0.9631    2.1039 H         1 <0>         0.1124
     47 H14         2.9753   -2.2702    1.2461 H         1 <0>         0.0905
     48 H15         6.3789   -4.6258   -1.0064 H         1 <0>         0.1417
     49 H16         7.2156   -3.4209    0.0018 H         1 <0>         0.1366
     50 H17         6.2679   -4.4683    2.0399 H         1 <0>         0.0998
     51 H18         5.4312   -5.6732    1.0316 H         1 <0>         0.1058
     52 H19         8.5709   -7.6794    2.6150 H         1 <0>         0.1315
     53 H20         9.6982   -5.4669    2.7562 H         1 <0>         0.1324
     54 H21        10.2527   -3.7161    4.3700 H         1 <0>         0.1282
     55 H22         8.7146   -3.2792    6.2650 H         1 <0>         0.1269
     56 H23         6.7204   -4.6706    6.5326 H         1 <0>         0.1244
     57 H24         6.2886   -7.5946    5.7906 H         1 <0>         0.0651
     58 H25         5.3512   -6.1127    6.0011 H         1 <0>         0.1139
     59 H26         7.4640   -8.7269    0.7220 H         1 <0>         0.1391
     60 H27         3.7894  -10.5968    1.8749 H         1 <0>         0.1377
     61 H28         3.5996   -9.0034    3.7144 H         1 <0>         0.1263
     62 H29         4.3113   -3.8319   -0.0480 H         1 <0>         0.4244
@<TRIPOS>BOND
     1    1    6 ar
     2    1    2 ar
     3    1   34 1
     4    2    3 ar
     5    2   35 1
     6    3    4 ar
     7    3   36 1
     8    4    5 ar
     9    4    7 1
    10    5    6 ar
    11    5   37 1
    12    6   38 1
    13    7   12 1
    14    7    8 1
    15    7   39 1
    16    8    9 1
    17    8   40 1
    18    8   41 1
    19    9   10 1
    20    9   42 1
    21    9   43 1
    22   10   11 1
    23   10   13 1
    24   10   62 1
    25   11   12 1
    26   11   44 1
    27   11   45 1
    28   12   46 1
    29   12   47 1
    30   13   14 1
    31   13   48 1
    32   13   49 1
    33   14   15 1
    34   14   50 1
    35   14   51 1
    36   15   16 1
    37   16   26 1
    38   16   17 1
    39   16   52 1
    40   17   22 ar
    41   17   18 ar
    42   18   19 ar
    43   18   53 1
    44   19   20 ar
    45   19   54 1
    46   20   21 ar
    47   20   55 1
    48   21   22 ar
    49   21   56 1
    50   22   23 1
    51   23   24 1
    52   23   57 1
    53   23   58 1
    54   24   25 1
    55   25   30 ar
    56   25   26 ar
    57   26   27 ar
    58   27   28 ar
    59   27   59 1
    60   28   29 ar
    61   28   31 1
    62   29   30 ar
    63   29   60 1
    64   30   61 1
    65   31   32 2
    66   31   33 1
@<TRIPOS>MOLECULE
CHEMBL298729
   41    44     0     0     0
SMALL
USER_CHARGES

@<TRIPOS>ATOM
      1 C1         -0.0225    1.8097    0.0120 C.3       1 <0>        -0.6508
      2 S1          0.0021   -0.0041    0.0020 S.o2      1 <0>         2.4976
      3 O1          0.8352   -0.4880    1.0465 O.2       1 <0>        -0.9360
      4 O2         -1.3147   -0.5105   -0.1678 O.2       1 <0>        -0.9363
      5 C2          0.8454   -0.4373   -1.4831 C.ar      1 <0>        -0.6565
      6 C3          0.1314   -0.6121   -2.6550 C.ar      1 <0>        -0.0203
      7 C4          0.7864   -0.9515   -3.8212 C.ar      1 <0>        -0.1277
      8 C5          2.1706   -1.1181   -3.8169 C.ar      1 <0>         0.0130
      9 C6          2.8849   -0.9406   -2.6327 C.ar      1 <0>        -0.1153
     10 C7          2.2197   -0.5958   -1.4739 C.ar      1 <0>        -0.0206
     11 C8          2.8800   -1.4830   -5.0660 C.ar      1 <0>        -0.0394
     12 C9          2.4290   -2.5492   -5.8396 C.ar      1 <0>        -0.0804
     13 C10         3.0915   -2.8889   -7.0058 C.ar      1 <0>         0.0399
     14 C11         4.2137   -2.1648   -7.4112 C.ar      1 <0>         0.0459
     15 C12         4.6692   -1.1039   -6.6485 C.ar      1 <0>        -0.0867
     16 C13         4.0055   -0.7513   -5.4765 C.ar      1 <0>        -0.0177
     17 C14         4.4887    0.3890   -4.6624 C.ar      1 <0>        -0.0598
     18 C15         3.5975    1.3753   -4.2416 C.ar      1 <0>        -0.0662
     19 C16         4.0520    2.4349   -3.4840 C.ar      1 <0>        -0.1525
     20 C17         5.3918    2.5199   -3.1412 C.ar      1 <0>         0.1071
     21 C18         6.2812    1.5422   -3.5570 C.ar      1 <0>        -0.1511
     22 C19         5.8350    0.4759   -4.3101 C.ar      1 <0>        -0.0744
     23 F1          5.8324    3.5596   -2.3995 F         1 <0>        -0.1365
     24 O3          4.6755   -2.6970   -8.5808 O.3       1 <0>        -0.3047
     25 C20         4.0762   -4.0027   -8.6723 C.3       1 <0>         0.2124
     26 O4          2.8539   -3.8724   -7.9229 O.3       1 <0>        -0.3046
     27 H1          1.0001    2.1870    0.0043 H         1 <0>         0.1318
     28 H2         -0.5497    2.1708   -0.8711 H         1 <0>         0.1320
     29 H3         -0.5327    2.1613    0.9088 H         1 <0>         0.1339
     30 H4         -0.9409   -0.4831   -2.6571 H         1 <0>         0.1457
     31 H5          0.2279   -1.0880   -4.7354 H         1 <0>         0.1371
     32 H6          3.9573   -1.0684   -2.6234 H         1 <0>         0.1345
     33 H7          2.7724   -0.4537   -0.5570 H         1 <0>         0.1444
     34 H8          1.5612   -3.1120   -5.5288 H         1 <0>         0.1435
     35 H9          5.5380   -0.5460   -6.9650 H         1 <0>         0.1436
     36 H10         2.5530    1.3100   -4.5087 H         1 <0>         0.1337
     37 H11         3.3624    3.1994   -3.1580 H         1 <0>         0.1385
     38 H12         7.3246    1.6127   -3.2874 H         1 <0>         0.1402
     39 H13         6.5281   -0.2882   -4.6297 H         1 <0>         0.1373
     40 H14         3.8632   -4.2543   -9.7113 H         1 <0>         0.1364
     41 H15         4.7240   -4.7539   -8.2205 H         1 <0>         0.0888
@<TRIPOS>BOND
     1    1    2 1
     2    1   27 1
     3    1   28 1
     4    1   29 1
     5    2    3 2
     6    2    4 2
     7    2    5 1
     8    5   10 ar
     9    5    6 ar
    10    6    7 ar
    11    6   30 1
    12    7    8 ar
    13    7   31 1
    14    8    9 ar
    15    8   11 1
    16    9   10 ar
    17    9   32 1
    18   10   33 1
    19   11   16 ar
    20   11   12 ar
    21   12   13 ar
    22   12   34 1
    23   13   26 1
    24   13   14 ar
    25   14   15 ar
    26   14   24 1
    27   15   16 ar
    28   15   35 1
    29   16   17 1
    30   17   22 ar
    31   17   18 ar
    32   18   19 ar
    33   18   36 1
    34   19   20 ar
    35   19   37 1
    36   20   21 ar
    37   20   23 1
    38   21   22 ar
    39   21   38 1
    40   22   39 1
    41   24   25 1
    42   25   26 1
    43   25   40 1
    44   25   41 1
@<TRIPOS>MOLECULE
CHEMBL127190
   40    42     0     0     0
SMALL
USER_CHARGES

@<TRIPOS>ATOM
      1 C1         -0.1441    1.4247    0.6348 C.3       1 <0>        -0.1126
      2 C2         -0.0582   -0.0422    0.3003 C.2       1 <0>         0.1444
      3 C3         -1.1958   -0.7306    0.0938 C.2       1 <0>        -0.3041
      4 C4         -1.1252   -2.1129   -0.2219 C.2       1 <0>         0.4092
      5 O1         -2.1362   -2.7696   -0.4162 O.2       1 <0>        -0.4669
      6 C5          0.2075   -2.7251   -0.3069 C.2       1 <0>        -0.2107
      7 C6          1.3093   -1.9175   -0.0744 C.2       1 <0>         0.1752
      8 O2          1.1459   -0.6162    0.2131 O.3       1 <0>        -0.2049
      9 C7          2.6676   -2.4886   -0.1484 C.ar      1 <0>        -0.0081
     10 C8          3.6624   -1.8405   -0.8848 C.ar      1 <0>        -0.1021
     11 C9          4.9299   -2.3803   -0.9496 C.ar      1 <0>        -0.0231
     12 C10         5.2173   -3.5611   -0.2877 C.ar      1 <0>        -0.6411
     13 C11         4.2369   -4.2088    0.4432 C.ar      1 <0>        -0.0208
     14 C12         2.9667   -3.6772    0.5223 C.ar      1 <0>        -0.0969
     15 S1          6.8394   -4.2436   -0.3766 S.o2      1 <0>         2.4957
     16 O3          6.6582   -5.6375   -0.1685 O.2       1 <0>        -0.9300
     17 O4          7.3708   -3.7570   -1.6014 O.2       1 <0>        -0.9320
     18 C13         7.7299   -3.5131    1.0248 C.3       1 <0>        -0.6494
     19 C14         0.3685   -4.1612   -0.6307 C.ar      1 <0>        -0.0079
     20 C15         0.9644   -4.5454   -1.8322 C.ar      1 <0>        -0.0861
     21 C16         1.1121   -5.8844   -2.1293 C.ar      1 <0>        -0.0931
     22 C17         0.6699   -6.8471   -1.2379 C.ar      1 <0>        -0.0257
     23 C18         0.0769   -6.4719   -0.0432 C.ar      1 <0>        -0.0274
     24 C19        -0.0698   -5.1342    0.2670 C.ar      1 <0>        -0.0779
     25 Cl1        -0.4759   -7.6851    1.0686 Cl        1 <0>        -0.0412
     26 Cl2         0.8585   -8.5303   -1.6187 Cl        1 <0>        -0.0416
     27 H1          0.8605    1.8272    0.7649 H         1 <0>         0.0887
     28 H2         -0.6452    1.9535   -0.1760 H         1 <0>         0.1037
     29 H3         -0.7098    1.5545    1.5574 H         1 <0>         0.1035
     30 H4         -2.1533   -0.2364    0.1677 H         1 <0>         0.1648
     31 H5          3.4393   -0.9192   -1.4024 H         1 <0>         0.1428
     32 H6          5.6999   -1.8804   -1.5184 H         1 <0>         0.1525
     33 H7          4.4681   -5.1304    0.9566 H         1 <0>         0.1527
     34 H8          2.2039   -4.1810    1.0974 H         1 <0>         0.1404
     35 H9          7.2290   -3.7837    1.9544 H         1 <0>         0.1331
     36 H10         8.7530   -3.8887    1.0408 H         1 <0>         0.1361
     37 H11         7.7427   -2.4281    0.9215 H         1 <0>         0.1329
     38 H12         1.3092   -3.7956   -2.5288 H         1 <0>         0.1370
     39 H13         1.5733   -6.1823   -3.0593 H         1 <0>         0.1479
     40 H14        -0.5274   -4.8423    1.2007 H         1 <0>         0.1431
@<TRIPOS>BOND
     1    1    2 1
     2    1   27 1
     3    1   28 1
     4    1   29 1
     5    2    8 1
     6    2    3 2
     7    3    4 1
     8    3   30 1
     9    4    5 2
    10    4    6 1
    11    6    7 2
    12    6   19 1
    13    7    8 1
    14    7    9 1
    15    9   14 ar
    16    9   10 ar
    17   10   11 ar
    18   10   31 1
    19   11   12 ar
    20   11   32 1
    21   12   13 ar
    22   12   15 1
    23   13   14 ar
    24   13   33 1
    25   14   34 1
    26   15   16 2
    27   15   17 2
    28   15   18 1
    29   18   35 1
    30   18   36 1
    31   18   37 1
    32   19   24 ar
    33   19   20 ar
    34   20   21 ar
    35   20   38 1
    36   21   22 ar
    37   21   39 1
    38   22   23 ar
    39   22   26 1
    40   23   24 ar
    41   23   25 1
    42   24   40 1
@<TRIPOS>MOLECULE
CHEMBL110514
   42    44     0     0     0
SMALL
USER_CHARGES

@<TRIPOS>ATOM
      1 C1         -0.0113    0.8337    0.8513 C.3       1 <0>        -0.1562
      2 C2          0.1353   -0.6227    0.4062 C.3       1 <0>         0.1323
      3 C3          0.8165   -0.6867   -0.9408 C.2       1 <0>        -0.0492
      4 C4          1.9585   -1.3909   -0.7616 C.2       1 <0>        -0.0192
      5 C5          2.0485   -1.7875    0.6456 C.2       1 <0>         0.4878
      6 O1          2.9575   -2.4318    1.1323 O.2       1 <0>        -0.4238
      7 O2          0.9764   -1.3328    1.3200 O.3       1 <0>        -0.2923
      8 O3          2.8698   -1.6820   -1.7269 O.3       1 <0>        -0.2087
      9 C6          4.1046   -1.1238   -1.6275 C.ar      1 <0>         0.0610
     10 C7          5.1110   -1.4721   -2.5237 C.ar      1 <0>        -0.0913
     11 C8          6.3535   -0.8763   -2.3822 C.ar      1 <0>        -0.1318
     12 C9          6.5520    0.0375   -1.3637 C.ar      1 <0>         0.0743
     13 N1          5.5772    0.3454   -0.5309 N.ar      1 <0>        -0.4473
     14 C10         4.3788   -0.1941   -0.6348 C.ar      1 <0>         0.0435
     15 C11         0.3336   -0.0987   -2.2001 C.ar      1 <0>         0.0077
     16 C12         0.2628    1.2905   -2.3455 C.ar      1 <0>        -0.1173
     17 C13        -0.1909    1.8339   -3.5288 C.ar      1 <0>        -0.0201
     18 C14        -0.5756    1.0084   -4.5710 C.ar      1 <0>        -0.6500
     19 C15        -0.5084   -0.3673   -4.4349 C.ar      1 <0>        -0.0182
     20 C16        -0.0515   -0.9260   -3.2600 C.ar      1 <0>        -0.1065
     21 S1         -1.1545    1.7126   -6.0788 S.o2      1 <0>         2.4985
     22 O4         -1.9358    0.6895   -6.6804 O.2       1 <0>        -0.9334
     23 O5         -1.7465    2.9472   -5.6987 O.2       1 <0>        -0.9330
     24 C17         0.3426    2.0130   -7.0581 C.3       1 <0>        -0.6498
     25 C18        -1.2398   -1.2894    0.3323 C.3       1 <0>        -0.1529
     26 H1          0.9729    1.2994    0.9007 H         1 <0>         0.0729
     27 H2         -0.6323    1.3718    0.1351 H         1 <0>         0.0910
     28 H3         -0.4791    0.8676    1.8353 H         1 <0>         0.0909
     29 H4          4.9277   -2.1895   -3.3099 H         1 <0>         0.1484
     30 H5          7.1579   -1.1229   -3.0593 H         1 <0>         0.1497
     31 H6          7.5186    0.5052   -1.2486 H         1 <0>         0.1649
     32 H7          3.6039    0.0868    0.0632 H         1 <0>         0.1457
     33 H8          0.5622    1.9360   -1.5330 H         1 <0>         0.1408
     34 H9         -0.2466    2.9065   -3.6425 H         1 <0>         0.1500
     35 H10        -0.8104   -1.0048   -5.2527 H         1 <0>         0.1518
     36 H11         0.0049   -1.9996   -3.1571 H         1 <0>         0.1399
     37 H12         0.8281    1.0627   -7.2804 H         1 <0>         0.1328
     38 H13         0.0736    2.5103   -7.9900 H         1 <0>         0.1358
     39 H14         1.0259    2.6464   -6.4923 H         1 <0>         0.1320
     40 H15        -1.8596   -0.7642   -0.3944 H         1 <0>         0.0888
     41 H16        -1.1235   -2.3292    0.0266 H         1 <0>         0.0726
     42 H17        -1.7159   -1.2498    1.3120 H         1 <0>         0.0877
@<TRIPOS>BOND
     1    1    2 1
     2    1   26 1
     3    1   27 1
     4    1   28 1
     5    2    7 1
     6    2    3 1
     7    2   25 1
     8    3    4 2
     9    3   15 1
    10    4    5 1
    11    4    8 1
    12    5    6 2
    13    5    7 1
    14    8    9 1
    15    9   14 ar
    16    9   10 ar
    17   10   11 ar
    18   10   29 1
    19   11   12 ar
    20   11   30 1
    21   12   13 ar
    22   12   31 1
    23   13   14 ar
    24   14   32 1
    25   15   20 ar
    26   15   16 ar
    27   16   17 ar
    28   16   33 1
    29   17   18 ar
    30   17   34 1
    31   18   19 ar
    32   18   21 1
    33   19   20 ar
    34   19   35 1
    35   20   36 1
    36   21   22 2
    37   21   23 2
    38   21   24 1
    39   24   37 1
    40   24   38 1
    41   24   39 1
    42   25   40 1
    43   25   41 1
    44   25   42 1
@<TRIPOS>MOLECULE
CHEMBL24687
   46    49     0     0     0
SMALL
USER_CHARGES

@<TRIPOS>ATOM
      1 C1         -0.0182    1.5027    0.0102 C.3       1 <0>        -0.0933
      2 C2          0.0021   -0.0042    0.0020 C.2       1 <0>         0.1216
      3 C3          0.0074   -0.7679   -1.0995 C.2       1 <0>        -0.1453
      4 C4          0.0293   -2.1662   -0.6567 C.ar      1 <0>        -0.0420
      5 C5          0.0428   -3.3917   -1.3243 C.ar      1 <0>        -0.1094
      6 C6          0.0625   -4.5656   -0.5961 C.ar      1 <0>         0.1100
      7 C7          0.0688   -4.5275    0.7953 C.ar      1 <0>        -0.1767
      8 C8          0.0551   -3.3226    1.4635 C.ar      1 <0>        -0.0853
      9 C9          0.0357   -2.1316    0.7482 C.ar      1 <0>         0.0748
     10 N1          0.0240   -0.7990    1.1223 N.am      1 <0>        -0.5077
     11 C10         0.0297   -0.3494    2.3928 C.2       1 <0>         0.6029
     12 O1         -1.0174   -0.0751    2.9450 O.2       1 <0>        -0.4288
     13 C11         1.3084   -0.1902    3.1139 C.ar      1 <0>        -0.1631
     14 C12         2.5190   -0.3985    2.4491 C.ar      1 <0>        -0.0416
     15 C13         3.7097   -0.2483    3.1279 C.ar      1 <0>        -0.1217
     16 C14         3.7070    0.1084    4.4664 C.ar      1 <0>         0.0032
     17 C15         2.5096    0.3160    5.1314 C.ar      1 <0>        -0.1227
     18 C16         1.3125    0.1750    4.4621 C.ar      1 <0>        -0.0383
     19 Cl1         5.2103    0.2955    5.3141 Cl        1 <0>        -0.0526
     20 O2          0.0753   -5.7626   -1.2410 O.3       1 <0>        -0.3165
     21 C17         0.0954   -6.9375   -0.4278 C.3       1 <0>         0.0274
     22 C18        -0.0069   -0.2812   -2.5257 C.3       1 <0>         0.0284
     23 C19         1.4090   -0.0991   -3.0085 C.2       1 <0>         0.1197
     24 C20         1.8561   -0.7064   -4.1338 C.2       1 <0>        -0.2666
     25 S1          3.5438   -0.1255   -4.1782 S.3       1 <0>         0.0680
     26 C21         3.5038    0.8140   -2.7825 C.2       1 <0>         0.3203
     27 N2          2.2678    0.6644   -2.3560 N.2       1 <0>        -0.5780
     28 N3          4.5234    1.5668   -2.2214 N.pl3     1 <0>        -0.8064
     29 H1          1.0044    1.8799    0.0025 H         1 <0>         0.0876
     30 H2         -0.5453    1.8638   -0.8729 H         1 <0>         0.0902
     31 H3         -0.5284    1.8543    0.9070 H         1 <0>         0.0614
     32 H4          0.0376   -3.4222   -2.4038 H         1 <0>         0.1346
     33 H5          0.0842   -5.4504    1.3560 H         1 <0>         0.1341
     34 H6          0.0595   -3.3039    2.5434 H         1 <0>         0.1206
     35 H7          2.5224   -0.6770    1.4056 H         1 <0>         0.1412
     36 H8          4.6464   -0.4095    2.6151 H         1 <0>         0.1431
     37 H9          2.5140    0.5936    6.1751 H         1 <0>         0.1464
     38 H10         0.3798    0.3418    4.9804 H         1 <0>         0.1478
     39 H11         0.1040   -7.8210   -1.0660 H         1 <0>         0.1002
     40 H12         0.9887   -6.9318    0.1968 H         1 <0>         0.0543
     41 H13        -0.7911   -6.9558    0.2062 H         1 <0>         0.0549
     42 H14        -0.5139   -1.0132   -3.1543 H         1 <0>         0.0920
     43 H15        -0.5343    0.6712   -2.5793 H         1 <0>         0.0887
     44 H16         1.3352   -1.3618   -4.8160 H         1 <0>         0.1917
     45 H17         5.3958    1.5938   -2.6448 H         1 <0>         0.4184
     46 H18         4.3647    2.0667   -1.4054 H         1 <0>         0.4125
@<TRIPOS>BOND
     1    1    2 1
     2    1   29 1
     3    1   30 1
     4    1   31 1
     5    2   10 1
     6    2    3 2
     7    3    4 1
     8    3   22 1
     9    4    9 ar
    10    4    5 ar
    11    5    6 ar
    12    5   32 1
    13    6    7 ar
    14    6   20 1
    15    7    8 ar
    16    7   33 1
    17    8    9 ar
    18    8   34 1
    19    9   10 1
    20   10   11 am
    21   11   12 2
    22   11   13 1
    23   13   18 ar
    24   13   14 ar
    25   14   15 ar
    26   14   35 1
    27   15   16 ar
    28   15   36 1
    29   16   17 ar
    30   16   19 1
    31   17   18 ar
    32   17   37 1
    33   18   38 1
    34   20   21 1
    35   21   39 1
    36   21   40 1
    37   21   41 1
    38   22   23 1
    39   22   42 1
    40   22   43 1
    41   23   27 1
    42   23   24 2
    43   24   25 1
    44   24   44 1
    45   25   26 1
    46   26   27 2
    47   26   28 1
    48   28   45 1
    49   28   46 1
@<TRIPOS>MOLECULE
CHEMBL44152
   53    56     0     0     0
SMALL
USER_CHARGES

@<TRIPOS>ATOM
      1 C1         -0.2541    1.4873   -0.1054 C.3       1 <0>        -0.0941
      2 C2         -0.1009   -0.0108   -0.0485 C.2       1 <0>         0.0611
      3 C3          0.0586   -0.8290   -1.1114 C.2       1 <0>        -0.1704
      4 C4          0.1634   -2.1435   -0.6276 C.2       1 <0>        -0.1206
      5 C5          0.0636   -2.0866    0.7302 C.2       1 <0>         0.0342
      6 N1         -0.0940   -0.7696    1.0862 N.pl3     1 <0>        -0.3925
      7 C6         -0.2287   -0.2859    2.3953 C.ar      1 <0>         0.0985
      8 C7          0.8444   -0.3498    3.2738 C.ar      1 <0>        -0.0740
      9 C8          0.7099    0.1276    4.5627 C.ar      1 <0>        -0.1390
     10 C9         -0.4945    0.6694    4.9792 C.ar      1 <0>         0.1164
     11 C10        -1.5660    0.7341    4.1044 C.ar      1 <0>        -0.1410
     12 C11        -1.4336    0.2629    2.8129 C.ar      1 <0>        -0.0823
     13 F1         -0.6245    1.1351    6.2407 F         1 <0>        -0.1289
     14 C12         0.1207   -3.2376    1.6560 C.ar      1 <0>         0.0459
     15 C13        -0.3913   -3.1228    2.9495 C.ar      1 <0>        -0.1466
     16 C14        -0.3353   -4.2010    3.8084 C.ar      1 <0>        -0.0153
     17 C15         0.2272   -5.3939    3.3903 C.ar      1 <0>        -0.6648
     18 C16         0.7365   -5.5144    2.1095 C.ar      1 <0>        -0.0150
     19 C17         0.6816   -4.4457    1.2387 C.ar      1 <0>        -0.1244
     20 S1          0.2957   -6.7657    4.4940 S.o2      1 <0>         2.4992
     21 O1          1.3999   -7.5385    4.0438 O.2       1 <0>        -0.9363
     22 O2          0.2976   -6.1870    5.7919 O.2       1 <0>        -0.9374
     23 C18        -1.2534   -7.6671    4.2141 C.3       1 <0>        -0.6505
     24 C19         0.1136   -0.4071   -2.5571 C.3       1 <0>         0.1393
     25 O3          0.2921   -1.5595   -3.3831 O.3       1 <0>        -0.3032
     26 C20         0.3626   -1.3522   -4.7246 C.ar      1 <0>         0.1395
     27 C21         0.2678   -0.0656   -5.2345 C.ar      1 <0>        -0.1991
     28 C22         0.3396    0.1430   -6.5982 C.ar      1 <0>        -0.0683
     29 C23         0.5056   -0.9304   -7.4554 C.ar      1 <0>        -0.0747
     30 C24         0.5999   -2.2145   -6.9487 C.ar      1 <0>        -0.0691
     31 C25         0.5352   -2.4265   -5.5852 C.ar      1 <0>        -0.1396
     32 Cl1         0.5951   -0.6658   -9.1688 Cl        1 <0>        -0.0700
     33 H1          0.7290    1.9552   -0.0539 H         1 <0>         0.0792
     34 H2         -0.7414    1.7675   -1.0392 H         1 <0>         0.0848
     35 H3         -0.8606    1.8227    0.7359 H         1 <0>         0.0703
     36 H4          0.2980   -3.0350   -1.2222 H         1 <0>         0.1513
     37 H5          1.7836   -0.7730    2.9495 H         1 <0>         0.1408
     38 H6          1.5445    0.0780    5.2464 H         1 <0>         0.1491
     39 H7         -2.5046    1.1570    4.4310 H         1 <0>         0.1489
     40 H8         -2.2683    0.3173    2.1297 H         1 <0>         0.1424
     41 H9         -0.8299   -2.1919    3.2772 H         1 <0>         0.1310
     42 H10        -0.7311   -4.1135    4.8094 H         1 <0>         0.1427
     43 H11         1.1742   -6.4483    1.7893 H         1 <0>         0.1470
     44 H12         1.0758   -4.5423    0.2379 H         1 <0>         0.1397
     45 H13        -1.3037   -7.9887    3.1739 H         1 <0>         0.1322
     46 H14        -1.2889   -8.5397    4.8664 H         1 <0>         0.1337
     47 H15        -2.0983   -7.0145    4.4340 H         1 <0>         0.1312
     48 H16        -0.8175    0.0918   -2.8258 H         1 <0>         0.0714
     49 H17         0.9485    0.2781   -2.7042 H         1 <0>         0.0720
     50 H18         0.1375    0.7724   -4.5658 H         1 <0>         0.1371
     51 H19         0.2659    1.1445   -6.9955 H         1 <0>         0.1362
     52 H20         0.7291   -3.0511   -7.6194 H         1 <0>         0.1407
     53 H21         0.6137   -3.4284   -5.1898 H         1 <0>         0.1411
@<TRIPOS>BOND
     1    1    2 1
     2    1   33 1
     3    1   34 1
     4    1   35 1
     5    2    6 1
     6    2    3 2
     7    3    4 1
     8    3   24 1
     9    4    5 2
    10    4   36 1
    11    5    6 1
    12    5   14 1
    13    6    7 1
    14    7   12 ar
    15    7    8 ar
    16    8    9 ar
    17    8   37 1
    18    9   10 ar
    19    9   38 1
    20   10   11 ar
    21   10   13 1
    22   11   12 ar
    23   11   39 1
    24   12   40 1
    25   14   19 ar
    26   14   15 ar
    27   15   16 ar
    28   15   41 1
    29   16   17 ar
    30   16   42 1
    31   17   18 ar
    32   17   20 1
    33   18   19 ar
    34   18   43 1
    35   19   44 1
    36   20   21 2
    37   20   22 2
    38   20   23 1
    39   23   45 1
    40   23   46 1
    41   23   47 1
    42   24   25 1
    43   24   48 1
    44   24   49 1
    45   25   26 1
    46   26   31 ar
    47   26   27 ar
    48   27   28 ar
    49   27   50 1
    50   28   29 ar
    51   28   51 1
    52   29   30 ar
    53   29   32 1
    54   30   31 ar
    55   30   52 1
    56   31   53 1
@<TRIPOS>MOLECULE
CHEMBL97059
   39    42     0     0     0
SMALL
USER_CHARGES

@<TRIPOS>ATOM
      1 C1          0.6393    0.2724   -1.2004 C.ar      1 <0>        -0.1380
      2 C2          1.8247    0.9812   -1.2051 C.ar      1 <0>        -0.0018
      3 C3          2.3770    1.4155   -0.0140 C.ar      1 <0>        -0.6704
      4 C4          1.7448    1.1418    1.1850 C.ar      1 <0>         0.0059
      5 C5          0.5595    0.4330    1.1964 C.ar      1 <0>        -0.1171
      6 C6          0.0021   -0.0041    0.0020 C.ar      1 <0>         0.1866
      7 N1         -1.2003   -0.7223    0.0101 N.pl3     1 <0>        -0.2913
      8 C7         -1.4623   -1.8542   -0.6947 C.2       1 <0>         0.1408
      9 C8         -2.7721   -2.2171   -0.3969 C.2       1 <0>        -0.1943
     10 C9         -3.2829   -1.2967    0.5015 C.2       1 <0>         0.0317
     11 N2         -2.3497   -0.4050    0.7530 N.2       1 <0>        -0.2036
     12 C10        -4.6682   -1.3163    1.0944 C.3       1 <0>         0.5567
     13 F1         -4.6573   -2.0575    2.2809 F         1 <0>        -0.1602
     14 F2         -5.0776   -0.0065    1.3665 F         1 <0>        -0.1605
     15 F3         -5.5559   -1.9032    0.1862 F         1 <0>        -0.1502
     16 S1         -3.5173   -3.6350   -1.1340 S.3       1 <0>        -0.0106
     17 C11        -2.6332   -3.7446   -2.7171 C.3       1 <0>        -0.0817
     18 C12        -1.1548   -3.5256   -2.5331 C.ar      1 <0>        -0.0294
     19 C13        -0.6088   -2.6362   -1.6090 C.ar      1 <0>        -0.0213
     20 C14         0.7786   -2.4729   -1.5300 C.ar      1 <0>        -0.1137
     21 C15         1.6135   -3.2019   -2.3510 C.ar      1 <0>         0.0819
     22 C16         1.0701   -4.1016   -3.2572 C.ar      1 <0>         0.0985
     23 C17        -0.2995   -4.2581   -3.3449 C.ar      1 <0>        -0.1130
     24 F4          1.8833   -4.8263   -4.0565 F         1 <0>        -0.1147
     25 F5          2.9526   -3.0407   -2.2737 F         1 <0>        -0.1138
     26 S2          3.8896    2.3190   -0.0242 S.o2      1 <0>         2.7026
     27 O1          4.4786    2.1395    1.2565 O.2       1 <0>        -0.9543
     28 O2          4.5618    1.9722   -1.2272 O.2       1 <0>        -0.9512
     29 N3          3.5005    3.9241   -0.1453 N.pl3     1 <0>        -1.2456
     30 H1          0.2062   -0.0626   -2.1313 H         1 <0>         0.1459
     31 H2          2.3209    1.1963   -2.1399 H         1 <0>         0.1606
     32 H3          2.1787    1.4823    2.1136 H         1 <0>         0.1606
     33 H4          0.0667    0.2190    2.1333 H         1 <0>         0.1512
     34 H5         -2.7969   -4.7315   -3.1498 H         1 <0>         0.1388
     35 H6         -3.0243   -2.9882   -3.3975 H         1 <0>         0.1159
     36 H7          1.1978   -1.7723   -0.8229 H         1 <0>         0.1531
     37 H8         -0.7107   -4.9606   -4.0547 H         1 <0>         0.1627
     38 H9          4.0792    4.5946    0.2501 H         1 <0>         0.4247
     39 H10         2.6938    4.1937   -0.6117 H         1 <0>         0.4183
@<TRIPOS>BOND
     1    1    6 ar
     2    1    2 ar
     3    1   30 1
     4    2    3 ar
     5    2   31 1
     6    3    4 ar
     7    3   26 1
     8    4    5 ar
     9    4   32 1
    10    5    6 ar
    11    5   33 1
    12    6    7 1
    13    7   11 1
    14    7    8 1
    15    8   19 1
    16    8    9 2
    17    9   10 1
    18    9   16 1
    19   10   11 2
    20   10   12 1
    21   12   13 1
    22   12   14 1
    23   12   15 1
    24   16   17 1
    25   17   18 1
    26   17   34 1
    27   17   35 1
    28   18   23 ar
    29   18   19 ar
    30   19   20 ar
    31   20   21 ar
    32   20   36 1
    33   21   22 ar
    34   21   25 1
    35   22   23 ar
    36   22   24 1
    37   23   37 1
    38   26   27 2
    39   26   28 2
    40   26   29 1
    41   29   38 1
    42   29   39 1
@<TRIPOS>MOLECULE
CHEMBL365883
   40    43     0     0     0
SMALL
USER_CHARGES

@<TRIPOS>ATOM
      1 C1         -0.0168    1.3899    0.0097 C.ar      1 <0>        -0.1241
      2 C2          1.1703    2.0934    0.0021 C.ar      1 <0>        -0.0152
      3 C3          2.3775    1.4181   -0.0135 C.ar      1 <0>        -0.6703
      4 C4          2.4025    0.0350   -0.0216 C.ar      1 <0>        -0.0142
      5 C5          1.2218   -0.6792   -0.0137 C.ar      1 <0>        -0.1155
      6 C6          0.0021   -0.0041    0.0020 C.ar      1 <0>         0.0122
      7 C7         -1.2697   -0.7654    0.0106 C.ar      1 <0>        -0.0302
      8 C8         -2.2603   -0.4618    0.9406 C.ar      1 <0>        -0.0789
      9 C9         -3.4440   -1.1715    0.9467 C.ar      1 <0>        -0.1183
     10 C10        -3.6557   -2.1896    0.0302 C.ar      1 <0>         0.0795
     11 C11        -2.6811   -2.5047   -0.9016 C.ar      1 <0>         0.0843
     12 C12        -1.4832   -1.7922   -0.9229 C.ar      1 <0>        -0.0321
     13 C13        -0.4384   -2.1207   -1.9212 C.ar      1 <0>        -0.0519
     14 C14        -0.0799   -1.1851   -2.8909 C.ar      1 <0>        -0.0796
     15 C15         0.8933   -1.4918   -3.8194 C.ar      1 <0>        -0.0971
     16 C16         1.5178   -2.7299   -3.7924 C.ar      1 <0>         0.0474
     17 C17         1.1633   -3.6692   -2.8253 C.ar      1 <0>         0.0365
     18 C18         0.1920   -3.3639   -1.8892 C.ar      1 <0>        -0.0807
     19 O1          1.9158   -4.7930   -3.0126 O.3       1 <0>        -0.3057
     20 C19         2.4402   -4.6860   -4.3492 C.3       1 <0>         0.2125
     21 O2          2.4921   -3.2665   -4.5840 O.3       1 <0>        -0.3044
     22 F1         -2.8929   -3.4983   -1.7921 F         1 <0>        -0.1166
     23 F2         -4.8180   -2.8780    0.0464 F         1 <0>        -0.1217
     24 S1          3.8893    2.3232   -0.0236 S.o2      1 <0>         2.6986
     25 O3          4.8719    1.4662   -0.5889 O.2       1 <0>        -0.9603
     26 O4          3.5927    3.6032   -0.5647 O.2       1 <0>        -0.9611
     27 N1          4.3251    2.5662    1.5554 N.pl3     1 <0>        -1.2496
     28 H1         -0.9587    1.9182    0.0260 H         1 <0>         0.1400
     29 H2          1.1569    3.1733    0.0081 H         1 <0>         0.1479
     30 H3          3.3480   -0.4869   -0.0345 H         1 <0>         0.1456
     31 H4          1.2425   -1.7590   -0.0204 H         1 <0>         0.1356
     32 H5         -2.1022    0.3297    1.6582 H         1 <0>         0.1494
     33 H6         -4.2096   -0.9324    1.6700 H         1 <0>         0.1546
     34 H7         -0.5643   -0.2201   -2.9152 H         1 <0>         0.1404
     35 H8          1.1694   -0.7658   -4.5698 H         1 <0>         0.1425
     36 H9         -0.0804   -4.0890   -1.1366 H         1 <0>         0.1380
     37 H10         3.4384   -5.1201   -4.4048 H         1 <0>         0.1358
     38 H11         1.7716   -5.1679   -5.0626 H         1 <0>         0.0878
     39 H12         3.7667    2.2238    2.2708 H         1 <0>         0.4169
     40 H13         5.1388    3.0509    1.7649 H         1 <0>         0.4221
@<TRIPOS>BOND
     1    1    6 ar
     2    1    2 ar
     3    1   28 1
     4    2    3 ar
     5    2   29 1
     6    3    4 ar
     7    3   24 1
     8    4    5 ar
     9    4   30 1
    10    5    6 ar
    11    5   31 1
    12    6    7 1
    13    7   12 ar
    14    7    8 ar
    15    8    9 ar
    16    8   32 1
    17    9   10 ar
    18    9   33 1
    19   10   11 ar
    20   10   23 1
    21   11   12 ar
    22   11   22 1
    23   12   13 1
    24   13   18 ar
    25   13   14 ar
    26   14   15 ar
    27   14   34 1
    28   15   16 ar
    29   15   35 1
    30   16   21 1
    31   16   17 ar
    32   17   18 ar
    33   17   19 1
    34   18   36 1
    35   19   20 1
    36   20   21 1
    37   20   37 1
    38   20   38 1
    39   24   25 2
    40   24   26 2
    41   24   27 1
    42   27   39 1
    43   27   40 1
@<TRIPOS>MOLECULE
CHEMBL568681
   41    43     0     0     0
SMALL
USER_CHARGES

@<TRIPOS>ATOM
      1 C1          0.0601    1.5033    0.0102 C.3       1 <0>        -0.1117
      2 C2          0.0599   -0.0037    0.0020 C.ar      1 <0>        -0.0773
      3 C3          0.0643   -0.6821   -1.2150 C.ar      1 <0>        -0.1350
      4 C4          0.0642   -2.0451   -1.2550 C.ar      1 <0>        -0.0786
      5 C5          0.0597   -2.7715   -0.0596 C.ar      1 <0>        -0.0791
      6 C6          0.0601   -4.2353   -0.0540 C.ar      1 <0>        -0.0597
      7 C7          0.0558   -4.8674    1.1825 C.ar      1 <0>        -0.1484
      8 C8          0.0513   -4.0917    2.3523 C.ar      1 <0>         0.1717
      9 N1          0.0507   -2.7762    2.3237 N.ar      1 <0>        -0.4718
     10 C9          0.0551   -2.0870    1.1819 C.ar      1 <0>         0.1264
     11 C10         0.0610   -0.6793    1.1832 C.ar      1 <0>        -0.0809
     12 C11         0.0624    0.0762    2.4871 C.3       1 <0>        -0.0999
     13 C12         0.0467   -4.7787    3.6664 C.ar      1 <0>         0.0241
     14 C13         0.0526   -6.1714    3.7278 C.ar      1 <0>        -0.1221
     15 C14         0.0487   -6.8053    4.9536 C.ar      1 <0>        -0.0256
     16 C15         0.0390   -6.0615    6.1199 C.ar      1 <0>        -0.6619
     17 C16         0.0331   -4.6793    6.0651 C.ar      1 <0>        -0.0314
     18 C17         0.0422   -4.0344    4.8450 C.ar      1 <0>        -0.1054
     19 S1          0.0335   -6.8779    7.6813 S.o2      1 <0>         2.5025
     20 O1         -0.5783   -5.9543    8.5712 O.2       1 <0>        -0.9413
     21 O2         -0.5627   -8.1425    7.4272 O.2       1 <0>        -0.9397
     22 C18         1.7851   -7.0866    8.1044 C.3       1 <0>        -0.6515
     23 C19         0.0643   -5.0083   -1.3120 C.2       1 <0>         0.5261
     24 O3          0.1735   -6.2258   -1.2810 O.co2     1 <0>        -0.6691
     25 O4         -0.0413   -4.4309   -2.3847 O.co2     1 <0>        -0.6671
     26 H1          1.0879    1.8665    0.0112 H         1 <0>         0.0680
     27 H2         -0.4545    1.8716   -0.8772 H         1 <0>         0.0649
     28 H3         -0.4527    1.8618    0.9027 H         1 <0>         0.0665
     29 H4          0.0674   -0.1215   -2.1381 H         1 <0>         0.1220
     30 H5          0.0673   -2.5607   -2.2040 H         1 <0>         0.1755
     31 H6          0.0555   -5.9457    1.2435 H         1 <0>         0.1447
     32 H7         -0.9649    0.2585    2.8025 H         1 <0>         0.0642
     33 H8          0.5769   -0.5117    3.2472 H         1 <0>         0.0717
     34 H9          0.5762    1.0284    2.3548 H         1 <0>         0.0613
     35 H10         0.0598   -6.7530    2.8178 H         1 <0>         0.1440
     36 H11         0.0529   -7.8842    5.0024 H         1 <0>         0.1446
     37 H12         0.0251   -4.1037    6.9789 H         1 <0>         0.1418
     38 H13         0.0421   -2.9552    4.8034 H         1 <0>         0.1443
     39 H14         2.2639   -6.1091    8.1622 H         1 <0>         0.1310
     40 H15         1.8687   -7.5896    9.0678 H         1 <0>         0.1300
     41 H16         2.2751   -7.6864    7.3375 H         1 <0>         0.1320
@<TRIPOS>BOND
     1    1    2 1
     2    1   26 1
     3    1   27 1
     4    1   28 1
     5    2   11 ar
     6    2    3 ar
     7    3    4 ar
     8    3   29 1
     9    4    5 ar
    10    4   30 1
    11    5   10 ar
    12    5    6 ar
    13    6    7 ar
    14    6   23 1
    15    7    8 ar
    16    7   31 1
    17    8    9 ar
    18    8   13 1
    19    9   10 ar
    20   10   11 ar
    21   11   12 1
    22   12   32 1
    23   12   33 1
    24   12   34 1
    25   13   18 ar
    26   13   14 ar
    27   14   15 ar
    28   14   35 1
    29   15   16 ar
    30   15   36 1
    31   16   17 ar
    32   16   19 1
    33   17   18 ar
    34   17   37 1
    35   18   38 1
    36   19   20 2
    37   19   21 2
    38   19   22 1
    39   22   39 1
    40   22   40 1
    41   22   41 1
    42   23   24 2
    43   23   25 1
@<TRIPOS>MOLECULE
CHEMBL54619
   39    41     0     0     0
SMALL
USER_CHARGES

@<TRIPOS>ATOM
      1 C1         -1.2885    1.3722    0.1674 C.3       1 <0>        -0.1152
      2 C2         -0.9727   -0.1010    0.1344 C.ar      1 <0>        -0.1266
      3 C3         -0.1253   -0.6141   -0.8380 C.ar      1 <0>        -0.0747
      4 C4          0.1397   -1.9721   -0.8334 C.ar      1 <0>        -0.1473
      5 C5         -0.4505   -2.7741    0.1426 C.ar      1 <0>         0.1484
      6 N1         -1.2555   -2.2437    1.0547 N.ar      1 <0>        -0.4544
      7 C6         -1.5195   -0.9530    1.0758 C.ar      1 <0>         0.1018
      8 C7         -0.1770   -4.2302    0.1613 C.ar      1 <0>        -0.0040
      9 C8         -0.2694   -4.9745   -1.0121 C.ar      1 <0>        -0.1064
     10 C9         -0.0133   -6.3319   -0.9910 C.ar      1 <0>         0.0793
     11 C10         0.3365   -6.9609    0.1972 C.ar      1 <0>         0.0818
     12 C11         0.4319   -6.2345    1.3690 C.ar      1 <0>        -0.1093
     13 C12         0.1822   -4.8649    1.3612 C.ar      1 <0>        -0.0145
     14 C13         0.2890   -4.0815    2.6149 C.ar      1 <0>         0.0315
     15 C14         1.1348   -2.9751    2.6788 C.ar      1 <0>        -0.1191
     16 C15         1.2302   -2.2495    3.8488 C.ar      1 <0>        -0.0148
     17 C16         0.4885   -2.6182    4.9569 C.ar      1 <0>        -0.6724
     18 C17        -0.3524   -3.7150    4.8994 C.ar      1 <0>        -0.0124
     19 C18        -0.4603   -4.4447    3.7331 C.ar      1 <0>        -0.1167
     20 S1          0.6159   -1.6873    6.4474 S.o2      1 <0>         2.6998
     21 O1          0.2356   -2.5581    7.5039 O.2       1 <0>        -0.9621
     22 O2          1.8790   -1.0370    6.4134 O.2       1 <0>        -0.9630
     23 N2         -0.5319   -0.4955    6.3801 N.pl3     1 <0>        -1.2495
     24 F1          0.5841   -8.2889    0.2074 F         1 <0>        -0.1205
     25 F2         -0.1038   -7.0511   -2.1311 F         1 <0>        -0.1209
     26 H1         -0.5563    1.8870    0.7894 H         1 <0>         0.0773
     27 H2         -1.2521    1.7744   -0.8450 H         1 <0>         0.0712
     28 H3         -2.2857    1.5208    0.5817 H         1 <0>         0.0728
     29 H4          0.3169    0.0322   -1.5817 H         1 <0>         0.1394
     30 H5          0.7941   -2.4049   -1.5756 H         1 <0>         0.1387
     31 H6         -2.1756   -0.5559    1.8363 H         1 <0>         0.1584
     32 H7         -0.5416   -4.4906   -1.9385 H         1 <0>         0.1542
     33 H8          0.7039   -6.7285    2.2900 H         1 <0>         0.1557
     34 H9          1.7146   -2.6866    1.8145 H         1 <0>         0.1287
     35 H10         1.8853   -1.3925    3.8996 H         1 <0>         0.1430
     36 H11        -0.9291   -3.9981    5.7675 H         1 <0>         0.1463
     37 H12        -1.1206   -5.2982    3.6879 H         1 <0>         0.1371
     38 H13        -1.1119   -0.4239    5.6058 H         1 <0>         0.4167
     39 H14        -0.6242    0.1310    7.1148 H         1 <0>         0.4215
@<TRIPOS>BOND
     1    1    2 1
     2    1   26 1
     3    1   27 1
     4    1   28 1
     5    2    7 ar
     6    2    3 ar
     7    3    4 ar
     8    3   29 1
     9    4    5 ar
    10    4   30 1
    11    5    6 ar
    12    5    8 1
    13    6    7 ar
    14    7   31 1
    15    8   13 ar
    16    8    9 ar
    17    9   10 ar
    18    9   32 1
    19   10   11 ar
    20   10   25 1
    21   11   12 ar
    22   11   24 1
    23   12   13 ar
    24   12   33 1
    25   13   14 1
    26   14   19 ar
    27   14   15 ar
    28   15   16 ar
    29   15   34 1
    30   16   17 ar
    31   16   35 1
    32   17   18 ar
    33   17   20 1
    34   18   19 ar
    35   18   36 1
    36   19   37 1
    37   20   21 2
    38   20   22 2
    39   20   23 1
    40   23   38 1
    41   23   39 1
@<TRIPOS>MOLECULE
CHEMBL334678
   56    60     0     0     0
SMALL
USER_CHARGES

@<TRIPOS>ATOM
      1 C1          7.2023  -11.6727    2.4314 C.ar      1 <0>        -0.0960
      2 C2          7.0917  -10.8107    3.5067 C.ar      1 <0>        -0.1047
      3 C3          6.9713   -9.4528    3.2904 C.ar      1 <0>        -0.0907
      4 C4          6.9610   -8.9471    1.9989 C.ar      1 <0>        -0.1259
      5 C5          7.0740   -9.8072    0.9274 C.ar      1 <0>        -0.0931
      6 C6          7.1933  -11.1709    1.1452 C.ar      1 <0>        -0.1068
      7 C7          7.0755   -9.2987   -0.4917 C.3       1 <0>        -0.1027
      8 C8          6.5384   -7.8674   -0.5291 C.3       1 <0>        -0.0032
      9 N1          7.2657   -7.0673    0.4682 N.4       1 <0>        -0.3796
     10 C9          6.8230   -7.4595    1.8093 C.3       1 <0>         0.0383
     11 C10         6.9838   -5.6415    0.2549 C.3       1 <0>         0.0117
     12 C11         7.8362   -4.8046    1.2110 C.3       1 <0>        -0.1416
     13 S1          7.4881   -3.0439    0.9476 S.3       1 <0>        -0.1894
     14 C12         8.4779   -2.2063    2.2162 C.3       1 <0>         0.0404
     15 C13         9.8955   -2.3931    1.8360 C.ar      1 <0>        -0.0617
     16 C14        10.1980   -1.8369    0.5757 C.ar      1 <0>        -0.1032
     17 C15        11.4728   -1.8466    0.0694 C.ar      1 <0>        -0.1150
     18 C16        12.4899   -2.4082    0.8203 C.ar      1 <0>        -0.1099
     19 C17        12.1871   -2.9704    2.0348 C.ar      1 <0>        -0.1232
     20 C18        10.8693   -2.9947    2.5318 C.ar      1 <0>        -0.1054
     21 C19        10.7823   -3.8158    3.7987 C.3       1 <0>         0.1133
     22 O1          9.9293   -3.2955    4.7741 O.3       1 <0>        -0.3129
     23 C20         8.5908   -3.1364    4.5697 C.ar      1 <0>         0.1262
     24 C21         7.9191   -2.6141    3.5238 C.ar      1 <0>        -0.1576
     25 C22         6.5324   -2.4299    3.6172 C.ar      1 <0>        -0.0513
     26 C23         5.8221   -2.8405    4.7393 C.ar      1 <0>        -0.1436
     27 C24         6.5130   -3.4566    5.7890 C.ar      1 <0>        -0.0480
     28 C25         7.8698   -3.5952    5.6995 C.ar      1 <0>        -0.1672
     29 C26         4.3672   -2.6303    4.8224 C.2       1 <0>         0.5190
     30 O2          3.7735   -2.0903    3.8991 O.co2     1 <0>        -0.6817
     31 O3          3.7521   -2.9956    5.8147 O.co2     1 <0>        -0.6812
     32 H1          7.3000  -12.7354    2.5973 H         1 <0>         0.1345
     33 H2          7.0992  -11.1993    4.5144 H         1 <0>         0.1366
     34 H3          6.8843   -8.7806    4.1312 H         1 <0>         0.1367
     35 H4          7.2797  -11.8440    0.3051 H         1 <0>         0.1328
     36 H5          8.0934   -9.3142   -0.8812 H         1 <0>         0.1014
     37 H6          6.4433   -9.9392   -1.1068 H         1 <0>         0.1224
     38 H7          6.6936   -7.4441   -1.5215 H         1 <0>         0.1377
     39 H8          5.4747   -7.8693   -0.2915 H         1 <0>         0.1350
     40 H9          5.7787   -7.1759    1.9403 H         1 <0>         0.1441
     41 H10         7.4307   -6.9445    2.5533 H         1 <0>         0.1378
     42 H11         7.2232   -5.3738   -0.7742 H         1 <0>         0.1412
     43 H12         5.9282   -5.4474    0.4448 H         1 <0>         0.1446
     44 H13         7.5968   -5.0722    2.2401 H         1 <0>         0.1043
     45 H14         8.8918   -4.9986    1.0212 H         1 <0>         0.0977
     46 H15         8.2653   -1.1430    2.1058 H         1 <0>         0.1334
     47 H16         9.4048   -1.3911   -0.0061 H         1 <0>         0.1305
     48 H17        11.6794   -1.4221   -0.9019 H         1 <0>         0.1291
     49 H18        13.5066   -2.4044    0.4560 H         1 <0>         0.1280
     50 H19        12.9800   -3.4054    2.6252 H         1 <0>         0.1249
     51 H20        10.4378   -4.8165    3.5379 H         1 <0>         0.0513
     52 H21        11.7822   -3.8998    4.2244 H         1 <0>         0.1147
     53 H22         6.0051   -1.9597    2.8003 H         1 <0>         0.1416
     54 H23         5.9817   -3.8172    6.6574 H         1 <0>         0.1370
     55 H24         8.4055   -4.0667    6.5101 H         1 <0>         0.1262
     56 H25         8.2566   -7.2342    0.3775 H         1 <0>         0.4229
@<TRIPOS>BOND
     1    1    6 ar
     2    1    2 ar
     3    1   32 1
     4    2    3 ar
     5    2   33 1
     6    3    4 ar
     7    3   34 1
     8    4   10 1
     9    4    5 ar
    10    5    6 ar
    11    5    7 1
    12    6   35 1
    13    7    8 1
    14    7   36 1
    15    7   37 1
    16    8    9 1
    17    8   38 1
    18    8   39 1
    19    9   10 1
    20    9   11 1
    21    9   56 1
    22   10   40 1
    23   10   41 1
    24   11   12 1
    25   11   42 1
    26   11   43 1
    27   12   13 1
    28   12   44 1
    29   12   45 1
    30   13   14 1
    31   14   24 1
    32   14   15 1
    33   14   46 1
    34   15   20 ar
    35   15   16 ar
    36   16   17 ar
    37   16   47 1
    38   17   18 ar
    39   17   48 1
    40   18   19 ar
    41   18   49 1
    42   19   20 ar
    43   19   50 1
    44   20   21 1
    45   21   22 1
    46   21   51 1
    47   21   52 1
    48   22   23 1
    49   23   28 ar
    50   23   24 ar
    51   24   25 ar
    52   25   26 ar
    53   25   53 1
    54   26   27 ar
    55   26   29 1
    56   27   28 ar
    57   27   54 1
    58   28   55 1
    59   29   30 2
    60   29   31 1
@<TRIPOS>MOLECULE
CHEMBL334678__1
   55    59     0     0     0
SMALL
USER_CHARGES

@<TRIPOS>ATOM
      1 C1          7.0936  -11.8199    2.2852 C.ar      1 <0>        -0.1231
      2 C2          6.8310  -11.0128    3.3766 C.ar      1 <0>        -0.1218
      3 C3          6.6845   -9.6512    3.2050 C.ar      1 <0>        -0.1137
      4 C4          6.8004   -9.0866    1.9431 C.ar      1 <0>        -0.0719
      5 C5          7.0657   -9.8913    0.8560 C.ar      1 <0>        -0.0706
      6 C6          7.2100  -11.2597    1.0291 C.ar      1 <0>        -0.1228
      7 C7          7.2118   -9.3229   -0.5321 C.3       1 <0>        -0.0737
      8 C8          6.6212   -7.9136   -0.5839 C.3       1 <0>         0.0515
      9 N1          7.1804   -7.1312    0.5300 N.3       1 <0>        -0.5278
     10 C9          6.6270   -7.5967    1.8055 C.3       1 <0>         0.0869
     11 C10         6.9329   -5.6956    0.3414 C.3       1 <0>         0.0723
     12 C11         7.7339   -4.9000    1.3740 C.3       1 <0>        -0.0786
     13 S1          7.4283   -3.1271    1.1411 S.3       1 <0>        -0.2389
     14 C12         8.3464   -2.3420    2.4943 C.3       1 <0>         0.0354
     15 C13         9.7826   -2.5404    2.1998 C.ar      1 <0>        -0.0494
     16 C14        10.1731   -1.9533    0.9783 C.ar      1 <0>        -0.0993
     17 C15        11.4774   -1.9689    0.5541 C.ar      1 <0>        -0.1200
     18 C16        12.4363   -2.5678    1.3513 C.ar      1 <0>        -0.1164
     19 C17        12.0485   -3.1596    2.5269 C.ar      1 <0>        -0.1235
     20 C18        10.7013   -3.1770    2.9381 C.ar      1 <0>        -0.1051
     21 C19        10.5217   -4.0326    4.1721 C.3       1 <0>         0.1117
     22 O1          9.6154   -3.5268    5.1061 O.3       1 <0>        -0.3166
     23 C20         8.2951   -3.3406    4.8217 C.ar      1 <0>         0.1247
     24 C21         7.6992   -2.7780    3.7511 C.ar      1 <0>        -0.1464
     25 C22         6.3121   -2.5745    3.7614 C.ar      1 <0>        -0.0456
     26 C23         5.5257   -3.0056    4.8234 C.ar      1 <0>        -0.1483
     27 C24         6.1391   -3.6625    5.8963 C.ar      1 <0>        -0.0523
     28 C25         7.4967   -3.8199    5.8893 C.ar      1 <0>        -0.1675
     29 C26         4.0715   -2.7747    4.8198 C.2       1 <0>         0.5229
     30 O2          3.5458   -2.1992    3.8770 O.co2     1 <0>        -0.6838
     31 O3          3.3890   -3.1584    5.7598 O.co2     1 <0>        -0.6885
     32 H1          7.2117  -12.8855    2.4159 H         1 <0>         0.1196
     33 H2          6.7405  -11.4469    4.3614 H         1 <0>         0.1216
     34 H3          6.4780   -9.0217    4.0580 H         1 <0>         0.1236
     35 H4          7.4145  -11.8903    0.1765 H         1 <0>         0.1192
     36 H5          8.2683   -9.2824   -0.7973 H         1 <0>         0.0829
     37 H6          6.6864   -9.9617   -1.2419 H         1 <0>         0.0775
     38 H7          6.8831   -7.4414   -1.5308 H         1 <0>         0.0812
     39 H8          5.5370   -7.9671   -0.4857 H         1 <0>         0.0419
     40 H9          5.5656   -7.3521    1.8484 H         1 <0>         0.0545
     41 H10         7.1422   -7.0968    2.6257 H         1 <0>         0.0894
     42 H11         7.2414   -5.4024   -0.6621 H         1 <0>         0.0845
     43 H12         5.8701   -5.4902    0.4692 H         1 <0>         0.0505
     44 H13         7.4254   -5.1931    2.3775 H         1 <0>         0.0810
     45 H14         8.7967   -5.1053    1.2461 H         1 <0>         0.0838
     46 H15         8.1562   -1.2727    2.4020 H         1 <0>         0.1241
     47 H16         9.4252   -1.4785    0.3606 H         1 <0>         0.1298
     48 H17        11.7519   -1.5201   -0.3891 H         1 <0>         0.1251
     49 H18        13.4742   -2.5698    1.0527 H         1 <0>         0.1233
     50 H19        12.7956   -3.6239    3.1535 H         1 <0>         0.1213
     51 H20        10.1806   -5.0198    3.8604 H         1 <0>         0.0574
     52 H21        11.4910   -4.1446    4.6579 H         1 <0>         0.1109
     53 H22         5.8449   -2.0728    2.9268 H         1 <0>         0.1407
     54 H23         5.5482   -4.0391    6.7181 H         1 <0>         0.1334
     55 H24         7.9727   -4.3230    6.7180 H         1 <0>         0.1230
@<TRIPOS>BOND
     1    1    6 ar
     2    1    2 ar
     3    1   32 1
     4    2    3 ar
     5    2   33 1
     6    3    4 ar
     7    3   34 1
     8    4   10 1
     9    4    5 ar
    10    5    6 ar
    11    5    7 1
    12    6   35 1
    13    7    8 1
    14    7   36 1
    15    7   37 1
    16    8    9 1
    17    8   38 1
    18    8   39 1
    19    9   10 1
    20    9   11 1
    21   10   40 1
    22   10   41 1
    23   11   12 1
    24   11   42 1
    25   11   43 1
    26   12   13 1
    27   12   44 1
    28   12   45 1
    29   13   14 1
    30   14   24 1
    31   14   15 1
    32   14   46 1
    33   15   20 ar
    34   15   16 ar
    35   16   17 ar
    36   16   47 1
    37   17   18 ar
    38   17   48 1
    39   18   19 ar
    40   18   49 1
    41   19   20 ar
    42   19   50 1
    43   20   21 1
    44   21   22 1
    45   21   51 1
    46   21   52 1
    47   22   23 1
    48   23   28 ar
    49   23   24 ar
    50   24   25 ar
    51   25   26 ar
    52   25   53 1
    53   26   27 ar
    54   26   29 1
    55   27   28 ar
    56   27   54 1
    57   28   55 1
    58   29   30 2
    59   29   31 1
@<TRIPOS>MOLECULE
CHEMBL334678__2
   56    60     0     0     0
SMALL
USER_CHARGES

@<TRIPOS>ATOM
      1 C1         11.4031   -4.3581   -6.7781 C.ar      1 <0>        -0.0950
      2 C2         12.1009   -4.6546   -5.6219 C.ar      1 <0>        -0.1067
      3 C3         11.4588   -4.6119   -4.4008 C.ar      1 <0>        -0.0922
      4 C4         10.1160   -4.2725   -4.3265 C.ar      1 <0>        -0.1283
      5 C5          9.4217   -3.9744   -5.4797 C.ar      1 <0>        -0.0893
      6 C6         10.0667   -4.0190   -6.7059 C.ar      1 <0>        -0.1055
      7 C7          7.9639   -3.5928   -5.4429 C.3       1 <0>        -0.1058
      8 C8          7.3588   -3.9903   -4.0958 C.3       1 <0>        -0.0024
      9 N1          8.2152   -3.4623   -3.0228 N.4       1 <0>        -0.3815
     10 C9          9.4547   -4.2430   -2.9739 C.3       1 <0>         0.0427
     11 C10         7.5145   -3.5712   -1.7362 C.3       1 <0>         0.0127
     12 C11         8.3533   -2.9094   -0.6411 C.3       1 <0>        -0.1401
     13 S1          7.4881   -3.0439    0.9476 S.3       1 <0>        -0.1902
     14 C12         8.6645   -2.3599    2.1472 C.3       1 <0>         0.0402
     15 C13         9.7912   -3.3157    2.2244 C.ar      1 <0>        -0.0655
     16 C14         9.3663   -4.6380    2.4702 C.ar      1 <0>        -0.1015
     17 C15        10.2517   -5.6847    2.5129 C.ar      1 <0>        -0.1190
     18 C16        11.5959   -5.4371    2.2990 C.ar      1 <0>        -0.1102
     19 C17        12.0083   -4.1461    2.0849 C.ar      1 <0>        -0.1259
     20 C18        11.1002   -3.0692    2.0831 C.ar      1 <0>        -0.1006
     21 C19        11.8276   -1.7462    1.9957 C.3       1 <0>         0.1063
     22 O1         11.2054   -0.7900    1.1906 O.3       1 <0>        -0.3183
     23 C20         9.9642   -0.2961    1.4633 C.ar      1 <0>         0.1214
     24 C21         8.8252   -0.9284    1.8105 C.ar      1 <0>        -0.1536
     25 C22         7.6307   -0.1996    1.8980 C.ar      1 <0>        -0.0535
     26 C23         7.6072    1.1765    1.7031 C.ar      1 <0>        -0.1396
     27 C24         8.8069    1.8406    1.4230 C.ar      1 <0>        -0.0477
     28 C25         9.9569    1.1116    1.3046 C.ar      1 <0>        -0.1636
     29 C26         6.3410    1.9230    1.7895 C.2       1 <0>         0.5187
     30 O2          5.2981    1.3323    2.0345 O.co2     1 <0>        -0.6820
     31 O3          6.3319    3.1340    1.6163 O.co2     1 <0>        -0.6803
     32 H1         11.9032   -4.3873   -7.7349 H         1 <0>         0.1348
     33 H2         13.1466   -4.9195   -5.6742 H         1 <0>         0.1356
     34 H3         12.0048   -4.8444   -3.4985 H         1 <0>         0.1334
     35 H4          9.5213   -3.7873   -7.6088 H         1 <0>         0.1341
     36 H5          7.8676   -2.5157   -5.5797 H         1 <0>         0.1050
     37 H6          7.4341   -4.1078   -6.2442 H         1 <0>         0.1230
     38 H7          6.3576   -3.5690   -4.0058 H         1 <0>         0.1398
     39 H8          7.3093   -5.0768   -4.0233 H         1 <0>         0.1323
     40 H9          9.2253   -5.2624   -2.6637 H         1 <0>         0.1376
     41 H10        10.1349   -3.7925   -2.2510 H         1 <0>         0.1373
     42 H11         6.5481   -3.0719   -1.8054 H         1 <0>         0.1446
     43 H12         7.3636   -4.6229   -1.4926 H         1 <0>         0.1383
     44 H13         9.3197   -3.4087   -0.5719 H         1 <0>         0.0995
     45 H14         8.5043   -1.8577   -0.8847 H         1 <0>         0.1067
     46 H15         8.1603   -2.3969    3.1129 H         1 <0>         0.1318
     47 H16         8.3157   -4.8315    2.6287 H         1 <0>         0.1325
     48 H17         9.9045   -6.6879    2.7112 H         1 <0>         0.1282
     49 H18        12.3097   -6.2476    2.3008 H         1 <0>         0.1269
     50 H19        13.0564   -3.9504    1.9129 H         1 <0>         0.1244
     51 H20        11.9245   -1.3391    3.0022 H         1 <0>         0.0652
     52 H21        12.8283   -1.9283    1.6039 H         1 <0>         0.1138
     53 H22         6.7099   -0.7180    2.1210 H         1 <0>         0.1392
     54 H23         8.8237    2.9137    1.3019 H         1 <0>         0.1377
     55 H24        10.8832    1.6215    1.0846 H         1 <0>         0.1263
     56 H25         8.4326   -2.4949   -3.2095 H         1 <0>         0.4282
@<TRIPOS>BOND
     1    1    6 ar
     2    1    2 ar
     3    1   32 1
     4    2    3 ar
     5    2   33 1
     6    3    4 ar
     7    3   34 1
     8    4   10 1
     9    4    5 ar
    10    5    6 ar
    11    5    7 1
    12    6   35 1
    13    7    8 1
    14    7   36 1
    15    7   37 1
    16    8    9 1
    17    8   38 1
    18    8   39 1
    19    9   10 1
    20    9   11 1
    21    9   56 1
    22   10   40 1
    23   10   41 1
    24   11   12 1
    25   11   42 1
    26   11   43 1
    27   12   13 1
    28   12   44 1
    29   12   45 1
    30   13   14 1
    31   14   24 1
    32   14   15 1
    33   14   46 1
    34   15   20 ar
    35   15   16 ar
    36   16   17 ar
    37   16   47 1
    38   17   18 ar
    39   17   48 1
    40   18   19 ar
    41   18   49 1
    42   19   20 ar
    43   19   50 1
    44   20   21 1
    45   21   22 1
    46   21   51 1
    47   21   52 1
    48   22   23 1
    49   23   28 ar
    50   23   24 ar
    51   24   25 ar
    52   25   26 ar
    53   25   53 1
    54   26   27 ar
    55   26   29 1
    56   27   28 ar
    57   27   54 1
    58   28   55 1
    59   29   30 2
    60   29   31 1
@<TRIPOS>MOLECULE
CHEMBL334678__3
   55    59     0     0     0
SMALL
USER_CHARGES

@<TRIPOS>ATOM
      1 C1         11.8007   -4.1078   -6.4025 C.ar      1 <0>        -0.1220
      2 C2         12.4097   -4.5429   -5.2400 C.ar      1 <0>        -0.1240
      3 C3         11.6914   -4.5856   -4.0623 C.ar      1 <0>        -0.1150
      4 C4         10.3610   -4.1929   -4.0373 C.ar      1 <0>        -0.0746
      5 C5          9.7556   -3.7557   -5.1958 C.ar      1 <0>        -0.0666
      6 C6         10.4774   -3.7159   -6.3792 C.ar      1 <0>        -0.1213
      7 C7          8.3165   -3.3081   -5.2160 C.3       1 <0>        -0.0771
      8 C8          7.5971   -3.8069   -3.9625 C.3       1 <0>         0.0531
      9 N1          8.4023   -3.4435   -2.7856 N.3       1 <0>        -0.5271
     10 C9          9.6174   -4.2623   -2.7293 C.3       1 <0>         0.0923
     11 C10         7.6192   -3.5780   -1.5500 C.3       1 <0>         0.0749
     12 C11         8.3953   -2.9611   -0.3847 C.3       1 <0>        -0.0776
     13 S1          7.4283   -3.1271    1.1411 S.3       1 <0>        -0.2392
     14 C12         8.5348   -2.4965    2.4328 C.3       1 <0>         0.0353
     15 C13         9.6407   -3.4720    2.5533 C.ar      1 <0>        -0.0537
     16 C14         9.1824   -4.7938    2.7325 C.ar      1 <0>        -0.0973
     17 C15        10.0484   -5.8552    2.8005 C.ar      1 <0>        -0.1225
     18 C16        11.4069   -5.6231    2.6800 C.ar      1 <0>        -0.1161
     19 C17        11.8503   -4.3332    2.5308 C.ar      1 <0>        -0.1257
     20 C18        10.9594   -3.2424    2.5030 C.ar      1 <0>        -0.1043
     21 C19        11.7094   -1.9292    2.5012 C.3       1 <0>         0.1109
     22 O1         11.1536   -0.9406    1.6867 O.3       1 <0>        -0.3168
     23 C20         9.9046   -0.4350    1.8943 C.ar      1 <0>         0.1236
     24 C21         8.7369   -1.0588    2.1494 C.ar      1 <0>        -0.1424
     25 C22         7.5497   -0.3138    2.1822 C.ar      1 <0>        -0.0475
     26 C23         7.5580    1.0675    2.0270 C.ar      1 <0>        -0.1464
     27 C24         8.7824    1.7202    1.8435 C.ar      1 <0>        -0.0522
     28 C25         9.9273    0.9766    1.7771 C.ar      1 <0>        -0.1652
     29 C26         6.2995    1.8313    2.0545 C.2       1 <0>         0.5229
     30 O2          5.2349    1.2505    2.2151 O.co2     1 <0>        -0.6842
     31 O3          6.3186    3.0468    1.9169 O.co2     1 <0>        -0.6881
     32 H1         12.3603   -4.0703   -7.3255 H         1 <0>         0.1200
     33 H2         13.4453   -4.8491   -5.2536 H         1 <0>         0.1205
     34 H3         12.1676   -4.9270   -3.1550 H         1 <0>         0.1201
     35 H4         10.0016   -3.3766   -7.2875 H         1 <0>         0.1206
     36 H5          8.2767   -2.2193   -5.2469 H         1 <0>         0.0870
     37 H6          7.8243   -3.7121   -6.1006 H         1 <0>         0.0784
     38 H7          6.6152   -3.3388   -3.8931 H         1 <0>         0.0841
     39 H8          7.4868   -4.8903   -4.0103 H         1 <0>         0.0389
     40 H9          9.3450   -5.2977   -2.5243 H         1 <0>         0.0468
     41 H10        10.2612   -3.8972   -1.9291 H         1 <0>         0.0885
     42 H11         6.6663   -3.0616   -1.6658 H         1 <0>         0.0886
     43 H12         7.4382   -4.6336   -1.3477 H         1 <0>         0.0429
     44 H13         9.3482   -3.4775   -0.2689 H         1 <0>         0.0762
     45 H14         8.5763   -1.9055   -0.5870 H         1 <0>         0.0928
     46 H15         7.9693   -2.5531    3.3629 H         1 <0>         0.1226
     47 H16         8.1211   -4.9750    2.8180 H         1 <0>         0.1321
     48 H17         9.6751   -6.8581    2.9466 H         1 <0>         0.1245
     49 H18        12.1076   -6.4446    2.7033 H         1 <0>         0.1228
     50 H19        12.9099   -4.1495    2.4318 H         1 <0>         0.1211
     51 H20        11.7474   -1.5526    3.5234 H         1 <0>         0.0600
     52 H21        12.7305   -2.1159    2.1687 H         1 <0>         0.1100
     53 H22         6.6092   -0.8237    2.3307 H         1 <0>         0.1386
     54 H23         8.8220    2.7958    1.7554 H         1 <0>         0.1338
     55 H24        10.8729    1.4778    1.6317 H         1 <0>         0.1230
@<TRIPOS>BOND
     1    1    6 ar
     2    1    2 ar
     3    1   32 1
     4    2    3 ar
     5    2   33 1
     6    3    4 ar
     7    3   34 1
     8    4   10 1
     9    4    5 ar
    10    5    6 ar
    11    5    7 1
    12    6   35 1
    13    7    8 1
    14    7   36 1
    15    7   37 1
    16    8    9 1
    17    8   38 1
    18    8   39 1
    19    9   10 1
    20    9   11 1
    21   10   40 1
    22   10   41 1
    23   11   12 1
    24   11   42 1
    25   11   43 1
    26   12   13 1
    27   12   44 1
    28   12   45 1
    29   13   14 1
    30   14   24 1
    31   14   15 1
    32   14   46 1
    33   15   20 ar
    34   15   16 ar
    35   16   17 ar
    36   16   47 1
    37   17   18 ar
    38   17   48 1
    39   18   19 ar
    40   18   49 1
    41   19   20 ar
    42   19   50 1
    43   20   21 1
    44   21   22 1
    45   21   51 1
    46   21   52 1
    47   22   23 1
    48   23   28 ar
    49   23   24 ar
    50   24   25 ar
    51   25   26 ar
    52   25   53 1
    53   26   27 ar
    54   26   29 1
    55   27   28 ar
    56   27   54 1
    57   28   55 1
    58   29   30 2
    59   29   31 1
@<TRIPOS>MOLECULE
CHEMBL348825
   55    58     0     0     0
SMALL
USER_CHARGES

@<TRIPOS>ATOM
      1 C1          0.7233   -2.1468    0.7174 C.3       1 <0>         0.0192
      2 O1          0.1807   -1.4269    1.8262 O.3       1 <0>        -0.3659
      3 C2          0.3535   -0.0110    1.7406 C.3       1 <0>         0.1600
      4 C3         -0.2232    0.4964    0.4154 C.3       1 <0>        -0.1841
      5 C4         -1.7288    0.2212    0.3843 C.3       1 <0>         0.0647
      6 O2         -2.3505    0.8535    1.5050 O.3       1 <0>        -0.3800
      7 C5         -1.8847    0.3845    2.7719 C.3       1 <0>         0.0626
      8 C6         -0.3853    0.6663    2.8989 C.3       1 <0>        -0.1375
      9 C7          1.8211    0.3231    1.8147 C.ar      1 <0>        -0.0419
     10 C8          2.2956    1.4812    1.2292 C.ar      1 <0>        -0.1465
     11 C9          3.6464    1.7897    1.2973 C.ar      1 <0>         0.1611
     12 C10         4.5191    0.9342    1.9536 C.ar      1 <0>        -0.2444
     13 C11         4.0403   -0.2244    2.5386 C.ar      1 <0>         0.1450
     14 C12         2.6900   -0.5265    2.4731 C.ar      1 <0>        -0.1679
     15 F1          4.8888   -1.0586    3.1782 F         1 <0>        -0.1303
     16 O3          4.1142    2.9283    0.7214 O.3       1 <0>        -0.2997
     17 C13         5.5163    3.1819    0.8308 C.3       1 <0>         0.1512
     18 C14         5.8477    4.4786    0.1381 C.2       1 <0>         0.2417
     19 N1          5.8530    5.6534    0.6974 N.2       1 <0>        -0.4475
     20 C15         6.1974    6.5731   -0.2317 C.2       1 <0>         0.1725
     21 C16         6.4060    5.9124   -1.3964 C.2       1 <0>        -0.5914
     22 O4          6.1898    4.6058   -1.1510 O.3       1 <0>        -0.1426
     23 S1          6.8764    6.6262   -2.9372 S.o2      1 <0>         2.7258
     24 O5          5.6729    6.9735   -3.6082 O.2       1 <0>        -0.9344
     25 O6          7.8911    7.5789   -2.6505 O.2       1 <0>        -0.9172
     26 N2          7.5898    5.4302   -3.8334 N.pl3     1 <0>        -1.2372
     27 C17         6.3233    8.0360   -0.0160 C.ar      1 <0>        -0.0653
     28 C18         5.8062    8.9275   -0.9538 C.ar      1 <0>        -0.0759
     29 C19         5.9254   10.2869   -0.7493 C.ar      1 <0>        -0.1406
     30 C20         6.5586   10.7658    0.3861 C.ar      1 <0>         0.1257
     31 C21         7.0741    9.8829    1.3210 C.ar      1 <0>        -0.1505
     32 C22         6.9538    8.5220    1.1276 C.ar      1 <0>        -0.0397
     33 F2          6.6740   12.0975    0.5820 F         1 <0>        -0.1298
     34 H1          1.7701   -1.8738    0.5842 H         1 <0>         0.0474
     35 H2          0.6485   -3.2175    0.9076 H         1 <0>         0.0907
     36 H3          0.1653   -1.8983   -0.1853 H         1 <0>         0.0474
     37 H4         -0.0470    1.5686    0.3282 H         1 <0>         0.0895
     38 H5          0.2590   -0.0214   -0.4138 H         1 <0>         0.0838
     39 H6         -2.1520    0.6186   -0.5382 H         1 <0>         0.0972
     40 H7         -1.9029   -0.8538    0.4307 H         1 <0>         0.0574
     41 H8         -2.4202    0.8996    3.5695 H         1 <0>         0.0984
     42 H9         -2.0608   -0.6883    2.8496 H         1 <0>         0.0620
     43 H10        -0.0191    0.2699    3.8460 H         1 <0>         0.0868
     44 H11        -0.2124    1.7419    2.8620 H         1 <0>         0.0898
     45 H12         1.6149    2.1461    0.7182 H         1 <0>         0.1440
     46 H13         5.5712    1.1722    2.0076 H         1 <0>         0.1440
     47 H14         2.3164   -1.4291    2.9336 H         1 <0>         0.1466
     48 H15         5.7919    3.2513    1.8831 H         1 <0>         0.1207
     49 H16         6.0703    2.3681    0.3630 H         1 <0>         0.1072
     50 H17         7.5309    5.4490   -4.8014 H         1 <0>         0.4287
     51 H18         8.0664    4.7109   -3.3903 H         1 <0>         0.4218
     52 H19         5.3130    8.5551   -1.8395 H         1 <0>         0.1353
     53 H20         5.5249   10.9787   -1.4756 H         1 <0>         0.1505
     54 H21         7.5670   10.2605    2.2048 H         1 <0>         0.1482
     55 H22         7.3518    7.8345    1.8593 H         1 <0>         0.1433
@<TRIPOS>BOND
     1    1    2 1
     2    1   34 1
     3    1   35 1
     4    1   36 1
     5    2    3 1
     6    3    8 1
     7    3    4 1
     8    3    9 1
     9    4    5 1
    10    4   37 1
    11    4   38 1
    12    5    6 1
    13    5   39 1
    14    5   40 1
    15    6    7 1
    16    7    8 1
    17    7   41 1
    18    7   42 1
    19    8   43 1
    20    8   44 1
    21    9   14 ar
    22    9   10 ar
    23   10   11 ar
    24   10   45 1
    25   11   12 ar
    26   11   16 1
    27   12   13 ar
    28   12   46 1
    29   13   14 ar
    30   13   15 1
    31   14   47 1
    32   16   17 1
    33   17   18 1
    34   17   48 1
    35   17   49 1
    36   18   22 1
    37   18   19 2
    38   19   20 1
    39   20   21 2
    40   20   27 1
    41   21   22 1
    42   21   23 1
    43   23   24 2
    44   23   25 2
    45   23   26 1
    46   26   50 1
    47   26   51 1
    48   27   32 ar
    49   27   28 ar
    50   28   29 ar
    51   28   52 1
    52   29   30 ar
    53   29   53 1
    54   30   31 ar
    55   30   33 1
    56   31   32 ar
    57   31   54 1
    58   32   55 1
@<TRIPOS>MOLECULE
CHEMBL274642
   26    27     0     0     0
SMALL
USER_CHARGES

@<TRIPOS>ATOM
      1 C1         -0.0166    1.3763    0.0096 C.ar      1 <0>        -0.0722
      2 C2          1.1707    2.0859    0.0021 C.ar      1 <0>        -0.1293
      3 C3          2.3806    1.4163   -0.0135 C.ar      1 <0>        -0.1396
      4 C4          2.4075    0.0356   -0.0212 C.ar      1 <0>        -0.1202
      5 C5          1.2165   -0.6810   -0.0133 C.ar      1 <0>         0.2468
      6 C6          0.0021   -0.0041    0.0020 C.ar      1 <0>        -0.1620
      7 N1          1.2396   -2.0750   -0.0214 N.pl3     1 <0>        -0.4690
      8 C7          0.0571   -2.9512   -0.0203 C.3       1 <0>         0.0893
      9 C8          0.6608   -4.3698   -0.0317 C.3       1 <0>        -0.1306
     10 C9          2.1536   -4.1293   -0.0381 C.2       1 <0>         0.3283
     11 N2          2.3859   -2.8670   -0.0381 N.2       1 <0>        -0.3280
     12 N3          3.1229   -5.1205   -0.0489 N.pl3     1 <0>        -0.8296
     13 C10         3.6712    2.1942   -0.0227 C.3       1 <0>         0.5086
     14 F1          3.3898    3.5646   -0.0129 F         1 <0>        -0.1765
     15 F2          4.4226    1.8644    1.1104 F         1 <0>        -0.1763
     16 F3          4.3995    1.8759   -1.1740 F         1 <0>        -0.1762
     17 H1         -0.9595    1.9028    0.0260 H         1 <0>         0.1373
     18 H2          1.1529    3.1658    0.0081 H         1 <0>         0.1367
     19 H3          3.3528   -0.4866   -0.0338 H         1 <0>         0.1395
     20 H4         -0.9254   -0.5574    0.0083 H         1 <0>         0.1299
     21 H5         -0.5364   -2.7938    0.8803 H         1 <0>         0.0819
     22 H6         -0.5458   -2.7835   -0.9128 H         1 <0>         0.0816
     23 H7          0.3656   -4.9182    0.8628 H         1 <0>         0.1030
     24 H8          0.3562   -4.9078   -0.9294 H         1 <0>         0.1031
     25 H9          2.8614   -6.0546   -0.0529 H         1 <0>         0.4138
     26 H10         4.0626   -4.8799   -0.0524 H         1 <0>         0.4097
@<TRIPOS>BOND
     1    1    6 ar
     2    1    2 ar
     3    1   17 1
     4    2    3 ar
     5    2   18 1
     6    3    4 ar
     7    3   13 1
     8    4    5 ar
     9    4   19 1
    10    5    6 ar
    11    5    7 1
    12    6   20 1
    13    7   11 1
    14    7    8 1
    15    8    9 1
    16    8   21 1
    17    8   22 1
    18    9   10 1
    19    9   23 1
    20    9   24 1
    21   10   11 2
    22   10   12 1
    23   12   25 1
    24   12   26 1
    25   13   14 1
    26   13   15 1
    27   13   16 1
@<TRIPOS>MOLECULE
CHEMBL257054
   48    50     0     0     0
SMALL
USER_CHARGES

@<TRIPOS>ATOM
      1 C1         -0.0225    1.8097    0.0120 C.3       1 <0>        -0.6496
      2 S1          0.0021   -0.0041    0.0020 S.o2      1 <0>         2.4987
      3 O1          0.8352   -0.4880    1.0465 O.2       1 <0>        -0.9347
      4 O2         -1.3147   -0.5105   -0.1678 O.2       1 <0>        -0.9338
      5 C2          0.8454   -0.4373   -1.4831 C.ar      1 <0>        -0.6409
      6 C3          0.1315   -0.6121   -2.6550 C.ar      1 <0>        -0.0327
      7 C4          0.7868   -0.9515   -3.8212 C.ar      1 <0>        -0.0869
      8 C5          2.1706   -1.1181   -3.8167 C.ar      1 <0>         0.0037
      9 C6          2.8847   -0.9407   -2.6331 C.ar      1 <0>        -0.0876
     10 C7          2.2196   -0.5958   -1.4740 C.ar      1 <0>        -0.0342
     11 C8          2.8804   -1.4832   -5.0667 C.ar      1 <0>         0.4080
     12 N1          2.1831   -1.6426   -6.1832 N.ar      1 <0>        -0.5140
     13 C9          2.7813   -1.9684   -7.3184 C.ar      1 <0>         0.1271
     14 C10         4.1522   -2.1437   -7.3345 C.ar      1 <0>        -0.2404
     15 C11         4.8605   -1.9692   -6.1430 C.ar      1 <0>         0.4542
     16 N2          4.1968   -1.6370   -5.0412 N.ar      1 <0>        -0.5483
     17 N3          6.2357   -2.1352   -6.1121 N.pl3     1 <0>        -0.6985
     18 C12         6.9577   -2.4963   -7.3346 C.3       1 <0>         0.1211
     19 C13         8.4518   -2.6162   -7.0280 C.3       1 <0>        -0.0985
     20 C14         9.2231   -2.8972   -8.3238 C.3       1 <0>        -0.1124
     21 C15        10.7213   -2.8347   -8.0185 C.3       1 <0>        -0.0923
     22 C16        11.0385   -3.6705   -6.8131 C.2       1 <0>        -0.1544
     23 C17        10.1542   -4.0780   -5.9601 C.2       1 <0>        -0.1584
     24 C18         8.6870   -3.7800   -6.0627 C.3       1 <0>        -0.0874
     25 C19         1.9760   -2.1467   -8.5797 C.3       1 <0>         0.5248
     26 F1          0.6415   -1.8067   -8.3329 F         1 <0>        -0.1558
     27 F2          2.4905   -1.3180   -9.5826 F         1 <0>        -0.1658
     28 F3          2.0483   -3.4808   -8.9945 F         1 <0>        -0.1652
     29 H1          1.0001    2.1870    0.0043 H         1 <0>         0.1322
     30 H2         -0.5497    2.1708   -0.8711 H         1 <0>         0.1327
     31 H3         -0.5327    2.1613    0.9088 H         1 <0>         0.1345
     32 H4         -0.9407   -0.4831   -2.6572 H         1 <0>         0.1504
     33 H5          0.2284   -1.0881   -4.7355 H         1 <0>         0.1504
     34 H6          3.9570   -1.0688   -2.6238 H         1 <0>         0.1475
     35 H7          2.7725   -0.4534   -0.5573 H         1 <0>         0.1494
     36 H8          4.6642   -2.4100   -8.2474 H         1 <0>         0.1573
     37 H9          6.7205   -2.0123   -5.2809 H         1 <0>         0.4143
     38 H10         6.5856   -3.4504   -7.7079 H         1 <0>         0.0745
     39 H11         6.8024   -1.7254   -8.0894 H         1 <0>         0.0750
     40 H12         8.8092   -1.6896   -6.5788 H         1 <0>         0.0845
     41 H13         8.9660   -3.8891   -8.6955 H         1 <0>         0.0708
     42 H14         8.9699   -2.1454   -9.0713 H         1 <0>         0.0718
     43 H15        11.2806   -3.2098   -8.8756 H         1 <0>         0.0761
     44 H16        11.0082   -1.8008   -7.8269 H         1 <0>         0.0754
     45 H17        12.0685   -3.9497   -6.6472 H         1 <0>         0.1042
     46 H18        10.4935   -4.6692   -5.1224 H         1 <0>         0.1046
     47 H19         8.3022   -3.5159   -5.0777 H         1 <0>         0.0713
     48 H20         8.1636   -4.6637   -6.4278 H         1 <0>         0.0772
@<TRIPOS>BOND
     1    1    2 1
     2    1   29 1
     3    1   30 1
     4    1   31 1
     5    2    3 2
     6    2    4 2
     7    2    5 1
     8    5   10 ar
     9    5    6 ar
    10    6    7 ar
    11    6   32 1
    12    7    8 ar
    13    7   33 1
    14    8    9 ar
    15    8   11 1
    16    9   10 ar
    17    9   34 1
    18   10   35 1
    19   11   16 ar
    20   11   12 ar
    21   12   13 ar
    22   13   14 ar
    23   13   25 1
    24   14   15 ar
    25   14   36 1
    26   15   16 ar
    27   15   17 1
    28   17   18 1
    29   17   37 1
    30   18   19 1
    31   18   38 1
    32   18   39 1
    33   19   24 1
    34   19   20 1
    35   19   40 1
    36   20   21 1
    37   20   41 1
    38   20   42 1
    39   21   22 1
    40   21   43 1
    41   21   44 1
    42   22   23 2
    43   22   45 1
    44   23   24 1
    45   23   46 1
    46   24   47 1
    47   24   48 1
    48   25   26 1
    49   25   27 1
    50   25   28 1
@<TRIPOS>MOLECULE
CHEMBL257054__1
   48    50     0     0     0
SMALL
USER_CHARGES

@<TRIPOS>ATOM
      1 C1         -0.0225    1.8097    0.0120 C.3       1 <0>        -0.6496
      2 S1          0.0021   -0.0041    0.0020 S.o2      1 <0>         2.4987
      3 O1          0.8352   -0.4880    1.0465 O.2       1 <0>        -0.9347
      4 O2         -1.3147   -0.5105   -0.1678 O.2       1 <0>        -0.9338
      5 C2          0.8454   -0.4373   -1.4831 C.ar      1 <0>        -0.6409
      6 C3          0.1315   -0.6121   -2.6550 C.ar      1 <0>        -0.0327
      7 C4          0.7868   -0.9515   -3.8212 C.ar      1 <0>        -0.0869
      8 C5          2.1706   -1.1181   -3.8167 C.ar      1 <0>         0.0037
      9 C6          2.8847   -0.9407   -2.6331 C.ar      1 <0>        -0.0876
     10 C7          2.2196   -0.5958   -1.4740 C.ar      1 <0>        -0.0342
     11 C8          2.8804   -1.4832   -5.0667 C.ar      1 <0>         0.4080
     12 N1          2.1831   -1.6426   -6.1832 N.ar      1 <0>        -0.5140
     13 C9          2.7813   -1.9684   -7.3184 C.ar      1 <0>         0.1271
     14 C10         4.1522   -2.1437   -7.3345 C.ar      1 <0>        -0.2404
     15 C11         4.8605   -1.9692   -6.1430 C.ar      1 <0>         0.4542
     16 N2          4.1968   -1.6370   -5.0412 N.ar      1 <0>        -0.5483
     17 N3          6.2357   -2.1352   -6.1121 N.pl3     1 <0>        -0.6985
     18 C12         6.9577   -2.4963   -7.3346 C.3       1 <0>         0.1212
     19 C13         8.4518   -2.6162   -7.0280 C.3       1 <0>        -0.0987
     20 C14         9.1989   -3.0898   -8.2812 C.3       1 <0>        -0.1124
     21 C15        10.6539   -3.3715   -7.8998 C.3       1 <0>        -0.0925
     22 C16        11.2218   -2.2114   -7.1359 C.2       1 <0>        -0.1540
     23 C17        10.5045   -1.2903   -6.5767 C.2       1 <0>        -0.1587
     24 C18         9.0052   -1.2484   -6.6227 C.3       1 <0>        -0.0871
     25 C19         1.9760   -2.1467   -8.5797 C.3       1 <0>         0.5248
     26 F1          0.6415   -1.8067   -8.3329 F         1 <0>        -0.1558
     27 F2          2.4905   -1.3180   -9.5826 F         1 <0>        -0.1658
     28 F3          2.0483   -3.4808   -8.9945 F         1 <0>        -0.1652
     29 H1          1.0001    2.1870    0.0043 H         1 <0>         0.1322
     30 H2         -0.5497    2.1708   -0.8711 H         1 <0>         0.1327
     31 H3         -0.5327    2.1613    0.9088 H         1 <0>         0.1345
     32 H4         -0.9407   -0.4831   -2.6572 H         1 <0>         0.1504
     33 H5          0.2284   -1.0881   -4.7355 H         1 <0>         0.1504
     34 H6          3.9570   -1.0688   -2.6238 H         1 <0>         0.1475
     35 H7          2.7725   -0.4534   -0.5573 H         1 <0>         0.1494
     36 H8          4.6642   -2.4100   -8.2474 H         1 <0>         0.1573
     37 H9          6.7205   -2.0123   -5.2809 H         1 <0>         0.4143
     38 H10         6.5856   -3.4504   -7.7079 H         1 <0>         0.0750
     39 H11         6.8024   -1.7254   -8.0894 H         1 <0>         0.0746
     40 H12         8.6033   -3.3279   -6.2164 H         1 <0>         0.0846
     41 H13         8.7367   -4.0010   -8.6609 H         1 <0>         0.0719
     42 H14         9.1642   -2.3123   -9.0443 H         1 <0>         0.0707
     43 H15        10.6982   -4.2679   -7.2812 H         1 <0>         0.0756
     44 H16        11.2404   -3.5301   -8.8047 H         1 <0>         0.0762
     45 H17        12.2958   -2.1408   -7.0468 H         1 <0>         0.1042
     46 H18        11.0171   -0.5030   -6.0438 H         1 <0>         0.1045
     47 H19         8.6868   -0.5002   -7.3486 H         1 <0>         0.0770
     48 H20         8.6208   -0.9803   -5.6385 H         1 <0>         0.0711
@<TRIPOS>BOND
     1    1    2 1
     2    1   29 1
     3    1   30 1
     4    1   31 1
     5    2    3 2
     6    2    4 2
     7    2    5 1
     8    5   10 ar
     9    5    6 ar
    10    6    7 ar
    11    6   32 1
    12    7    8 ar
    13    7   33 1
    14    8    9 ar
    15    8   11 1
    16    9   10 ar
    17    9   34 1
    18   10   35 1
    19   11   16 ar
    20   11   12 ar
    21   12   13 ar
    22   13   14 ar
    23   13   25 1
    24   14   15 ar
    25   14   36 1
    26   15   16 ar
    27   15   17 1
    28   17   18 1
    29   17   37 1
    30   18   19 1
    31   18   38 1
    32   18   39 1
    33   19   24 1
    34   19   20 1
    35   19   40 1
    36   20   21 1
    37   20   41 1
    38   20   42 1
    39   21   22 1
    40   21   43 1
    41   21   44 1
    42   22   23 2
    43   22   45 1
    44   23   24 1
    45   23   46 1
    46   24   47 1
    47   24   48 1
    48   25   26 1
    49   25   27 1
    50   25   28 1
@<TRIPOS>MOLECULE
CHEMBL305507
   46    48     0     0     0
SMALL
USER_CHARGES

@<TRIPOS>ATOM
      1 C1          0.5705   -2.3649   -0.2270 C.3       1 <0>        -0.1714
      2 C2         -0.8518   -1.9742   -0.6336 C.3       1 <0>         0.1164
      3 C3         -0.8887   -1.6718   -2.1329 C.3       1 <0>        -0.1625
      4 C4         -1.1243   -0.2202   -2.5552 C.3       1 <0>        -0.1632
      5 C5         -2.2323   -1.2594   -2.7375 C.3       1 <0>        -0.1729
      6 O1         -1.2540   -0.8135    0.0965 O.3       1 <0>        -0.2820
      7 C6         -1.8309   -1.0172    1.3106 C.2       1 <0>         0.0103
      8 C7         -1.3130   -0.6423    2.5029 C.2       1 <0>        -0.0859
      9 C8         -2.3028   -1.0784    3.5577 C.3       1 <0>         0.1354
     10 O2         -3.3830   -1.7095    2.8637 O.3       1 <0>        -0.2988
     11 C9         -3.1193   -1.6734    1.5445 C.2       1 <0>         0.4843
     12 O3         -3.8418   -2.1226    0.6757 O.2       1 <0>        -0.4344
     13 C10        -1.6439   -2.0715    4.5171 C.3       1 <0>        -0.1541
     14 C11        -2.8155    0.1381    4.3312 C.3       1 <0>        -0.1524
     15 C12        -0.0360    0.0532    2.7282 C.ar      1 <0>         0.0237
     16 C13         1.0127   -0.5981    3.3854 C.ar      1 <0>        -0.1226
     17 C14         2.2063    0.0605    3.5927 C.ar      1 <0>        -0.0200
     18 C15         2.3678    1.3627    3.1527 C.ar      1 <0>        -0.6532
     19 C16         1.3346    2.0143    2.5020 C.ar      1 <0>        -0.0183
     20 C17         0.1372    1.3670    2.2811 C.ar      1 <0>        -0.1081
     21 S1          3.8967    2.1958    3.4230 S.o2      1 <0>         2.4979
     22 O4          3.5585    3.5758    3.4467 O.2       1 <0>        -0.9344
     23 O5          4.4547    1.5669    4.5686 O.2       1 <0>        -0.9349
     24 C18         4.8966    1.8227    1.9562 C.3       1 <0>        -0.6499
     25 H1          0.8518   -3.2891   -0.7319 H         1 <0>         0.0755
     26 H2          1.2608   -1.5708   -0.5115 H         1 <0>         0.0696
     27 H3          0.6122   -2.5132    0.8521 H         1 <0>         0.0582
     28 H4         -1.5319   -2.7966   -0.4119 H         1 <0>         0.0740
     29 H5         -0.2226   -2.2742   -2.7506 H         1 <0>         0.1219
     30 H6         -1.2529    0.5193   -1.7649 H         1 <0>         0.1025
     31 H7         -0.6130    0.1327   -3.4508 H         1 <0>         0.0944
     32 H8         -2.4500   -1.5901   -3.7531 H         1 <0>         0.0968
     33 H9         -3.0900   -1.2035   -2.0671 H         1 <0>         0.0987
     34 H10        -0.7903   -1.5972    5.0013 H         1 <0>         0.0886
     35 H11        -2.3658   -2.3795    5.2735 H         1 <0>         0.0863
     36 H12        -1.3062   -2.9454    3.9599 H         1 <0>         0.0708
     37 H13        -3.3059    0.8262    3.6426 H         1 <0>         0.0709
     38 H14        -3.5282   -0.1871    5.0890 H         1 <0>         0.0838
     39 H15        -1.9775    0.6419    4.8129 H         1 <0>         0.0865
     40 H16         0.8879   -1.6140    3.7299 H         1 <0>         0.1382
     41 H17         3.0171   -0.4411    4.1000 H         1 <0>         0.1485
     42 H18         1.4681    3.0306    2.1619 H         1 <0>         0.1485
     43 H19        -0.6664    1.8749    1.7686 H         1 <0>         0.1376
     44 H20         4.3878    2.1924    1.0660 H         1 <0>         0.1324
     45 H21         5.8690    2.3069    2.0465 H         1 <0>         0.1349
     46 H22         5.0339    0.7444    1.8747 H         1 <0>         0.1321
@<TRIPOS>BOND
     1    1    2 1
     2    1   25 1
     3    1   26 1
     4    1   27 1
     5    2    3 1
     6    2    6 1
     7    2   28 1
     8    3    5 1
     9    3    4 1
    10    3   29 1
    11    4    5 1
    12    4   30 1
    13    4   31 1
    14    5   32 1
    15    5   33 1
    16    6    7 1
    17    7   11 1
    18    7    8 2
    19    8    9 1
    20    8   15 1
    21    9   10 1
    22    9   13 1
    23    9   14 1
    24   10   11 1
    25   11   12 2
    26   13   34 1
    27   13   35 1
    28   13   36 1
    29   14   37 1
    30   14   38 1
    31   14   39 1
    32   15   20 ar
    33   15   16 ar
    34   16   17 ar
    35   16   40 1
    36   17   18 ar
    37   17   41 1
    38   18   19 ar
    39   18   21 1
    40   19   20 ar
    41   19   42 1
    42   20   43 1
    43   21   22 2
    44   21   23 2
    45   21   24 1
    46   24   44 1
    47   24   45 1
    48   24   46 1
@<TRIPOS>MOLECULE
CHEMBL305507__1
   46    48     0     0     0
SMALL
USER_CHARGES

@<TRIPOS>ATOM
      1 C1         -0.7200   -1.9364   -0.4513 C.3       1 <0>        -0.1738
      2 C2         -0.2251   -1.1469   -1.6648 C.3       1 <0>         0.1160
      3 C3         -1.4239   -0.5795   -2.4276 C.3       1 <0>        -0.1620
      4 C4         -1.7201   -1.1607   -3.8115 C.3       1 <0>        -0.1669
      5 C5         -1.1358    0.2474   -3.6823 C.3       1 <0>        -0.1651
      6 O1          0.6116   -0.0745   -1.2265 O.3       1 <0>        -0.2806
      7 C6          1.9473   -0.3196   -1.1642 C.2       1 <0>         0.0111
      8 C7          2.6992   -0.3115   -0.0395 C.2       1 <0>        -0.0899
      9 C8          4.1121   -0.6366   -0.4645 C.3       1 <0>         0.1359
     10 O2          4.0765   -0.8200   -1.8829 O.3       1 <0>        -0.2987
     11 C9          2.8102   -0.6426   -2.3028 C.2       1 <0>         0.4843
     12 O3          2.4384   -0.7331   -3.4569 O.2       1 <0>        -0.4356
     13 C10         5.0467    0.5212   -0.1084 C.3       1 <0>        -0.1562
     14 C11         4.5832   -1.9216    0.2192 C.3       1 <0>        -0.1500
     15 C12         2.2325   -0.0390    1.3292 C.ar      1 <0>         0.0257
     16 C13         2.6327    1.1273    1.9891 C.ar      1 <0>        -0.1186
     17 C14         2.1912    1.3755    3.2716 C.ar      1 <0>        -0.0191
     18 C15         1.3545    0.4738    3.9059 C.ar      1 <0>        -0.6528
     19 C16         0.9544   -0.6829    3.2597 C.ar      1 <0>        -0.0195
     20 C17         1.3819   -0.9421    1.9747 C.ar      1 <0>        -0.1159
     21 S1          0.7962    0.7998    5.5450 S.o2      1 <0>         2.4983
     22 O4          0.5253   -0.4812    6.0973 O.2       1 <0>        -0.9348
     23 O5          1.7975    1.6351    6.1097 O.2       1 <0>        -0.9345
     24 C18        -0.7476    1.7290    5.3355 C.3       1 <0>        -0.6498
     25 H1          0.1265   -2.4163    0.0398 H         1 <0>         0.0589
     26 H2         -1.2093   -1.2586    0.2482 H         1 <0>         0.0719
     27 H3         -1.4298   -2.6967   -0.7773 H         1 <0>         0.0799
     28 H4          0.3434   -1.8066   -2.3203 H         1 <0>         0.0717
     29 H5         -2.2741   -0.2827   -1.8135 H         1 <0>         0.1141
     30 H6         -1.0609   -1.9474   -4.1786 H         1 <0>         0.0964
     31 H7         -2.7654   -1.2466   -4.1081 H         1 <0>         0.1014
     32 H8         -1.7968    1.0879   -3.8938 H         1 <0>         0.0976
     33 H9         -0.0922    0.3871   -3.9643 H         1 <0>         0.1008
     34 H10         5.0260    0.6867    0.9688 H         1 <0>         0.0882
     35 H11         6.0626    0.2768   -0.4189 H         1 <0>         0.0847
     36 H12         4.7175    1.4249   -0.6212 H         1 <0>         0.0718
     37 H13         3.9264   -2.7447   -0.0621 H         1 <0>         0.0699
     38 H14         5.6027   -2.1470   -0.0939 H         1 <0>         0.0853
     39 H15         4.5563   -1.7887    1.3007 H         1 <0>         0.0870
     40 H16         3.2862    1.8315    1.4957 H         1 <0>         0.1393
     41 H17         2.4993    2.2757    3.7826 H         1 <0>         0.1491
     42 H18         0.3016   -1.3819    3.7615 H         1 <0>         0.1483
     43 H19         1.0647   -1.8426    1.4698 H         1 <0>         0.1366
     44 H20        -1.4631    1.1239    4.7787 H         1 <0>         0.1322
     45 H21        -1.1612    1.9719    6.3143 H         1 <0>         0.1349
     46 H22        -0.5461    2.6495    4.7876 H         1 <0>         0.1325
@<TRIPOS>BOND
     1    1    2 1
     2    1   25 1
     3    1   26 1
     4    1   27 1
     5    2    3 1
     6    2    6 1
     7    2   28 1
     8    3    5 1
     9    3    4 1
    10    3   29 1
    11    4    5 1
    12    4   30 1
    13    4   31 1
    14    5   32 1
    15    5   33 1
    16    6    7 1
    17    7   11 1
    18    7    8 2
    19    8    9 1
    20    8   15 1
    21    9   10 1
    22    9   13 1
    23    9   14 1
    24   10   11 1
    25   11   12 2
    26   13   34 1
    27   13   35 1
    28   13   36 1
    29   14   37 1
    30   14   38 1
    31   14   39 1
    32   15   20 ar
    33   15   16 ar
    34   16   17 ar
    35   16   40 1
    36   17   18 ar
    37   17   41 1
    38   18   19 ar
    39   18   21 1
    40   19   20 ar
    41   19   42 1
    42   20   43 1
    43   21   22 2
    44   21   23 2
    45   21   24 1
    46   24   44 1
    47   24   45 1
    48   24   46 1
@<TRIPOS>MOLECULE
CHEMBL67721
   55    58     0     0     0
SMALL
USER_CHARGES

@<TRIPOS>ATOM
      1 C1          2.7350    0.4944    1.2451 C.3       1 <0>        -0.6500
      2 S1          1.3148    0.5593    0.1184 S.o2      1 <0>         2.4979
      3 O1          0.3621   -0.4333    0.4741 O.2       1 <0>        -0.9351
      4 O2          0.9143    1.9071   -0.0872 O.2       1 <0>        -0.9347
      5 C2          1.9488    0.0359   -1.4400 C.ar      1 <0>        -0.6503
      6 C3          2.4702    0.9675   -2.3197 C.ar      1 <0>        -0.0214
      7 C4          2.9682    0.5633   -3.5417 C.ar      1 <0>        -0.1073
      8 C5          2.9452   -0.7864   -3.8887 C.ar      1 <0>         0.0372
      9 C6          2.4187   -1.7205   -2.9984 C.ar      1 <0>        -0.1073
     10 C7          1.9286   -1.3056   -1.7768 C.ar      1 <0>        -0.0222
     11 C8          3.4784   -1.2268   -5.2007 C.2       1 <0>         0.1234
     12 C9          4.6600   -0.7522   -5.8236 C.2       1 <0>        -0.1026
     13 C10         4.7900   -1.4098   -7.0099 C.2       1 <0>         0.0077
     14 N1          3.7458   -2.2554   -7.1303 N.pl3     1 <0>        -0.3215
     15 N2          2.9424   -2.1313   -5.9905 N.2       1 <0>        -0.2204
     16 C11         3.4979   -3.1552   -8.2595 C.3       1 <0>         0.0936
     17 C12         4.1630   -4.4823   -7.9998 C.2       1 <0>         0.4952
     18 O3          4.7832   -4.6591   -6.9725 O.2       1 <0>        -0.4920
     19 N3          4.0688   -5.4727   -8.9090 N.am      1 <0>        -0.6666
     20 C13         4.5935   -6.7378   -8.6223 C.ar      1 <0>         0.1401
     21 C14         5.1426   -7.5097   -9.6378 C.ar      1 <0>        -0.1414
     22 C15         5.6597   -8.7580   -9.3516 C.ar      1 <0>        -0.1001
     23 C16         5.6311   -9.2394   -8.0556 C.ar      1 <0>        -0.1299
     24 C17         5.0846   -8.4734   -7.0423 C.ar      1 <0>        -0.1000
     25 C18         4.5715   -7.2217   -7.3209 C.ar      1 <0>        -0.1187
     26 C19         5.9025   -1.2253   -8.0096 C.3       1 <0>         0.5401
     27 F1          5.4190   -1.4795   -9.2975 F         1 <0>        -0.1743
     28 F2          6.3781    0.0886   -7.9408 F         1 <0>        -0.1507
     29 F3          6.9432   -2.1138   -7.7184 F         1 <0>        -0.1566
     30 C20         5.5859    0.2733   -5.2827 C.ar      1 <0>        -0.0476
     31 C21         5.6654    1.5288   -5.8821 C.ar      1 <0>        -0.0626
     32 C22         6.5279    2.4795   -5.3758 C.ar      1 <0>        -0.1513
     33 C23         7.3141    2.1873   -4.2732 C.ar      1 <0>         0.1111
     34 C24         7.2387    0.9404   -3.6744 C.ar      1 <0>        -0.1520
     35 C25         6.3744   -0.0143   -4.1703 C.ar      1 <0>        -0.0617
     36 F4          8.1572    3.1210   -3.7807 F         1 <0>        -0.1359
     37 H1          3.1187   -0.5249    1.2877 H         1 <0>         0.1324
     38 H2          3.5167    1.1621    0.8831 H         1 <0>         0.1326
     39 H3          2.4228    0.8070    2.2416 H         1 <0>         0.1343
     40 H4          2.4872    2.0131   -2.0499 H         1 <0>         0.1486
     41 H5          3.3747    1.2914   -4.2280 H         1 <0>         0.1379
     42 H6          2.3983   -2.7676   -3.2621 H         1 <0>         0.1383
     43 H7          1.5244   -2.0290   -1.0843 H         1 <0>         0.1483
     44 H8          2.4244   -3.3036   -8.3769 H         1 <0>         0.1453
     45 H9          3.9057   -2.7164   -9.1701 H         1 <0>         0.1438
     46 H10         3.6372   -5.3086   -9.7620 H         1 <0>         0.4145
     47 H11         5.1650   -7.1345  -10.6503 H         1 <0>         0.1272
     48 H12         6.0866   -9.3590  -10.1410 H         1 <0>         0.1287
     49 H13         6.0361  -10.2159   -7.8344 H         1 <0>         0.1257
     50 H14         5.0634   -8.8523   -6.0312 H         1 <0>         0.1271
     51 H15         4.1495   -6.6218   -6.5281 H         1 <0>         0.1323
     52 H16         5.0531    1.7572   -6.7419 H         1 <0>         0.1353
     53 H17         6.5904    3.4526   -5.8400 H         1 <0>         0.1412
     54 H18         7.8537    0.7167   -2.8152 H         1 <0>         0.1403
     55 H19         6.3124   -0.9844   -3.6998 H         1 <0>         0.1341
@<TRIPOS>BOND
     1    1    2 1
     2    1   37 1
     3    1   38 1
     4    1   39 1
     5    2    3 2
     6    2    4 2
     7    2    5 1
     8    5   10 ar
     9    5    6 ar
    10    6    7 ar
    11    6   40 1
    12    7    8 ar
    13    7   41 1
    14    8    9 ar
    15    8   11 1
    16    9   10 ar
    17    9   42 1
    18   10   43 1
    19   11   15 2
    20   11   12 1
    21   12   13 2
    22   12   30 1
    23   13   14 1
    24   13   26 1
    25   14   15 1
    26   14   16 1
    27   16   17 1
    28   16   44 1
    29   16   45 1
    30   17   18 2
    31   17   19 am
    32   19   20 1
    33   19   46 1
    34   20   25 ar
    35   20   21 ar
    36   21   22 ar
    37   21   47 1
    38   22   23 ar
    39   22   48 1
    40   23   24 ar
    41   23   49 1
    42   24   25 ar
    43   24   50 1
    44   25   51 1
    45   26   27 1
    46   26   28 1
    47   26   29 1
    48   30   35 ar
    49   30   31 ar
    50   31   32 ar
    51   31   52 1
    52   32   33 ar
    53   32   53 1
    54   33   34 ar
    55   33   36 1
    56   34   35 ar
    57   34   54 1
    58   35   55 1
@<TRIPOS>MOLECULE
CHEMBL254465
   38    39     0     0     0
SMALL
USER_CHARGES

@<TRIPOS>ATOM
      1 C1          1.1106   -0.5847    1.6305 C.3       1 <0>         0.0258
      2 O1          0.7391    0.0055    0.3833 O.3       1 <0>        -0.3171
      3 C2          1.1934   -0.6004   -0.7461 C.ar      1 <0>         0.1163
      4 C3          1.9753   -1.7424   -0.6535 C.ar      1 <0>        -0.1871
      5 C4          2.4371   -2.3582   -1.8001 C.ar      1 <0>        -0.0770
      6 C5          2.1181   -1.8343   -3.0456 C.ar      1 <0>         0.1190
      7 C6          1.3350   -0.6916   -3.1376 C.ar      1 <0>        -0.1021
      8 C7          0.8699   -0.0795   -1.9904 C.ar      1 <0>        -0.1316
      9 N1          2.5867   -2.4585   -4.2096 N.am      1 <0>        -0.6758
     10 C8          2.7347   -3.7977   -4.2432 C.2       1 <0>         0.7037
     11 O2          2.3736   -4.4732   -3.2988 O.2       1 <0>        -0.5487
     12 N2          3.2829   -4.3882   -5.3236 N.am      1 <0>        -0.6842
     13 C9          3.3379   -5.7841   -5.4056 C.ar      1 <0>         0.2214
     14 C10         2.3280   -6.5544   -4.8440 C.ar      1 <0>        -0.1430
     15 C11         2.3853   -7.9318   -4.9266 C.ar      1 <0>        -0.0012
     16 C12         3.4466   -8.5440   -5.5677 C.ar      1 <0>        -0.6788
     17 C13         4.4540   -7.7798   -6.1274 C.ar      1 <0>        -0.0008
     18 C14         4.3995   -6.4017   -6.0536 C.ar      1 <0>        -0.1683
     19 S1          3.5159  -10.3017   -5.6709 S.o2      1 <0>         2.5025
     20 O3          4.8993  -10.6036   -5.7904 O.2       1 <0>        -0.9384
     21 O4          2.7682  -10.7603   -4.5528 O.2       1 <0>        -0.9371
     22 C15         2.6513  -10.7126   -7.2117 C.3       1 <0>        -0.6509
     23 H1          0.7346   -1.6069    1.6750 H         1 <0>         0.0568
     24 H2          2.1969   -0.5930    1.7193 H         1 <0>         0.0563
     25 H3          0.6835   -0.0046    2.4486 H         1 <0>         0.1017
     26 H4          2.2234   -2.1498    0.3154 H         1 <0>         0.1330
     27 H5          3.0465   -3.2469   -1.7279 H         1 <0>         0.1389
     28 H6          1.0865   -0.2836   -4.1062 H         1 <0>         0.1339
     29 H7          0.2573    0.8071   -2.0618 H         1 <0>         0.1372
     30 H8          2.8045   -1.9267   -4.9910 H         1 <0>         0.4095
     31 H9          3.6393   -3.8456   -6.0443 H         1 <0>         0.4130
     32 H10         1.4990   -6.0768   -4.3430 H         1 <0>         0.1468
     33 H11         1.6004   -8.5315   -4.4898 H         1 <0>         0.1464
     34 H12         5.2818   -8.2609   -6.6271 H         1 <0>         0.1475
     35 H13         5.1839   -5.8052   -6.4955 H         1 <0>         0.1372
     36 H14         3.1602  -10.2390   -8.0513 H         1 <0>         0.1311
     37 H15         2.6502  -11.7937   -7.3505 H         1 <0>         0.1328
     38 H16         1.6240  -10.3519   -7.1592 H         1 <0>         0.1313
@<TRIPOS>BOND
     1    1    2 1
     2    1   23 1
     3    1   24 1
     4    1   25 1
     5    2    3 1
     6    3    8 ar
     7    3    4 ar
     8    4    5 ar
     9    4   26 1
    10    5    6 ar
    11    5   27 1
    12    6    7 ar
    13    6    9 1
    14    7    8 ar
    15    7   28 1
    16    8   29 1
    17    9   10 am
    18    9   30 1
    19   10   11 2
    20   10   12 am
    21   12   13 1
    22   12   31 1
    23   13   18 ar
    24   13   14 ar
    25   14   15 ar
    26   14   32 1
    27   15   16 ar
    28   15   33 1
    29   16   17 ar
    30   16   19 1
    31   17   18 ar
    32   17   34 1
    33   18   35 1
    34   19   20 2
    35   19   21 2
    36   19   22 1
    37   22   36 1
    38   22   37 1
    39   22   38 1
@<TRIPOS>MOLECULE
CHEMBL42011
   38    41     0     0     0
SMALL
USER_CHARGES

@<TRIPOS>ATOM
      1 C1         -0.0225    1.8097    0.0120 C.3       1 <0>        -0.1462
      2 S1          0.0021   -0.0041    0.0020 S.3       1 <0>        -0.1119
      3 C2          0.8767   -0.4266    1.4721 C.ar      1 <0>        -0.0746
      4 C3          1.3488    0.5769    2.3120 C.ar      1 <0>        -0.1299
      5 C4          2.0334    0.2491    3.4619 C.ar      1 <0>        -0.0706
      6 C5          2.2527   -1.0912    3.7840 C.ar      1 <0>        -0.0315
      7 C6          1.7777   -2.0962    2.9400 C.ar      1 <0>        -0.0843
      8 C7          1.0891   -1.7633    1.7939 C.ar      1 <0>        -0.0986
      9 C8          2.9885   -1.4461    5.0187 C.2       1 <0>        -0.1600
     10 C9          2.4840   -2.1061    6.0783 C.2       1 <0>        -0.0281
     11 C10         1.1173   -2.5031    6.4227 C.ar      1 <0>        -0.0559
     12 C11         0.1093   -2.5878    5.4649 C.ar      1 <0>        -0.0864
     13 C12        -1.1651   -2.9551    5.8473 C.ar      1 <0>        -0.1246
     14 C13        -1.4314   -3.2349    7.1769 C.ar      1 <0>        -0.0937
     15 C14        -0.4328   -3.1565    8.1298 C.ar      1 <0>        -0.1238
     16 C15         0.8526   -2.7978    7.7697 C.ar      1 <0>        -0.0539
     17 C16         1.9292   -2.7508    8.8160 C.3       1 <0>        -0.0825
     18 C17         3.1231   -1.8872    8.4170 C.3       1 <0>        -0.1172
     19 C18         3.6377   -2.3298    7.0458 C.3       1 <0>         0.0923
     20 O1          4.7016   -1.5172    6.5647 O.3       1 <0>        -0.3094
     21 C19         4.4025   -1.1449    5.3007 C.2       1 <0>         0.5096
     22 O2          5.1801   -0.6359    4.5172 O.2       1 <0>        -0.4380
     23 H1          1.0001    2.1870    0.0043 H         1 <0>         0.0859
     24 H2         -0.5497    2.1708   -0.8711 H         1 <0>         0.1115
     25 H3         -0.5327    2.1613    0.9088 H         1 <0>         0.0853
     26 H4          1.1789    1.6138    2.0623 H         1 <0>         0.1286
     27 H5          2.4003    1.0286    4.1132 H         1 <0>         0.1276
     28 H6          1.9461   -3.1339    3.1871 H         1 <0>         0.1321
     29 H7          0.7174   -2.5406    1.1427 H         1 <0>         0.1349
     30 H8          0.3235   -2.3671    4.4296 H         1 <0>         0.1385
     31 H9         -1.9526   -3.0238    5.1114 H         1 <0>         0.1305
     32 H10        -2.4309   -3.5171    7.4731 H         1 <0>         0.1280
     33 H11        -0.6585   -3.3772    9.1627 H         1 <0>         0.1297
     34 H12         1.5036   -2.3546    9.7379 H         1 <0>         0.0929
     35 H13         2.2791   -3.7660    9.0034 H         1 <0>         0.0893
     36 H14         2.8161   -0.8424    8.3699 H         1 <0>         0.0808
     37 H15         3.9161   -1.9998    9.1563 H         1 <0>         0.0944
     38 H16         3.9221   -3.3819    7.0663 H         1 <0>         0.1292
@<TRIPOS>BOND
     1    1    2 1
     2    1   23 1
     3    1   24 1
     4    1   25 1
     5    2    3 1
     6    3    8 ar
     7    3    4 ar
     8    4    5 ar
     9    4   26 1
    10    5    6 ar
    11    5   27 1
    12    6    7 ar
    13    6    9 1
    14    7    8 ar
    15    7   28 1
    16    8   29 1
    17    9   21 1
    18    9   10 2
    19   10   19 1
    20   10   11 1
    21   11   16 ar
    22   11   12 ar
    23   12   13 ar
    24   12   30 1
    25   13   14 ar
    26   13   31 1
    27   14   15 ar
    28   14   32 1
    29   15   16 ar
    30   15   33 1
    31   16   17 1
    32   17   18 1
    33   17   34 1
    34   17   35 1
    35   18   19 1
    36   18   36 1
    37   18   37 1
    38   19   20 1
    39   19   38 1
    40   20   21 1
    41   21   22 2
@<TRIPOS>MOLECULE
CHEMBL42011__1
   38    41     0     0     0
SMALL
USER_CHARGES

@<TRIPOS>ATOM
      1 C1         -0.0225    1.8097    0.0120 C.3       1 <0>        -0.1460
      2 S1          0.0021   -0.0041    0.0020 S.3       1 <0>        -0.1129
      3 C2          0.8767   -0.4266    1.4721 C.ar      1 <0>        -0.0749
      4 C3          1.3488    0.5769    2.3120 C.ar      1 <0>        -0.1315
      5 C4          2.0334    0.2491    3.4619 C.ar      1 <0>        -0.0713
      6 C5          2.2527   -1.0912    3.7840 C.ar      1 <0>        -0.0349
      7 C6          1.7777   -2.0962    2.9400 C.ar      1 <0>        -0.0781
      8 C7          1.0891   -1.7633    1.7939 C.ar      1 <0>        -0.0988
      9 C8          2.9885   -1.4461    5.0187 C.2       1 <0>        -0.1590
     10 C9          2.4840   -2.1061    6.0783 C.2       1 <0>        -0.0280
     11 C10         1.2086   -2.7954    6.2841 C.ar      1 <0>        -0.0567
     12 C11         0.0948   -2.5415    5.4868 C.ar      1 <0>        -0.0783
     13 C12        -1.0794   -3.2296    5.7172 C.ar      1 <0>        -0.1246
     14 C13        -1.1407   -4.1655    6.7356 C.ar      1 <0>        -0.0930
     15 C14        -0.0392   -4.4164    7.5328 C.ar      1 <0>        -0.1238
     16 C15         1.1455   -3.7353    7.3252 C.ar      1 <0>        -0.0535
     17 C16         2.3197   -4.0009    8.2233 C.3       1 <0>        -0.0826
     18 C17         3.6561   -3.5933    7.6082 C.3       1 <0>        -0.1175
     19 C18         3.5784   -2.1401    7.1358 C.3       1 <0>         0.0924
     20 O1          4.7615   -1.7088    6.4738 O.3       1 <0>        -0.3091
     21 C19         4.4025   -1.1449    5.3007 C.2       1 <0>         0.5098
     22 O2          5.1341   -0.4860    4.5878 O.2       1 <0>        -0.4388
     23 H1          1.0001    2.1870    0.0043 H         1 <0>         0.0858
     24 H2         -0.5497    2.1708   -0.8711 H         1 <0>         0.1113
     25 H3         -0.5327    2.1613    0.9088 H         1 <0>         0.0852
     26 H4          1.1789    1.6138    2.0623 H         1 <0>         0.1285
     27 H5          2.4003    1.0286    4.1132 H         1 <0>         0.1282
     28 H6          1.9461   -3.1339    3.1871 H         1 <0>         0.1297
     29 H7          0.7174   -2.5406    1.1427 H         1 <0>         0.1335
     30 H8          0.1496   -1.8105    4.6937 H         1 <0>         0.1332
     31 H9         -1.9481   -3.0383    5.1047 H         1 <0>         0.1305
     32 H10        -2.0596   -4.7055    6.9097 H         1 <0>         0.1281
     33 H11        -0.1049   -5.1496    8.3230 H         1 <0>         0.1297
     34 H12         2.1803   -3.4498    9.1533 H         1 <0>         0.0891
     35 H13         2.3507   -5.0661    8.4524 H         1 <0>         0.0931
     36 H14         4.4444   -3.6910    8.3545 H         1 <0>         0.0945
     37 H15         3.8775   -4.2399    6.7591 H         1 <0>         0.0811
     38 H16         3.3283   -1.4813    7.9673 H         1 <0>         0.1292
@<TRIPOS>BOND
     1    1    2 1
     2    1   23 1
     3    1   24 1
     4    1   25 1
     5    2    3 1
     6    3    8 ar
     7    3    4 ar
     8    4    5 ar
     9    4   26 1
    10    5    6 ar
    11    5   27 1
    12    6    7 ar
    13    6    9 1
    14    7    8 ar
    15    7   28 1
    16    8   29 1
    17    9   21 1
    18    9   10 2
    19   10   19 1
    20   10   11 1
    21   11   16 ar
    22   11   12 ar
    23   12   13 ar
    24   12   30 1
    25   13   14 ar
    26   13   31 1
    27   14   15 ar
    28   14   32 1
    29   15   16 ar
    30   15   33 1
    31   16   17 1
    32   17   18 1
    33   17   34 1
    34   17   35 1
    35   18   19 1
    36   18   36 1
    37   18   37 1
    38   19   20 1
    39   19   38 1
    40   20   21 1
    41   21   22 2
@<TRIPOS>MOLECULE
CHEMBL330516
   43    45     0     0     0
SMALL
USER_CHARGES

@<TRIPOS>ATOM
      1 C1         -0.0187    1.5258    0.0104 C.3       1 <0>        -0.1362
      2 C2          0.0021   -0.0041    0.0020 C.3       1 <0>        -0.0156
      3 C3          0.7511   -0.5932   -1.1738 C.2       1 <0>        -0.0537
      4 C4          1.7023   -1.1182   -0.3434 C.2       1 <0>        -0.0230
      5 C5          1.0732   -0.6000    0.8891 C.2       1 <0>         0.1474
      6 N1          1.3258   -0.6382    2.1597 N.2       1 <0>        -0.2937
      7 O1          0.4557    0.0034    3.0742 O.3       1 <0>        -0.3984
      8 C6          2.9235   -1.9189   -0.5904 C.ar      1 <0>        -0.0410
      9 C7          2.8226   -3.2034   -1.1250 C.ar      1 <0>        -0.0962
     10 C8          3.9640   -3.9443   -1.3528 C.ar      1 <0>        -0.1192
     11 C9          5.2067   -3.4158   -1.0522 C.ar      1 <0>        -0.1100
     12 C10         5.3134   -2.1426   -0.5214 C.ar      1 <0>        -0.1187
     13 C11         4.1798   -1.3894   -0.2948 C.ar      1 <0>        -0.0923
     14 C12         0.5405   -0.5984   -2.6282 C.ar      1 <0>         0.0307
     15 C13         0.6064    0.5970   -3.3529 C.ar      1 <0>        -0.1175
     16 C14         0.4080    0.5833   -4.7171 C.ar      1 <0>        -0.0208
     17 C15         0.1444   -0.6084   -5.3701 C.ar      1 <0>        -0.6556
     18 C16         0.0771   -1.7950   -4.6606 C.ar      1 <0>        -0.0203
     19 C17         0.2787   -1.7996   -3.2968 C.ar      1 <0>        -0.1170
     20 S1         -0.1076   -0.6147   -7.1140 S.o2      1 <0>         2.4988
     21 O2         -0.9202   -1.7544   -7.3588 O.2       1 <0>        -0.9355
     22 O3         -0.5804    0.6907   -7.4167 O.2       1 <0>        -0.9356
     23 C18         1.5440   -0.8610   -7.8227 C.3       1 <0>        -0.6501
     24 C19        -1.3828   -0.6177    0.2176 C.3       1 <0>        -0.1344
     25 H1          1.0039    1.9031    0.0027 H         1 <0>         0.0613
     26 H2         -0.5459    1.8868   -0.8726 H         1 <0>         0.0720
     27 H3         -0.5289    1.8773    0.9072 H         1 <0>         0.0717
     28 H4          0.7262   -0.0797    3.9988 H         1 <0>         0.4075
     29 H5          1.8530   -3.6172   -1.3598 H         1 <0>         0.1231
     30 H6          3.8871   -4.9391   -1.7664 H         1 <0>         0.1273
     31 H7          6.0973   -3.9997   -1.2323 H         1 <0>         0.1253
     32 H8          6.2863   -1.7356   -0.2885 H         1 <0>         0.1268
     33 H9          4.2646   -0.3937    0.1148 H         1 <0>         0.1230
     34 H10         0.8116    1.5276   -2.8448 H         1 <0>         0.1377
     35 H11         0.4582    1.5050   -5.2778 H         1 <0>         0.1475
     36 H12        -0.1298   -2.7205   -5.1775 H         1 <0>         0.1474
     37 H13         0.2303   -2.7269   -2.7453 H         1 <0>         0.1357
     38 H14         1.9528   -1.8082   -7.4709 H         1 <0>         0.1321
     39 H15         1.4739   -0.8770   -8.9103 H         1 <0>         0.1342
     40 H16         2.1977   -0.0457   -7.5127 H         1 <0>         0.1321
     41 H17        -2.0026   -0.4332   -0.6598 H         1 <0>         0.0713
     42 H18        -1.2839   -1.6921    0.3732 H         1 <0>         0.0608
     43 H19        -1.8484   -0.1652    1.0931 H         1 <0>         0.0712
@<TRIPOS>BOND
     1    1    2 1
     2    1   25 1
     3    1   26 1
     4    1   27 1
     5    2    5 1
     6    2    3 1
     7    2   24 1
     8    3    4 2
     9    3   14 1
    10    4    5 1
    11    4    8 1
    12    5    6 2
    13    6    7 1
    14    7   28 1
    15    8   13 ar
    16    8    9 ar
    17    9   10 ar
    18    9   29 1
    19   10   11 ar
    20   10   30 1
    21   11   12 ar
    22   11   31 1
    23   12   13 ar
    24   12   32 1
    25   13   33 1
    26   14   19 ar
    27   14   15 ar
    28   15   16 ar
    29   15   34 1
    30   16   17 ar
    31   16   35 1
    32   17   18 ar
    33   17   20 1
    34   18   19 ar
    35   18   36 1
    36   19   37 1
    37   20   21 2
    38   20   22 2
    39   20   23 1
    40   23   38 1
    41   23   39 1
    42   23   40 1
    43   24   41 1
    44   24   42 1
    45   24   43 1
@<TRIPOS>MOLECULE
CHEMBL276800
   52    53     0     0     0
SMALL
USER_CHARGES

@<TRIPOS>ATOM
      1 C1         -1.0851    1.2835    0.8493 C.3       1 <0>        -0.1542
      2 C2         -0.8769   -0.2306    0.7785 C.3       1 <0>        -0.1249
      3 C3          0.1154   -0.6602    1.8609 C.3       1 <0>        -0.1122
      4 C4          0.3235   -2.1743    1.7901 C.3       1 <0>        -0.1668
      5 C5          1.3010   -2.5974    2.8562 C.2       1 <0>         0.3969
      6 O1          1.7838   -1.7692    3.5997 O.2       1 <0>        -0.4527
      7 C6          1.6687   -4.0107    2.9950 C.ar      1 <0>        -0.1730
      8 C7          2.5699   -4.4073    3.9856 C.ar      1 <0>        -0.0513
      9 C8          2.9217   -5.7303    4.1325 C.ar      1 <0>        -0.0805
     10 C9          2.3586   -6.6732    3.2843 C.ar      1 <0>        -0.0442
     11 C10         1.4638   -6.2782    2.2831 C.ar      1 <0>        -0.0654
     12 C11         1.1129   -4.9703    2.1378 C.ar      1 <0>        -0.0641
     13 C12         0.8767   -7.3136    1.3587 C.3       1 <0>        -0.0297
     14 C13        -0.0319   -6.6279    0.3364 C.3       1 <0>        -0.1459
     15 C14         2.0055   -8.0442    0.6287 C.3       1 <0>        -0.1576
     16 C15         0.0606   -8.3197    2.1726 C.3       1 <0>        -0.1499
     17 S1          2.7202   -8.3951    3.4334 S.3       1 <0>        -0.0726
     18 C16         4.1540   -8.4275    4.5492 C.3       1 <0>        -0.1451
     19 C17         3.8447   -7.4740    5.7126 C.3       1 <0>        -0.1104
     20 C18         3.9150   -6.0418    5.2130 C.3       1 <0>        -0.0289
     21 C19         3.6658   -5.0998    6.3926 C.3       1 <0>        -0.1448
     22 C20         5.3226   -5.7808    4.6731 C.3       1 <0>        -0.1448
     23 H1         -0.1326    1.7890    0.6903 H         1 <0>         0.0544
     24 H2         -1.7920    1.5895    0.0782 H         1 <0>         0.0547
     25 H3         -1.4789    1.5507    1.8300 H         1 <0>         0.0545
     26 H4         -1.8294   -0.7361    0.9376 H         1 <0>         0.0622
     27 H5         -0.4832   -0.4978   -0.2021 H         1 <0>         0.0622
     28 H6          1.0679   -0.1547    1.7019 H         1 <0>         0.0682
     29 H7         -0.2784   -0.3930    2.8416 H         1 <0>         0.0682
     30 H8         -0.6290   -2.6798    1.9492 H         1 <0>         0.0990
     31 H9          0.7173   -2.4415    0.8094 H         1 <0>         0.0990
     32 H10         2.9968   -3.6661    4.6451 H         1 <0>         0.1375
     33 H11         0.4167   -4.6749    1.3668 H         1 <0>         0.1414
     34 H12         0.5495   -5.9111   -0.2434 H         1 <0>         0.0597
     35 H13        -0.4566   -7.3768   -0.3322 H         1 <0>         0.0631
     36 H14        -0.8361   -6.1074    0.8565 H         1 <0>         0.0593
     37 H15         2.5670   -8.6490    1.3407 H         1 <0>         0.0856
     38 H16         1.5825   -8.6890   -0.1416 H         1 <0>         0.0603
     39 H17         2.6713   -7.3151    0.1669 H         1 <0>         0.0551
     40 H18        -0.7883   -7.8127    2.6312 H         1 <0>         0.0575
     41 H19        -0.3004   -9.1109    1.5155 H         1 <0>         0.0637
     42 H20         0.6891   -8.7525    2.9510 H         1 <0>         0.0750
     43 H21         4.3069   -9.4380    4.9280 H         1 <0>         0.1107
     44 H22         5.0446   -8.0899    4.0191 H         1 <0>         0.0966
     45 H23         2.8446   -7.6780    6.0950 H         1 <0>         0.0779
     46 H24         4.5766   -7.6192    6.5071 H         1 <0>         0.0842
     47 H25         2.6183   -5.1573    6.6885 H         1 <0>         0.0602
     48 H26         4.2969   -5.3931    7.2314 H         1 <0>         0.0638
     49 H27         3.9046   -4.0778    6.0981 H         1 <0>         0.0641
     50 H28         5.4107   -4.7350    4.3788 H         1 <0>         0.0606
     51 H29         6.0560   -6.0031    5.4482 H         1 <0>         0.0650
     52 H30         5.5038   -6.4183    3.8078 H         1 <0>         0.0584
@<TRIPOS>BOND
     1    1    2 1
     2    1   23 1
     3    1   24 1
     4    1   25 1
     5    2    3 1
     6    2   26 1
     7    2   27 1
     8    3    4 1
     9    3   28 1
    10    3   29 1
    11    4    5 1
    12    4   30 1
    13    4   31 1
    14    5    6 2
    15    5    7 1
    16    7   12 ar
    17    7    8 ar
    18    8    9 ar
    19    8   32 1
    20    9   20 1
    21    9   10 ar
    22   10   11 ar
    23   10   17 1
    24   11   12 ar
    25   11   13 1
    26   12   33 1
    27   13   14 1
    28   13   15 1
    29   13   16 1
    30   14   34 1
    31   14   35 1
    32   14   36 1
    33   15   37 1
    34   15   38 1
    35   15   39 1
    36   16   40 1
    37   16   41 1
    38   16   42 1
    39   17   18 1
    40   18   19 1
    41   18   43 1
    42   18   44 1
    43   19   20 1
    44   19   45 1
    45   19   46 1
    46   20   21 1
    47   20   22 1
    48   21   47 1
    49   21   48 1
    50   21   49 1
    51   22   50 1
    52   22   51 1
    53   22   52 1
@<TRIPOS>MOLECULE
CHEMBL14767
   46    47     0     0     0
SMALL
USER_CHARGES

@<TRIPOS>ATOM
      1 C1         -0.0187    1.5258    0.0104 C.3       1 <0>        -0.1537
      2 C2          0.0021   -0.0041    0.0020 C.3       1 <0>        -0.1166
      3 C3         -1.4333   -0.5336    0.0129 C.3       1 <0>        -0.1668
      4 C4         -1.4129   -2.0405    0.0046 C.2       1 <0>         0.3966
      5 O1         -0.3541   -2.6327   -0.0087 O.2       1 <0>        -0.4518
      6 C5         -2.6732   -2.7912    0.0126 C.ar      1 <0>        -0.1715
      7 C6         -2.6488   -4.1864    0.0106 C.ar      1 <0>        -0.0370
      8 C7         -3.8199   -4.9184    0.0148 C.ar      1 <0>        -0.1074
      9 C8         -5.0218   -4.2052    0.0089 C.ar      1 <0>        -0.0374
     10 C9         -5.0569   -2.8187    0.0211 C.ar      1 <0>        -0.0505
     11 C10        -3.8935   -2.1024    0.0279 C.ar      1 <0>        -0.0575
     12 C11        -6.3817   -2.1005    0.0331 C.3       1 <0>        -0.0281
     13 C12        -6.1426   -0.5894    0.0452 C.3       1 <0>        -0.1471
     14 C13        -7.1793   -2.4807   -1.2160 C.3       1 <0>        -0.1494
     15 C14        -7.1684   -2.5024    1.2824 C.3       1 <0>        -0.1439
     16 S1         -6.3263   -5.4151   -0.0341 S.3       1 <0>        -0.1299
     17 C15        -5.3216   -6.8963   -0.4628 C.3       1 <0>        -0.0848
     18 C16        -3.9378   -6.4227    0.0353 C.3       1 <0>        -0.0300
     19 C17        -3.7257   -6.9202    1.4665 C.3       1 <0>        -0.1400
     20 C18        -2.8530   -7.0203   -0.8631 C.3       1 <0>        -0.1412
     21 H1          1.0039    1.9031    0.0027 H         1 <0>         0.0580
     22 H2         -0.5459    1.8868   -0.8726 H         1 <0>         0.0553
     23 H3         -0.5289    1.8773    0.9072 H         1 <0>         0.0553
     24 H4          0.5123   -0.3556   -0.8948 H         1 <0>         0.0680
     25 H5          0.5293   -0.3651    0.8851 H         1 <0>         0.0680
     26 H6         -1.9435   -0.1821    0.9097 H         1 <0>         0.0997
     27 H7         -1.9605   -0.1726   -0.8702 H         1 <0>         0.0997
     28 H8         -1.6997   -4.7016    0.0054 H         1 <0>         0.1328
     29 H9         -3.9139   -1.0227    0.0409 H         1 <0>         0.1456
     30 H10        -5.5822   -0.3031   -0.8447 H         1 <0>         0.0604
     31 H11        -7.1008   -0.0699    0.0539 H         1 <0>         0.0638
     32 H12        -5.5744   -0.3186    0.9351 H         1 <0>         0.0601
     33 H13        -7.3497   -3.5572   -1.2246 H         1 <0>         0.0717
     34 H14        -8.1375   -1.9612   -1.2073 H         1 <0>         0.0615
     35 H15        -6.6189   -2.1944   -2.1060 H         1 <0>         0.0561
     36 H16        -6.6002   -2.2316    2.1723 H         1 <0>         0.0571
     37 H17        -8.1266   -1.9830    1.2911 H         1 <0>         0.0630
     38 H18        -7.3388   -3.5790    1.2737 H         1 <0>         0.0639
     39 H19        -5.6599   -7.7772    0.0827 H         1 <0>         0.1189
     40 H20        -5.3168   -7.0755   -1.5379 H         1 <0>         0.1027
     41 H21        -4.4821   -6.4836    2.1188 H         1 <0>         0.0642
     42 H22        -3.8094   -8.0068    1.4896 H         1 <0>         0.0671
     43 H23        -2.7347   -6.6247    1.8108 H         1 <0>         0.0633
     44 H24        -1.8713   -6.7238   -0.4937 H         1 <0>         0.0645
     45 H25        -2.9316   -8.1075   -0.8535 H         1 <0>         0.0669
     46 H26        -2.9833   -6.6555   -1.8819 H         1 <0>         0.0607
@<TRIPOS>BOND
     1    1    2 1
     2    1   21 1
     3    1   22 1
     4    1   23 1
     5    2    3 1
     6    2   24 1
     7    2   25 1
     8    3    4 1
     9    3   26 1
    10    3   27 1
    11    4    5 2
    12    4    6 1
    13    6   11 ar
    14    6    7 ar
    15    7    8 ar
    16    7   28 1
    17    8   18 1
    18    8    9 ar
    19    9   10 ar
    20    9   16 1
    21   10   11 ar
    22   10   12 1
    23   11   29 1
    24   12   13 1
    25   12   14 1
    26   12   15 1
    27   13   30 1
    28   13   31 1
    29   13   32 1
    30   14   33 1
    31   14   34 1
    32   14   35 1
    33   15   36 1
    34   15   37 1
    35   15   38 1
    36   16   17 1
    37   17   18 1
    38   17   39 1
    39   17   40 1
    40   18   19 1
    41   18   20 1
    42   19   41 1
    43   19   42 1
    44   19   43 1
    45   20   44 1
    46   20   45 1
    47   20   46 1
@<TRIPOS>MOLECULE
CHEMBL558230
   50    53     0     0     0
SMALL
USER_CHARGES

@<TRIPOS>ATOM
      1 C1         -0.0178    1.4608    0.0101 C.3       1 <0>         0.0734
      2 N1          0.0021   -0.0041    0.0020 N.pl3     1 <0>        -0.4428
      3 C2          0.0082   -0.7923   -1.1104 C.2       1 <0>        -0.0098
      4 C3          0.0273   -2.0811   -0.7139 C.2       1 <0>        -0.2021
      5 C4          0.0332   -2.0887    0.6950 C.2       1 <0>        -0.1762
      6 C5          0.0234   -0.8043    1.1057 C.2       1 <0>         0.0092
      7 C6          0.0306   -0.3345    2.5376 C.3       1 <0>         0.0178
      8 C7          1.4501   -0.2763    3.0401 C.ar      1 <0>         0.3416
      9 N2          1.9702   -1.3475    3.6073 N.ar      1 <0>        -0.5046
     10 C8          3.2113   -1.3463    4.0640 C.ar      1 <0>         0.1793
     11 C9          3.9776   -0.1867    3.9397 C.ar      1 <0>        -0.1655
     12 C10         3.3863    0.9354    3.3284 C.ar      1 <0>         0.2416
     13 N3          2.1318    0.8404    2.8936 N.ar      1 <0>        -0.5056
     14 C11         4.1475    2.1955    3.1670 C.ar      1 <0>        -0.0749
     15 C12         5.0674    2.5867    4.1398 C.ar      1 <0>        -0.0565
     16 C13         5.7742    3.7608    3.9848 C.ar      1 <0>        -0.1586
     17 C14         5.5714    4.5517    2.8649 C.ar      1 <0>         0.1232
     18 C15         4.6585    4.1672    1.8956 C.ar      1 <0>        -0.1590
     19 C16         3.9511    2.9919    2.0388 C.ar      1 <0>        -0.0412
     20 F1          6.2655    5.7014    2.7179 F         1 <0>        -0.1326
     21 C17         5.3732   -0.1376    4.4372 C.ar      1 <0>         0.0142
     22 C18         6.3930    0.3379    3.6142 C.ar      1 <0>        -0.1170
     23 C19         7.6903    0.3817    4.0828 C.ar      1 <0>        -0.0194
     24 C20         7.9796   -0.0449    5.3665 C.ar      1 <0>        -0.6559
     25 C21         6.9719   -0.5181    6.1875 C.ar      1 <0>        -0.0167
     26 C22         5.6700   -0.5612    5.7317 C.ar      1 <0>        -0.1286
     27 S1          9.6384    0.0141    5.9579 S.o2      1 <0>         2.4973
     28 O1          9.7035   -0.9952    6.9561 O.2       1 <0>        -0.9347
     29 O2         10.4430   -0.0695    4.7897 O.2       1 <0>        -0.9344
     30 C23         9.8051    1.6538    6.7155 C.3       1 <0>        -0.6508
     31 H1          1.0048    1.8381    0.0023 H         1 <0>         0.0714
     32 H2         -0.5450    1.8219   -0.8730 H         1 <0>         0.0824
     33 H3         -0.5280    1.8123    0.9069 H         1 <0>         0.0838
     34 H4         -0.0011   -0.4446   -2.1329 H         1 <0>         0.1619
     35 H5          0.0364   -2.9480   -1.3579 H         1 <0>         0.1362
     36 H6          0.0477   -2.9626    1.3294 H         1 <0>         0.1373
     37 H7         -0.4168    0.6577    2.5967 H         1 <0>         0.0968
     38 H8         -0.5437   -1.0291    3.1507 H         1 <0>         0.1150
     39 H9          3.6256   -2.2298    4.5269 H         1 <0>         0.1760
     40 H10         5.2256    1.9714    5.0132 H         1 <0>         0.1388
     41 H11         6.4867    4.0646    4.7375 H         1 <0>         0.1423
     42 H12         4.5039    4.7868    1.0246 H         1 <0>         0.1431
     43 H13         3.2429    2.6911    1.2810 H         1 <0>         0.1389
     44 H14         6.1684    0.6709    2.6117 H         1 <0>         0.1333
     45 H15         8.4813    0.7496    3.4460 H         1 <0>         0.1466
     46 H16         7.2037   -0.8506    7.1886 H         1 <0>         0.1483
     47 H17         4.8833   -0.9267    6.3751 H         1 <0>         0.1380
     48 H18         9.0840    1.7543    7.5267 H         1 <0>         0.1324
     49 H19        10.8144    1.7708    7.1101 H         1 <0>         0.1348
     50 H20         9.6171    2.4216    5.9650 H         1 <0>         0.1321
@<TRIPOS>BOND
     1    1    2 1
     2    1   31 1
     3    1   32 1
     4    1   33 1
     5    2    6 1
     6    2    3 1
     7    3    4 2
     8    3   34 1
     9    4    5 1
    10    4   35 1
    11    5    6 2
    12    5   36 1
    13    6    7 1
    14    7    8 1
    15    7   37 1
    16    7   38 1
    17    8   13 ar
    18    8    9 ar
    19    9   10 ar
    20   10   11 ar
    21   10   39 1
    22   11   12 ar
    23   11   21 1
    24   12   13 ar
    25   12   14 1
    26   14   19 ar
    27   14   15 ar
    28   15   16 ar
    29   15   40 1
    30   16   17 ar
    31   16   41 1
    32   17   18 ar
    33   17   20 1
    34   18   19 ar
    35   18   42 1
    36   19   43 1
    37   21   26 ar
    38   21   22 ar
    39   22   23 ar
    40   22   44 1
    41   23   24 ar
    42   23   45 1
    43   24   25 ar
    44   24   27 1
    45   25   26 ar
    46   25   46 1
    47   26   47 1
    48   27   28 2
    49   27   29 2
    50   27   30 1
    51   30   48 1
    52   30   49 1
    53   30   50 1
@<TRIPOS>MOLECULE
CHEMBL293617
   40    44     0     0     0
SMALL
USER_CHARGES

@<TRIPOS>ATOM
      1 C1         -0.0397    1.3919    0.0638 C.ar      1 <0>        -0.1131
      2 C2          1.1460    2.1027    0.0626 C.ar      1 <0>        -0.0935
      3 C3          2.3581    1.4390    0.0445 C.ar      1 <0>        -0.1106
      4 C4          2.3936    0.0520    0.0273 C.ar      1 <0>         0.0990
      5 C5          1.1949   -0.6605    0.0272 C.ar      1 <0>         0.0871
      6 C6         -0.0161    0.0088    0.0455 C.ar      1 <0>        -0.1044
      7 N1          1.2283   -2.0687    0.0079 N.am      1 <0>        -0.4908
      8 C7          2.4867   -2.6563   -0.0048 C.ar      1 <0>         0.0426
      9 C8          2.4440   -4.0287   -0.0202 C.ar      1 <0>        -0.0741
     10 C9          3.6327   -4.7258   -0.0323 C.ar      1 <0>        -0.0623
     11 C10         4.8301   -4.0254   -0.0292 C.ar      1 <0>        -0.0938
     12 C11         4.8583   -2.6392   -0.0149 C.ar      1 <0>        -0.0964
     13 C12         3.6644   -1.9355   -0.0030 C.ar      1 <0>         0.1084
     14 O1          3.6016   -0.5800    0.0105 O.3       1 <0>        -0.2389
     15 C13         0.9747   -4.3696   -0.0194 C.3       1 <0>        -0.0904
     16 C14         0.2748   -3.0205   -0.0008 C.2       1 <0>         0.5431
     17 O2         -0.9240   -2.8347    0.0049 O.2       1 <0>        -0.4732
     18 C15         0.6192   -5.1645    1.2106 C.2       1 <0>         0.5413
     19 O3          1.4758   -5.4376    2.0248 O.2       1 <0>        -0.4890
     20 N2         -0.6506   -5.5719    1.4059 N.am      1 <0>        -0.6603
     21 C16        -0.9637   -6.3893    2.5004 C.ar      1 <0>         0.1025
     22 C17        -0.2908   -6.2279    3.7035 C.ar      1 <0>        -0.0649
     23 C18        -0.6007   -7.0345    4.7813 C.ar      1 <0>        -0.1412
     24 C19        -1.5821   -8.0043    4.6632 C.ar      1 <0>         0.1206
     25 C20        -2.2553   -8.1687    3.4645 C.ar      1 <0>        -0.1718
     26 C21        -1.9529   -7.3594    2.3845 C.ar      1 <0>         0.1097
     27 F1         -2.6137   -7.5154    1.2164 F         1 <0>        -0.1256
     28 F2         -1.8829   -8.7916    5.7191 F         1 <0>        -0.1278
     29 H1         -0.9838    1.9159    0.0835 H         1 <0>         0.1396
     30 H2          1.1249    3.1824    0.0755 H         1 <0>         0.1423
     31 H3          3.2801    2.0015    0.0434 H         1 <0>         0.1469
     32 H4         -0.9416   -0.5478    0.0452 H         1 <0>         0.1466
     33 H5          3.6321   -5.8057   -0.0437 H         1 <0>         0.1424
     34 H6          5.7614   -4.5722   -0.0377 H         1 <0>         0.1471
     35 H7          5.8014   -2.1129   -0.0128 H         1 <0>         0.1502
     36 H8          0.7115   -4.9229   -0.9209 H         1 <0>         0.1652
     37 H9         -1.3477   -5.2993    0.7890 H         1 <0>         0.4230
     38 H10         0.4751   -5.4722    3.7969 H         1 <0>         0.1591
     39 H11        -0.0766   -6.9088    5.7172 H         1 <0>         0.1497
     40 H12        -3.0201   -8.9258    3.3744 H         1 <0>         0.1558
@<TRIPOS>BOND
     1    1    6 ar
     2    1    2 ar
     3    1   29 1
     4    2    3 ar
     5    2   30 1
     6    3    4 ar
     7    3   31 1
     8    4   14 1
     9    4    5 ar
    10    5    6 ar
    11    5    7 1
    12    6   32 1
    13    7   16 am
    14    7    8 1
    15    8   13 ar
    16    8    9 ar
    17    9   10 ar
    18    9   15 1
    19   10   11 ar
    20   10   33 1
    21   11   12 ar
    22   11   34 1
    23   12   13 ar
    24   12   35 1
    25   13   14 1
    26   15   16 1
    27   15   18 1
    28   15   36 1
    29   16   17 2
    30   18   19 2
    31   18   20 am
    32   20   21 1
    33   20   37 1
    34   21   26 ar
    35   21   22 ar
    36   22   23 ar
    37   22   38 1
    38   23   24 ar
    39   23   39 1
    40   24   25 ar
    41   24   28 1
    42   25   26 ar
    43   25   40 1
    44   26   27 1
@<TRIPOS>MOLECULE
CHEMBL293617__1
   39    43     0     0     0
SMALL
USER_CHARGES

@<TRIPOS>ATOM
      1 C1         -0.0798    1.3786    0.0090 C.ar      1 <0>        -0.1192
      2 C2          1.1027    2.0947    0.0030 C.ar      1 <0>        -0.1196
      3 C3          2.3174    1.4363   -0.0107 C.ar      1 <0>        -0.1202
      4 C4          2.3603    0.0492   -0.0187 C.ar      1 <0>         0.0847
      5 C5          1.1635   -0.6691   -0.0124 C.ar      1 <0>         0.1219
      6 C6         -0.0499   -0.0043    0.0016 C.ar      1 <0>        -0.1134
      7 N1          1.2055   -2.0750   -0.0222 N.pl3     1 <0>        -0.4609
      8 C7          2.4611   -2.6389   -0.0373 C.ar      1 <0>        -0.0291
      9 C8          2.3843   -4.0226   -0.0464 C.ar      1 <0>         0.0449
     10 C9          3.5832   -4.7344   -0.0614 C.ar      1 <0>        -0.1464
     11 C10         4.7772   -4.0383   -0.0665 C.ar      1 <0>        -0.0929
     12 C11         4.8235   -2.6478   -0.0571 C.ar      1 <0>        -0.1754
     13 C12         3.6411   -1.9286   -0.0426 C.ar      1 <0>         0.1186
     14 O1          3.5752   -0.5730   -0.0321 O.3       1 <0>        -0.2504
     15 C13         0.9402   -4.3097   -0.0357 C.2       1 <0>        -0.4439
     16 C14         0.2887   -3.0762   -0.0212 C.2       1 <0>         0.4932
     17 O2         -1.0523   -2.9040   -0.0086 O.3       1 <0>        -0.6751
     18 C15         0.3117   -5.6299   -0.0394 C.2       1 <0>         0.6509
     19 O3          0.0592   -6.1870    1.0135 O.2       1 <0>        -0.5348
     20 N2          0.0117   -6.2301   -1.2083 N.am      1 <0>        -0.6689
     21 C16        -0.5040   -7.5328   -1.2148 C.ar      1 <0>         0.1286
     22 C17        -1.3504   -7.9504   -0.1971 C.ar      1 <0>        -0.0719
     23 C18        -1.8583   -9.2351   -0.2053 C.ar      1 <0>        -0.1401
     24 C19        -1.5241  -10.1072   -1.2277 C.ar      1 <0>         0.0958
     25 C20        -0.6797   -9.6945   -2.2445 C.ar      1 <0>        -0.1720
     26 C21        -0.1732   -8.4075   -2.2437 C.ar      1 <0>         0.0898
     27 F1          0.6459   -8.0024   -3.2388 F         1 <0>        -0.1301
     28 F2         -2.0224  -11.3629   -1.2329 F         1 <0>        -0.1380
     29 H1         -1.0263    1.8985    0.0241 H         1 <0>         0.1287
     30 H2          1.0769    3.1744    0.0087 H         1 <0>         0.1300
     31 H3          3.2367    2.0031   -0.0156 H         1 <0>         0.1353
     32 H4         -0.9730   -0.5648    0.0066 H         1 <0>         0.1502
     33 H5          3.5789   -5.8143   -0.0685 H         1 <0>         0.1166
     34 H6          5.7046   -4.5917   -0.0779 H         1 <0>         0.1203
     35 H7          5.7735   -2.1342   -0.0614 H         1 <0>         0.1257
     36 H8          0.1528   -5.7601   -2.0450 H         1 <0>         0.4140
     37 H9         -1.6115   -7.2714    0.6011 H         1 <0>         0.1626
     38 H10        -2.5166   -9.5598    0.5869 H         1 <0>         0.1430
     39 H11        -0.4197  -10.3764   -3.0405 H         1 <0>         0.1472
@<TRIPOS>BOND
     1    1    6 ar
     2    1    2 ar
     3    1   29 1
     4    2    3 ar
     5    2   30 1
     6    3    4 ar
     7    3   31 1
     8    4   14 1
     9    4    5 ar
    10    5    6 ar
    11    5    7 1
    12    6   32 1
    13    7   16 1
    14    7    8 1
    15    8   13 ar
    16    8    9 ar
    17    9   10 ar
    18    9   15 1
    19   10   11 ar
    20   10   33 1
    21   11   12 ar
    22   11   34 1
    23   12   13 ar
    24   12   35 1
    25   13   14 1
    26   15   16 2
    27   15   18 1
    28   16   17 1
    29   18   19 2
    30   18   20 am
    31   20   21 1
    32   20   36 1
    33   21   26 ar
    34   21   22 ar
    35   22   23 ar
    36   22   37 1
    37   23   24 ar
    38   23   38 1
    39   24   25 ar
    40   24   28 1
    41   25   26 ar
    42   25   39 1
    43   26   27 1
@<TRIPOS>MOLECULE
CHEMBL293617__2
   40    44     0     0     0
SMALL
USER_CHARGES

@<TRIPOS>ATOM
      1 C1          0.0122    1.3655    0.0600 C.ar      1 <0>        -0.1129
      2 C2          1.2032    2.0673    0.0577 C.ar      1 <0>        -0.0938
      3 C3          2.4102    1.3944    0.0391 C.ar      1 <0>        -0.1106
      4 C4          2.4351    0.0071    0.0226 C.ar      1 <0>         0.0985
      5 C5          1.2310   -0.6962    0.0235 C.ar      1 <0>         0.0875
      6 C6          0.0251   -0.0177    0.0424 C.ar      1 <0>        -0.1044
      7 N1          1.2537   -2.1046    0.0049 N.am      1 <0>        -0.4917
      8 C7          2.5075   -2.7018   -0.0084 C.ar      1 <0>         0.0434
      9 C8          2.4544   -4.0738   -0.0231 C.ar      1 <0>        -0.0748
     10 C9          3.6377   -4.7800   -0.0356 C.ar      1 <0>        -0.0627
     11 C10         4.8404   -4.0888   -0.0336 C.ar      1 <0>        -0.0944
     12 C11         4.8792   -2.7028   -0.0200 C.ar      1 <0>        -0.0965
     13 C12         3.6907   -1.9901   -0.0076 C.ar      1 <0>         0.1083
     14 O1          3.6382   -0.6341    0.0053 O.3       1 <0>        -0.2390
     15 C13         0.9825   -4.4036   -0.0212 C.3       1 <0>        -0.0901
     16 C14         0.2929   -3.0492   -0.0027 C.2       1 <0>         0.5426
     17 O2         -0.9044   -2.8542    0.0036 O.2       1 <0>        -0.4700
     18 C15         0.6120   -5.1663   -1.2670 C.2       1 <0>         0.5411
     19 O3          1.4606   -5.4265   -2.0937 O.2       1 <0>        -0.4891
     20 N2         -0.6623   -5.5594   -1.4625 N.am      1 <0>        -0.6594
     21 C16        -1.0261   -6.1859   -2.6622 C.ar      1 <0>         0.1005
     22 C17        -0.1298   -7.0272   -3.3066 C.ar      1 <0>        -0.0646
     23 C18        -0.4900   -7.6439   -4.4891 C.ar      1 <0>        -0.1425
     24 C19        -1.7445   -7.4240   -5.0327 C.ar      1 <0>         0.1206
     25 C20        -2.6412   -6.5851   -4.3931 C.ar      1 <0>        -0.1731
     26 C21        -2.2874   -5.9702   -3.2058 C.ar      1 <0>         0.1101
     27 F1         -3.1642   -5.1562   -2.5781 F         1 <0>        -0.1237
     28 F2         -2.0937   -8.0286   -6.1892 F         1 <0>        -0.1280
     29 H1         -0.9279    1.8968    0.0801 H         1 <0>         0.1396
     30 H2          1.1904    3.1471    0.0701 H         1 <0>         0.1423
     31 H3          3.3365    1.9498    0.0372 H         1 <0>         0.1468
     32 H4         -0.9046   -0.5672    0.0429 H         1 <0>         0.1467
     33 H5          3.6288   -5.8599   -0.0465 H         1 <0>         0.1425
     34 H6          5.7675   -4.6427   -0.0424 H         1 <0>         0.1470
     35 H7          5.8263   -2.1838   -0.0187 H         1 <0>         0.1501
     36 H8          0.7215   -4.9761    0.8689 H         1 <0>         0.1649
     37 H9         -1.3276   -5.4086   -0.7729 H         1 <0>         0.4223
     38 H10         0.8490   -7.1993   -2.8839 H         1 <0>         0.1615
     39 H11         0.2079   -8.2982   -4.9904 H         1 <0>         0.1500
     40 H12        -3.6189   -6.4146   -4.8189 H         1 <0>         0.1553
@<TRIPOS>BOND
     1    1    6 ar
     2    1    2 ar
     3    1   29 1
     4    2    3 ar
     5    2   30 1
     6    3    4 ar
     7    3   31 1
     8    4   14 1
     9    4    5 ar
    10    5    6 ar
    11    5    7 1
    12    6   32 1
    13    7   16 am
    14    7    8 1
    15    8   13 ar
    16    8    9 ar
    17    9   10 ar
    18    9   15 1
    19   10   11 ar
    20   10   33 1
    21   11   12 ar
    22   11   34 1
    23   12   13 ar
    24   12   35 1
    25   13   14 1
    26   15   16 1
    27   15   18 1
    28   15   36 1
    29   16   17 2
    30   18   19 2
    31   18   20 am
    32   20   21 1
    33   20   37 1
    34   21   26 ar
    35   21   22 ar
    36   22   23 ar
    37   22   38 1
    38   23   24 ar
    39   23   39 1
    40   24   25 ar
    41   24   28 1
    42   25   26 ar
    43   25   40 1
    44   26   27 1
@<TRIPOS>MOLECULE
CHEMBL550737
   43    45     0     0     0
SMALL
USER_CHARGES

@<TRIPOS>ATOM
      1 C1         -2.4505   -1.2689   -1.5523 C.3       1 <0>        -0.1170
      2 C2         -1.1792   -1.3305   -0.7455 C.ar      1 <0>        -0.0693
      3 C3         -0.0423   -0.6857   -1.1972 C.ar      1 <0>        -0.1087
      4 C4          1.1255   -0.7403   -0.4594 C.ar      1 <0>        -0.0998
      5 C5          1.1595   -1.4396    0.7316 C.ar      1 <0>        -0.1121
      6 C6          0.0203   -2.0870    1.1872 C.ar      1 <0>         0.0860
      7 C7         -1.1521   -2.0262    0.4474 C.ar      1 <0>        -0.1128
      8 O1          0.0512   -2.7756    2.3585 O.3       1 <0>        -0.2163
      9 C8         -0.0354   -4.1264    2.3046 C.ar      1 <0>         0.5186
     10 N1         -0.1291   -4.8109    3.4319 N.ar      1 <0>        -0.4893
     11 C9         -0.2162   -6.1390    3.4136 C.ar      1 <0>         0.2625
     12 C10        -0.2072   -6.8009    2.1828 C.ar      1 <0>        -0.2053
     13 C11        -0.1076   -6.0440    1.0292 C.ar      1 <0>         0.1356
     14 N2         -0.0295   -4.7258    1.1247 N.ar      1 <0>        -0.5170
     15 C12        -0.0933   -6.7122   -0.3215 C.3       1 <0>         0.5264
     16 F1         -1.4038   -6.8325   -0.7961 F         1 <0>        -0.1611
     17 F2          0.6575   -5.9412   -1.2153 F         1 <0>        -0.1550
     18 F3          0.4796   -7.9834   -0.2068 F         1 <0>        -0.1621
     19 C13        -0.3206   -6.9044    4.6796 C.ar      1 <0>        -0.0144
     20 C14        -0.4056   -8.2953    4.6511 C.ar      1 <0>        -0.1054
     21 C15        -0.5021   -9.0024    5.8323 C.ar      1 <0>        -0.0267
     22 C16        -0.5147   -8.3334    7.0430 C.ar      1 <0>        -0.6397
     23 C17        -0.4311   -6.9530    7.0773 C.ar      1 <0>        -0.0282
     24 C18        -0.3284   -6.2359    5.9026 C.ar      1 <0>        -0.0848
     25 S1         -0.6382   -9.2428    8.5471 S.o2      1 <0>         2.4981
     26 O2         -1.2279   -8.3380    9.4705 O.2       1 <0>        -0.9323
     27 O3         -1.3015  -10.4474    8.1890 O.2       1 <0>        -0.9328
     28 C19         1.0772   -9.5918    9.0230 C.3       1 <0>        -0.6489
     29 H1         -3.0351   -0.4022   -1.2437 H         1 <0>         0.0753
     30 H2         -2.2052   -1.1835   -2.6109 H         1 <0>         0.0724
     31 H3         -3.0308   -2.1765   -1.3859 H         1 <0>         0.0679
     32 H4         -0.0667   -0.1388   -2.1282 H         1 <0>         0.1312
     33 H5          2.0122   -0.2361   -0.8145 H         1 <0>         0.1355
     34 H6          2.0723   -1.4826    1.3073 H         1 <0>         0.1327
     35 H7         -2.0413   -2.5262    0.8018 H         1 <0>         0.1246
     36 H8         -0.2759   -7.8775    2.1335 H         1 <0>         0.1717
     37 H9         -0.3962   -8.8187    3.7064 H         1 <0>         0.1428
     38 H10        -0.5684  -10.0802    5.8114 H         1 <0>         0.1531
     39 H11        -0.4417   -6.4358    8.0253 H         1 <0>         0.1521
     40 H12        -0.2586   -5.1585    5.9308 H         1 <0>         0.1511
     41 H13         1.6137   -8.6532    9.1622 H         1 <0>         0.1330
     42 H14         1.0878  -10.1579    9.9544 H         1 <0>         0.1357
     43 H15         1.5607  -10.1738    8.2384 H         1 <0>         0.1329
@<TRIPOS>BOND
     1    1    2 1
     2    1   29 1
     3    1   30 1
     4    1   31 1
     5    2    7 ar
     6    2    3 ar
     7    3    4 ar
     8    3   32 1
     9    4    5 ar
    10    4   33 1
    11    5    6 ar
    12    5   34 1
    13    6    7 ar
    14    6    8 1
    15    7   35 1
    16    8    9 1
    17    9   14 ar
    18    9   10 ar
    19   10   11 ar
    20   11   12 ar
    21   11   19 1
    22   12   13 ar
    23   12   36 1
    24   13   14 ar
    25   13   15 1
    26   15   16 1
    27   15   17 1
    28   15   18 1
    29   19   24 ar
    30   19   20 ar
    31   20   21 ar
    32   20   37 1
    33   21   22 ar
    34   21   38 1
    35   22   23 ar
    36   22   25 1
    37   23   24 ar
    38   23   39 1
    39   24   40 1
    40   25   26 2
    41   25   27 2
    42   25   28 1
    43   28   41 1
    44   28   42 1
    45   28   43 1
@<TRIPOS>MOLECULE
CHEMBL362290
   36    38     0     0     0
SMALL
USER_CHARGES

@<TRIPOS>ATOM
      1 C1         -0.0184    1.5028    0.0103 C.3       1 <0>        -0.1120
      2 C2          0.0021   -0.0041    0.0020 C.2       1 <0>         0.1827
      3 C3          0.0074   -0.7731   -1.1038 C.2       1 <0>        -0.2480
      4 C4          0.0285   -2.1699   -0.6532 C.ar      1 <0>        -0.0231
      5 C5          0.0415   -3.3998   -1.3132 C.ar      1 <0>        -0.0886
      6 C6          0.0598   -4.5583   -0.5891 C.ar      1 <0>        -0.0521
      7 C7          0.0653   -4.5223    0.7988 C.ar      1 <0>        -0.6413
      8 C8          0.0527   -3.3198    1.4703 C.ar      1 <0>        -0.0136
      9 C9          0.0344   -2.1275    0.7526 C.ar      1 <0>         0.0697
     10 N1          0.0240   -0.8015    1.1224 N.pl3     1 <0>        -0.5823
     11 H1          0.0287   -0.4778    2.0369 H         1 <0>         0.4240
     12 S1          0.0879   -6.0301    1.7103 S.o2      1 <0>         2.5031
     13 O1         -0.5138   -5.7092    2.9570 O.2       1 <0>        -0.9390
     14 O2         -0.5068   -6.9865    0.8439 O.2       1 <0>        -0.9330
     15 C10         1.8468   -6.4072    1.9441 C.3       1 <0>        -0.6505
     16 S2         -0.0084   -0.2096   -2.7732 S.3       1 <0>         0.0593
     17 C11         1.6972   -0.0503   -3.1855 C.ar      1 <0>        -0.1180
     18 C12         2.6725   -0.3621   -2.2460 C.ar      1 <0>        -0.0939
     19 C13         4.0085   -0.2369   -2.5718 C.ar      1 <0>        -0.1368
     20 C14         4.3769    0.1991   -3.8336 C.ar      1 <0>         0.0926
     21 C15         3.4069    0.5109   -4.7716 C.ar      1 <0>        -0.1345
     22 C16         2.0695    0.3819   -4.4527 C.ar      1 <0>        -0.0714
     23 F1          5.6847    0.3208   -4.1499 F         1 <0>        -0.1384
     24 H2          1.0042    1.8801    0.0026 H         1 <0>         0.0911
     25 H3         -0.5455    1.8639   -0.8728 H         1 <0>         0.1036
     26 H4         -0.5286    1.8543    0.9071 H         1 <0>         0.0810
     27 H5          0.0366   -3.4355   -2.3926 H         1 <0>         0.1379
     28 H6          0.0699   -5.5095   -1.1005 H         1 <0>         0.1455
     29 H7          0.0574   -3.3022    2.5501 H         1 <0>         0.1438
     30 H8          2.3222   -5.5957    2.4951 H         1 <0>         0.1302
     31 H9          1.9478   -7.3358    2.5058 H         1 <0>         0.1339
     32 H10         2.3273   -6.5166    0.9718 H         1 <0>         0.1329
     33 H11         2.3858   -0.7018   -1.2617 H         1 <0>         0.1291
     34 H12         4.7669   -0.4787   -1.8418 H         1 <0>         0.1353
     35 H13         3.6967    0.8511   -5.7548 H         1 <0>         0.1414
     36 H14         1.3135    0.6210   -5.1860 H         1 <0>         0.1391
@<TRIPOS>BOND
     1    1    2 1
     2    1   24 1
     3    1   25 1
     4    1   26 1
     5    2   10 1
     6    2    3 2
     7    3    4 1
     8    3   16 1
     9    4    9 ar
    10    4    5 ar
    11    5    6 ar
    12    5   27 1
    13    6    7 ar
    14    6   28 1
    15    7    8 ar
    16    7   12 1
    17    8    9 ar
    18    8   29 1
    19    9   10 1
    20   10   11 1
    21   12   13 2
    22   12   14 2
    23   12   15 1
    24   15   30 1
    25   15   31 1
    26   15   32 1
    27   16   17 1
    28   17   22 ar
    29   17   18 ar
    30   18   19 ar
    31   18   33 1
    32   19   20 ar
    33   19   34 1
    34   20   21 ar
    35   20   23 1
    36   21   22 ar
    37   21   35 1
    38   22   36 1
@<TRIPOS>MOLECULE
CHEMBL414437
   41    44     0     0     0
SMALL
USER_CHARGES

@<TRIPOS>ATOM
      1 C1          0.4869    1.4626   -0.0536 C.3       1 <0>        -0.0826
      2 C2          0.2310   -0.0223   -0.0269 C.2       1 <0>         0.1616
      3 C3         -0.1856   -0.8061   -1.1209 C.2       1 <0>        -0.2718
      4 C4         -0.3017   -2.1227   -0.6606 C.2       1 <0>         0.1803
      5 C5         -0.7266   -3.1613   -1.6068 C.ar      1 <0>        -0.0962
      6 C6         -0.8588   -4.4906   -1.1986 C.ar      1 <0>        -0.0118
      7 C7         -1.2594   -5.4479   -2.1038 C.ar      1 <0>        -0.0762
      8 C8         -1.5314   -5.0976   -3.4179 C.ar      1 <0>        -0.0005
      9 C9         -1.4056   -3.7902   -3.8357 C.ar      1 <0>        -0.1533
     10 C10        -1.0027   -2.8065   -2.9379 C.ar      1 <0>         0.2557
     11 N1         -0.8776   -1.4942   -3.3578 N.am      1 <0>        -0.6346
     12 C11        -0.4895   -0.5135   -2.5228 C.2       1 <0>         0.5909
     13 O1         -0.3928    0.6279   -2.9359 O.2       1 <0>        -0.5007
     14 N2         -1.3998   -6.8569   -1.6726 N.pl3     1 <0>         0.0345
     15 O2         -1.1630   -7.1652   -0.5278 O.2       1 <0>        -0.1517
     16 O3         -1.7514   -7.6995   -2.4652 O.3       1 <0>        -0.1468
     17 N3          0.0337   -2.1147    0.6539 N.pl3     1 <0>        -0.3120
     18 N4          0.3632   -0.8010    1.0124 N.2       1 <0>        -0.2625
     19 C12         0.0526   -3.2276    1.5038 C.ar      1 <0>         0.1891
     20 C13         0.7605   -4.3666    1.1431 C.ar      1 <0>        -0.1503
     21 C14         0.7772   -5.4626    1.9834 C.ar      1 <0>         0.0120
     22 C15         0.0896   -5.4267    3.1827 C.ar      1 <0>        -0.6667
     23 C16        -0.6162   -4.2940    3.5447 C.ar      1 <0>         0.0045
     24 C17        -0.6317   -3.1925    2.7117 C.ar      1 <0>        -0.1173
     25 S1          0.1125   -6.8274    4.2514 S.o2      1 <0>         2.7013
     26 O4         -1.0542   -6.7418    5.0581 O.2       1 <0>        -0.9556
     27 O5          0.3933   -7.9563    3.4354 O.2       1 <0>        -0.9479
     28 N5          1.4060   -6.6455    5.2693 N.pl3     1 <0>        -1.2492
     29 H1          1.5291    1.6470   -0.3143 H         1 <0>         0.0908
     30 H2         -0.1612    1.9298   -0.7950 H         1 <0>         0.0959
     31 H3          0.2781    1.8850    0.9293 H         1 <0>         0.0840
     32 H4         -0.6470   -4.7668   -0.1762 H         1 <0>         0.1681
     33 H5         -1.8443   -5.8561   -4.1202 H         1 <0>         0.1694
     34 H6         -1.6201   -3.5289   -4.8614 H         1 <0>         0.1666
     35 H7          1.2971   -4.3956    0.2063 H         1 <0>         0.1429
     36 H8          1.3275   -6.3487    1.7034 H         1 <0>         0.1626
     37 H9         -1.1525   -4.2692    4.4819 H         1 <0>         0.1601
     38 H10        -1.1795   -2.3066    2.9971 H         1 <0>         0.1489
     39 H11         1.9766   -5.8647    5.1938 H         1 <0>         0.4171
     40 H12         1.5932   -7.3199    5.9409 H         1 <0>         0.4237
     41 H13        -1.0741   -1.2750   -4.2820 H         1 <0>         0.4278
@<TRIPOS>BOND
     1    1    2 1
     2    1   29 1
     3    1   30 1
     4    1   31 1
     5    2   18 2
     6    2    3 1
     7    3   12 1
     8    3    4 2
     9    4    5 1
    10    4   17 1
    11    5   10 ar
    12    5    6 ar
    13    6    7 ar
    14    6   32 1
    15    7    8 ar
    16    7   14 1
    17    8    9 ar
    18    8   33 1
    19    9   10 ar
    20    9   34 1
    21   10   11 1
    22   11   12 am
    23   11   41 1
    24   12   13 2
    25   14   15 2
    26   14   16 1
    27   17   18 1
    28   17   19 1
    29   19   24 ar
    30   19   20 ar
    31   20   21 ar
    32   20   35 1
    33   21   22 ar
    34   21   36 1
    35   22   23 ar
    36   22   25 1
    37   23   24 ar
    38   23   37 1
    39   24   38 1
    40   25   26 2
    41   25   27 2
    42   25   28 1
    43   28   39 1
    44   28   40 1
@<TRIPOS>MOLECULE
CHEMBL598972
   30    31     0     0     0
SMALL
USER_CHARGES

@<TRIPOS>ATOM
      1 C1         -0.0167    1.3790    0.0096 C.ar      1 <0>        -0.1106
      2 C2          1.1688    2.0925    0.0021 C.ar      1 <0>        -0.1431
      3 C3          2.3774    1.4274   -0.0135 C.ar      1 <0>        -0.0978
      4 C4          2.4027    0.0330   -0.0212 C.ar      1 <0>        -0.0666
      5 C5          1.2049   -0.6805   -0.0131 C.ar      1 <0>         0.0048
      6 C6          0.0021   -0.0041    0.0020 C.ar      1 <0>        -0.1212
      7 C7          1.2236   -2.1874   -0.0219 C.3       1 <0>        -0.1652
      8 C8          1.3680   -2.6962    1.3892 C.2       1 <0>         0.4987
      9 O1          1.4483   -1.9083    2.3161 O.co2     1 <0>        -0.6818
     10 O2          1.4046   -3.8958    1.6039 O.co2     1 <0>        -0.7009
     11 C9          3.6977   -0.6874   -0.0384 C.2       1 <0>         0.0644
     12 C10         4.1628   -1.3005   -1.2234 C.2       1 <0>        -0.1842
     13 C11         5.3451   -1.9530   -1.2215 C.2       1 <0>         0.1087
     14 N1          6.0989   -2.0304   -0.0936 N.am      1 <0>        -0.5540
     15 C12         5.6927   -1.4605    1.0559 C.2       1 <0>         0.5232
     16 O3          6.3883   -1.5437    2.0559 O.2       1 <0>        -0.5277
     17 C13         4.4756   -0.7662    1.1064 C.2       1 <0>        -0.1976
     18 C14         7.3760   -2.7472   -0.1294 C.3       1 <0>         0.4680
     19 F1          8.1274   -2.4182    1.0039 F         1 <0>        -0.1601
     20 F2          7.1369   -4.1255   -0.1464 F         1 <0>        -0.1912
     21 H1         -0.9603    1.9040    0.0260 H         1 <0>         0.1161
     22 H2          1.1479    3.1723    0.0082 H         1 <0>         0.1170
     23 H3          3.3021    1.9854   -0.0200 H         1 <0>         0.1177
     24 H4         -0.9264   -0.5557    0.0079 H         1 <0>         0.1183
     25 H5          0.2925   -2.5598   -0.4490 H         1 <0>         0.0696
     26 H6          2.0639   -2.5368   -0.6219 H         1 <0>         0.0713
     27 H7          3.5746   -1.2478   -2.1276 H         1 <0>         0.1509
     28 H8          5.6964   -2.4204   -2.1295 H         1 <0>         0.1667
     29 H9          4.1469   -0.3031    2.0250 H         1 <0>         0.1569
     30 H10         7.9272   -2.4630   -1.0258 H         1 <0>         0.1495
@<TRIPOS>BOND
     1    1    6 ar
     2    1    2 ar
     3    1   21 1
     4    2    3 ar
     5    2   22 1
     6    3    4 ar
     7    3   23 1
     8    4    5 ar
     9    4   11 1
    10    5    6 ar
    11    5    7 1
    12    6   24 1
    13    7    8 1
    14    7   25 1
    15    7   26 1
    16    8    9 2
    17    8   10 1
    18   11   17 2
    19   11   12 1
    20   12   13 2
    21   12   27 1
    22   13   14 1
    23   13   28 1
    24   14   15 am
    25   14   18 1
    26   15   16 2
    27   15   17 1
    28   17   29 1
    29   18   19 1
    30   18   20 1
    31   18   30 1
@<TRIPOS>MOLECULE
CHEMBL96842
   37    39     0     0     0
SMALL
USER_CHARGES

@<TRIPOS>ATOM
      1 C1         -0.0225    1.8097    0.0120 C.3       1 <0>        -0.6507
      2 S1          0.0021   -0.0041    0.0020 S.o2      1 <0>         2.4984
      3 O1          0.8352   -0.4880    1.0465 O.2       1 <0>        -0.9358
      4 O2         -1.3147   -0.5105   -0.1678 O.2       1 <0>        -0.9366
      5 C2          0.8454   -0.4373   -1.4831 C.ar      1 <0>        -0.6579
      6 C3          0.1314   -0.6121   -2.6550 C.ar      1 <0>        -0.0195
      7 C4          0.7866   -0.9510   -3.8213 C.ar      1 <0>        -0.1317
      8 C5          2.1707   -1.1172   -3.8170 C.ar      1 <0>         0.0144
      9 C6          2.8850   -0.9398   -2.6330 C.ar      1 <0>        -0.1134
     10 C7          2.2196   -0.5958   -1.4740 C.ar      1 <0>        -0.0209
     11 C8          2.8802   -1.4817   -5.0665 C.ar      1 <0>        -0.1061
     12 C9          2.4367   -2.5490   -5.8499 C.ar      1 <0>        -0.0539
     13 C10         3.1334   -2.8501   -7.0080 C.ar      1 <0>        -0.1713
     14 C11         4.2391   -2.0929   -7.3543 C.ar      1 <0>         0.1127
     15 N1          4.6416   -1.0900   -6.6011 N.ar      1 <0>        -0.4731
     16 C12         4.0063   -0.7564   -5.4860 C.ar      1 <0>         0.1882
     17 C13         4.4922    0.3844   -4.6744 C.ar      1 <0>        -0.0570
     18 C14         3.5853    1.1954   -3.9934 C.ar      1 <0>        -0.0932
     19 C15         4.0437    2.2559   -3.2388 C.ar      1 <0>        -0.1258
     20 C16         5.4000    2.5154   -3.1576 C.ar      1 <0>        -0.1032
     21 C17         6.3047    1.7142   -3.8310 C.ar      1 <0>        -0.1251
     22 C18         5.8585    0.6474   -4.5840 C.ar      1 <0>        -0.0771
     23 H1          1.0001    2.1870    0.0043 H         1 <0>         0.1321
     24 H2         -0.5497    2.1708   -0.8711 H         1 <0>         0.1320
     25 H3         -0.5327    2.1613    0.9088 H         1 <0>         0.1340
     26 H4         -0.9409   -0.4833   -2.6571 H         1 <0>         0.1460
     27 H5          0.2281   -1.0875   -4.7356 H         1 <0>         0.1355
     28 H6          3.9573   -1.0677   -2.6237 H         1 <0>         0.1338
     29 H7          2.7724   -0.4538   -0.5571 H         1 <0>         0.1453
     30 H8          1.5713   -3.1261   -5.5593 H         1 <0>         0.1412
     31 H9          2.8167   -3.6696   -7.6361 H         1 <0>         0.1427
     32 H10         4.7817   -2.3287   -8.2579 H         1 <0>         0.1630
     33 H11         2.5260    0.9942   -4.0567 H         1 <0>         0.1263
     34 H12         3.3421    2.8848   -2.7109 H         1 <0>         0.1251
     35 H13         5.7541    3.3469   -2.5664 H         1 <0>         0.1253
     36 H14         7.3624    1.9216   -3.7639 H         1 <0>         0.1272
     37 H15         6.5659    0.0201   -5.1060 H         1 <0>         0.1293
@<TRIPOS>BOND
     1    1    2 1
     2    1   23 1
     3    1   24 1
     4    1   25 1
     5    2    3 2
     6    2    4 2
     7    2    5 1
     8    5   10 ar
     9    5    6 ar
    10    6    7 ar
    11    6   26 1
    12    7    8 ar
    13    7   27 1
    14    8    9 ar
    15    8   11 1
    16    9   10 ar
    17    9   28 1
    18   10   29 1
    19   11   16 ar
    20   11   12 ar
    21   12   13 ar
    22   12   30 1
    23   13   14 ar
    24   13   31 1
    25   14   15 ar
    26   14   32 1
    27   15   16 ar
    28   16   17 1
    29   17   22 ar
    30   17   18 ar
    31   18   19 ar
    32   18   33 1
    33   19   20 ar
    34   19   34 1
    35   20   21 ar
    36   20   35 1
    37   21   22 ar
    38   21   36 1
    39   22   37 1
@<TRIPOS>MOLECULE
CHEMBL550069
   55    58     0     0     0
SMALL
USER_CHARGES

@<TRIPOS>ATOM
      1 C1         -0.0225    1.8097    0.0120 C.3       1 <0>        -0.6509
      2 S1          0.0021   -0.0041    0.0020 S.o2      1 <0>         2.4974
      3 O1          0.8352   -0.4880    1.0465 O.2       1 <0>        -0.9345
      4 O2         -1.3147   -0.5105   -0.1678 O.2       1 <0>        -0.9349
      5 C2          0.8454   -0.4373   -1.4831 C.ar      1 <0>        -0.6561
      6 C3          0.1314   -0.6121   -2.6550 C.ar      1 <0>        -0.0171
      7 C4          0.7866   -0.9510   -3.8213 C.ar      1 <0>        -0.1291
      8 C5          2.1707   -1.1172   -3.8170 C.ar      1 <0>         0.0149
      9 C6          2.8850   -0.9398   -2.6330 C.ar      1 <0>        -0.1171
     10 C7          2.2196   -0.5958   -1.4740 C.ar      1 <0>        -0.0194
     11 C8          2.8803   -1.4817   -5.0665 C.ar      1 <0>        -0.1683
     12 C9          2.4440   -2.5467   -5.8556 C.ar      1 <0>         0.1765
     13 N1          3.1055   -2.8382   -6.9631 N.ar      1 <0>        -0.5093
     14 C10         4.1639   -2.1419   -7.3297 C.ar      1 <0>         0.3392
     15 N2          4.6166   -1.1288   -6.6213 N.ar      1 <0>        -0.5052
     16 C11         4.0106   -0.7598   -5.4950 C.ar      1 <0>         0.2420
     17 C12         4.5192    0.3848   -4.7045 C.ar      1 <0>        -0.0762
     18 C13         3.6293    1.2141   -4.0219 C.ar      1 <0>        -0.0570
     19 C14         4.1077    2.2787   -3.2872 C.ar      1 <0>        -0.1595
     20 C15         5.4702    2.5254   -3.2268 C.ar      1 <0>         0.1230
     21 C16         6.3583    1.7042   -3.9033 C.ar      1 <0>        -0.1589
     22 C17         5.8900    0.6334   -4.6356 C.ar      1 <0>        -0.0404
     23 F1          5.9340    3.5700   -2.5065 F         1 <0>        -0.1329
     24 C18         4.8791   -2.5187   -8.6016 C.3       1 <0>        -0.0522
     25 C19         4.2723   -1.7476   -9.7755 C.3       1 <0>        -0.0775
     26 C20         2.8219   -2.1893   -9.9806 C.3       1 <0>        -0.1118
     27 C21         2.2152   -1.4182  -11.1546 C.3       1 <0>        -0.1203
     28 C22         3.0200   -1.7052  -12.4238 C.3       1 <0>        -0.1206
     29 C23         4.4705   -1.2635  -12.2186 C.3       1 <0>        -0.1196
     30 C24         5.0772   -2.0346  -11.0447 C.3       1 <0>        -0.1123
     31 H1          1.0001    2.1870    0.0043 H         1 <0>         0.1322
     32 H2         -0.5497    2.1708   -0.8711 H         1 <0>         0.1323
     33 H3         -0.5327    2.1613    0.9088 H         1 <0>         0.1348
     34 H4         -0.9409   -0.4833   -2.6571 H         1 <0>         0.1478
     35 H5          0.2281   -1.0875   -4.7356 H         1 <0>         0.1373
     36 H6          3.9574   -1.0673   -2.6238 H         1 <0>         0.1339
     37 H7          2.7724   -0.4541   -0.5570 H         1 <0>         0.1466
     38 H8          1.5789   -3.1248   -5.5660 H         1 <0>         0.1743
     39 H9          2.5674    1.0231   -4.0690 H         1 <0>         0.1381
     40 H10         3.4195    2.9214   -2.7583 H         1 <0>         0.1418
     41 H11         7.4191    1.9004   -3.8533 H         1 <0>         0.1436
     42 H12         6.5831   -0.0086   -5.1588 H         1 <0>         0.1422
     43 H13         5.9365   -2.2700   -8.5112 H         1 <0>         0.0935
     44 H14         4.7713   -3.5893   -8.7755 H         1 <0>         0.0946
     45 H15         4.3000   -0.6792   -9.5616 H         1 <0>         0.0725
     46 H16         2.7943   -3.2577  -10.1946 H         1 <0>         0.0670
     47 H17         2.2485   -1.9849   -9.0765 H         1 <0>         0.0594
     48 H18         1.1819   -1.7329  -11.3007 H         1 <0>         0.0609
     49 H19         2.2428   -0.3498  -10.9406 H         1 <0>         0.0577
     50 H20         2.9924   -2.7736  -12.6377 H         1 <0>         0.0625
     51 H21         2.5878   -1.1559  -13.2601 H         1 <0>         0.0603
     52 H22         5.0439   -1.4679  -13.1228 H         1 <0>         0.0634
     53 H23         4.4981   -0.1951  -12.0047 H         1 <0>         0.0609
     54 H24         6.1105   -1.7199  -10.8985 H         1 <0>         0.0648
     55 H25         5.0496   -3.1030  -11.2586 H         1 <0>         0.0659
@<TRIPOS>BOND
     1    1    2 1
     2    1   31 1
     3    1   32 1
     4    1   33 1
     5    2    3 2
     6    2    4 2
     7    2    5 1
     8    5   10 ar
     9    5    6 ar
    10    6    7 ar
    11    6   34 1
    12    7    8 ar
    13    7   35 1
    14    8    9 ar
    15    8   11 1
    16    9   10 ar
    17    9   36 1
    18   10   37 1
    19   11   16 ar
    20   11   12 ar
    21   12   13 ar
    22   12   38 1
    23   13   14 ar
    24   14   15 ar
    25   14   24 1
    26   15   16 ar
    27   16   17 1
    28   17   22 ar
    29   17   18 ar
    30   18   19 ar
    31   18   39 1
    32   19   20 ar
    33   19   40 1
    34   20   21 ar
    35   20   23 1
    36   21   22 ar
    37   21   41 1
    38   22   42 1
    39   24   25 1
    40   24   43 1
    41   24   44 1
    42   25   30 1
    43   25   26 1
    44   25   45 1
    45   26   27 1
    46   26   46 1
    47   26   47 1
    48   27   28 1
    49   27   48 1
    50   27   49 1
    51   28   29 1
    52   28   50 1
    53   28   51 1
    54   29   30 1
    55   29   52 1
    56   29   53 1
    57   30   54 1
    58   30   55 1
@<TRIPOS>MOLECULE
CHEMBL184737
   50    53     0     0     0
SMALL
USER_CHARGES

@<TRIPOS>ATOM
      1 C1          0.2810    0.9443   -0.6781 C.3       1 <0>         0.0222
      2 O1          0.1949   -0.4817   -0.6460 O.3       1 <0>        -0.3098
      3 C2         -1.0437   -1.0217   -0.5119 C.ar      1 <0>         0.1617
      4 C3         -2.1547   -0.1920   -0.4191 C.ar      1 <0>        -0.2139
      5 C4         -3.4130   -0.7353   -0.2835 C.ar      1 <0>        -0.0297
      6 C5         -3.5716   -2.1236   -0.2393 C.ar      1 <0>        -0.1227
      7 C6         -2.4511   -2.9543   -0.3330 C.ar      1 <0>        -0.0358
      8 C7         -1.1971   -2.4023   -0.4738 C.ar      1 <0>        -0.1550
      9 C8         -4.9167   -2.7099   -0.0937 C.2       1 <0>         0.2207
     10 C9         -5.0534   -4.0655   -0.0467 C.2       1 <0>        -0.2432
     11 C10        -6.3333   -4.6349    0.0921 C.2       1 <0>         0.1059
     12 C11        -7.4417   -3.7810    0.1788 C.2       1 <0>        -0.2167
     13 C12        -7.2301   -2.3850    0.1235 C.2       1 <0>         0.5128
     14 O2         -8.1781   -1.6224    0.1969 O.2       1 <0>        -0.4570
     15 O3         -5.9844   -1.8967   -0.0044 O.3       1 <0>        -0.2569
     16 C13        -8.8071   -4.3309    0.3250 C.ar      1 <0>         0.0372
     17 C14        -9.1714   -5.0012    1.4939 C.ar      1 <0>        -0.1206
     18 C15       -10.4463   -5.5117    1.6238 C.ar      1 <0>        -0.0216
     19 C16       -11.3630   -5.3610    0.5984 C.ar      1 <0>        -0.6562
     20 C17       -11.0082   -4.6981   -0.5631 C.ar      1 <0>        -0.0188
     21 C18        -9.7385   -4.1769   -0.7031 C.ar      1 <0>        -0.1142
     22 S1        -12.9892   -6.0167    0.7722 S.o2      1 <0>         2.4988
     23 O4        -13.4287   -6.2538   -0.5581 O.2       1 <0>        -0.9356
     24 O5        -12.8505   -7.0913    1.6916 O.2       1 <0>        -0.9371
     25 C19       -13.9552   -4.6756    1.5197 C.3       1 <0>        -0.6505
     26 C20        -6.5052   -6.1042    0.1448 C.ar      1 <0>        -0.1265
     27 C21        -6.0119   -6.8398    1.2285 C.ar      1 <0>        -0.0502
     28 C22        -6.1989   -8.2107    1.2301 C.ar      1 <0>        -0.1684
     29 C23        -6.8611   -8.8050    0.1707 C.ar      1 <0>         0.1135
     30 N1         -7.3154   -8.0860   -0.8377 N.ar      1 <0>        -0.4758
     31 C24        -7.1665   -6.7781   -0.8820 C.ar      1 <0>         0.1341
     32 H1          1.3235    1.2430   -0.7883 H         1 <0>         0.1062
     33 H2         -0.2969    1.3243   -1.5205 H         1 <0>         0.0609
     34 H3         -0.1179    1.3534    0.2502 H         1 <0>         0.0608
     35 H4         -2.0311    0.8803   -0.4530 H         1 <0>         0.1396
     36 H5         -4.2759   -0.0898   -0.2110 H         1 <0>         0.1404
     37 H6         -2.5690   -4.0273   -0.2994 H         1 <0>         0.1425
     38 H7         -0.3314   -3.0434   -0.5508 H         1 <0>         0.1441
     39 H8         -4.1825   -4.7005   -0.1162 H         1 <0>         0.1624
     40 H9         -8.4565   -5.1201    2.2947 H         1 <0>         0.1299
     41 H10       -10.7294   -6.0306    2.5277 H         1 <0>         0.1441
     42 H11       -11.7283   -4.5841   -1.3599 H         1 <0>         0.1462
     43 H12        -9.4644   -3.6552   -1.6081 H         1 <0>         0.1336
     44 H13       -13.9391   -3.8062    0.8624 H         1 <0>         0.1326
     45 H14       -14.9845   -5.0047    1.6618 H         1 <0>         0.1337
     46 H15       -13.5223   -4.4099    2.4842 H         1 <0>         0.1317
     47 H16        -5.4982   -6.3500    2.0425 H         1 <0>         0.1398
     48 H17        -5.8315   -8.8106    2.0496 H         1 <0>         0.1433
     49 H18        -7.0083   -9.8749    0.1690 H         1 <0>         0.1618
     50 H19        -7.5564   -6.2230   -1.7224 H         1 <0>         0.1560
@<TRIPOS>BOND
     1    1    2 1
     2    1   32 1
     3    1   33 1
     4    1   34 1
     5    2    3 1
     6    3    8 ar
     7    3    4 ar
     8    4    5 ar
     9    4   35 1
    10    5    6 ar
    11    5   36 1
    12    6    7 ar
    13    6    9 1
    14    7    8 ar
    15    7   37 1
    16    8   38 1
    17    9   15 1
    18    9   10 2
    19   10   11 1
    20   10   39 1
    21   11   12 2
    22   11   26 1
    23   12   13 1
    24   12   16 1
    25   13   14 2
    26   13   15 1
    27   16   21 ar
    28   16   17 ar
    29   17   18 ar
    30   17   40 1
    31   18   19 ar
    32   18   41 1
    33   19   20 ar
    34   19   22 1
    35   20   21 ar
    36   20   42 1
    37   21   43 1
    38   22   23 2
    39   22   24 2
    40   22   25 1
    41   25   44 1
    42   25   45 1
    43   25   46 1
    44   26   31 ar
    45   26   27 ar
    46   27   28 ar
    47   27   47 1
    48   28   29 ar
    49   28   48 1
    50   29   30 ar
    51   29   49 1
    52   30   31 ar
    53   31   50 1
@<TRIPOS>MOLECULE
CHEMBL9123
   27    29     0     0     0
SMALL
USER_CHARGES

@<TRIPOS>ATOM
      1 C1         -0.0167    1.3819    0.0096 C.ar      1 <0>        -0.0987
      2 C2          1.1651    2.0988    0.0022 C.ar      1 <0>        -0.0982
      3 C3          2.3855    1.4416   -0.0134 C.ar      1 <0>        -0.0462
      4 C4          2.4197    0.0564   -0.0211 C.ar      1 <0>        -0.1247
      5 C5          1.2146   -0.6746   -0.0131 C.ar      1 <0>        -0.1256
      6 C6          0.0021   -0.0041    0.0020 C.ar      1 <0>        -0.0459
      7 C7          1.6061   -2.0999   -0.0245 C.2       1 <0>         0.5717
      8 O1          0.8430   -3.0446   -0.0220 O.2       1 <0>        -0.4545
      9 N1          2.9492   -2.1754   -0.0382 N.am      1 <0>        -0.3650
     10 C8          3.5027   -0.9494   -0.0372 C.2       1 <0>         0.5723
     11 O2          4.6932   -0.7091   -0.0483 O.2       1 <0>        -0.4526
     12 N2          3.6757   -3.3733   -0.0514 N.am      1 <0>        -0.4435
     13 C9          4.0614   -4.0064    1.2129 C.3       1 <0>         0.1249
     14 C10         3.9993   -5.5276    1.0528 C.3       1 <0>        -0.1672
     15 C11         4.6738   -5.9200   -0.2369 C.2       1 <0>         0.4579
     16 O3          5.3269   -7.0906   -0.3178 O.3       1 <0>        -0.6609
     17 N3          4.6278   -5.1325   -1.2738 N.2       1 <0>        -0.6571
     18 C12         4.0111   -3.9396   -1.2236 C.2       1 <0>         0.6876
     19 O4          3.7555   -3.3574   -2.2612 O.2       1 <0>        -0.5781
     20 H1         -0.9613    1.9053    0.0260 H         1 <0>         0.1411
     21 H2          1.1375    3.1784    0.0082 H         1 <0>         0.1412
     22 H3          3.3057    2.0069   -0.0199 H         1 <0>         0.1427
     23 H4         -0.9244   -0.5590    0.0082 H         1 <0>         0.1426
     24 H5          5.0769   -3.7089    1.4744 H         1 <0>         0.0697
     25 H6          3.3754   -3.6948    2.0006 H         1 <0>         0.0777
     26 H7          4.5104   -6.0029    1.8901 H         1 <0>         0.1002
     27 H8          2.9581   -5.8491    1.0314 H         1 <0>         0.0885
@<TRIPOS>BOND
     1    1    6 ar
     2    1    2 ar
     3    1   20 1
     4    2    3 ar
     5    2   21 1
     6    3    4 ar
     7    3   22 1
     8    4   10 1
     9    4    5 ar
    10    5    6 ar
    11    5    7 1
    12    6   23 1
    13    7    8 2
    14    7    9 am
    15    9   10 am
    16    9   12 1
    17   10   11 2
    18   12   18 am
    19   12   13 1
    20   13   14 1
    21   13   24 1
    22   13   25 1
    23   14   15 1
    24   14   26 1
    25   14   27 1
    26   15   16 1
    27   15   17 2
    28   17   18 1
    29   18   19 2
@<TRIPOS>MOLECULE
CHEMBL140167
   44    48     0     0     0
SMALL
USER_CHARGES

@<TRIPOS>ATOM
      1 C1         -0.0169    1.3920    0.0097 C.ar      1 <0>        -0.0829
      2 C2          1.1695    2.0951    0.0021 C.ar      1 <0>        -0.1497
      3 C3          2.3789    1.4186   -0.0135 C.ar      1 <0>         0.1018
      4 C4          2.4037    0.0330   -0.0216 C.ar      1 <0>        -0.1489
      5 C5          1.2234   -0.6804   -0.0142 C.ar      1 <0>        -0.0674
      6 C6          0.0021   -0.0041    0.0020 C.ar      1 <0>        -0.0317
      7 C7         -1.2658   -0.7630    0.0105 C.2       1 <0>         0.0932
      8 C8         -1.5408   -1.8168    0.7709 C.2       1 <0>        -0.1449
      9 C9         -2.8703   -2.2425    0.4654 C.2       1 <0>        -0.1450
     10 C10        -3.3530   -1.4313   -0.4691 C.2       1 <0>         0.0932
     11 N1         -2.3777   -0.4980   -0.7672 N.pl3     1 <0>        -0.5741
     12 H1         -2.4590    0.2203   -1.4140 H         1 <0>         0.4151
     13 C11        -4.6970   -1.5093   -1.0784 C.ar      1 <0>        -0.0316
     14 C12        -5.2129   -2.7423   -1.4821 C.ar      1 <0>        -0.0675
     15 C13        -6.4680   -2.8092   -2.0498 C.ar      1 <0>        -0.1488
     16 C14        -7.2168   -1.6555   -2.2197 C.ar      1 <0>         0.1017
     17 C15        -6.7096   -0.4289   -1.8212 C.ar      1 <0>        -0.1496
     18 C16        -5.4581   -0.3510   -1.2472 C.ar      1 <0>        -0.0830
     19 F1         -8.4458   -1.7269   -2.7763 F         1 <0>        -0.1373
     20 C17        -3.3258   -3.4458    1.2617 C.3       1 <0>        -0.0122
     21 C18        -3.1827   -3.0676    2.7480 C.3       1 <0>        -0.1086
     22 C19        -1.7632   -2.6130    3.0743 C.3       1 <0>        -0.1092
     23 C20        -0.8578   -2.6552    1.8292 C.3       1 <0>        -0.0121
     24 C21        -0.8810   -4.1086    1.3197 C.3       1 <0>        -0.1087
     25 C22        -2.3003   -4.5633    0.9927 C.3       1 <0>        -0.1093
     26 F2          3.5381    2.1124   -0.0213 F         1 <0>        -0.1373
     27 H2         -0.9587    1.9202    0.0260 H         1 <0>         0.1306
     28 H3          1.1561    3.1750    0.0081 H         1 <0>         0.1384
     29 H4          3.3490   -0.4891   -0.0342 H         1 <0>         0.1404
     30 H5          1.2439   -1.7602   -0.0213 H         1 <0>         0.1379
     31 H6         -4.6300   -3.6419   -1.3505 H         1 <0>         0.1378
     32 H7         -6.8678   -3.7623   -2.3628 H         1 <0>         0.1404
     33 H8         -7.2974    0.4670   -1.9563 H         1 <0>         0.1384
     34 H9         -5.0657    0.6048   -0.9326 H         1 <0>         0.1305
     35 H10        -4.3400   -3.7491    1.0020 H         1 <0>         0.0848
     36 H11        -3.8774   -2.2599    2.9787 H         1 <0>         0.0587
     37 H12        -3.4292   -3.9341    3.3616 H         1 <0>         0.0635
     38 H13        -1.7948   -1.5930    3.4572 H         1 <0>         0.0587
     39 H14        -1.3467   -3.2672    3.8402 H         1 <0>         0.0636
     40 H15         0.1509   -2.3022    2.0438 H         1 <0>         0.0848
     41 H16        -0.2683   -4.1810    0.4211 H         1 <0>         0.0590
     42 H17        -0.4651   -4.7619    2.0867 H         1 <0>         0.0640
     43 H18        -2.5473   -5.4291    1.6072 H         1 <0>         0.0640
     44 H19        -2.3507   -4.8477   -0.0583 H         1 <0>         0.0591
@<TRIPOS>BOND
     1    1    6 ar
     2    1    2 ar
     3    1   27 1
     4    2    3 ar
     5    2   28 1
     6    3    4 ar
     7    3   26 1
     8    4    5 ar
     9    4   29 1
    10    5    6 ar
    11    5   30 1
    12    6    7 1
    13    7   11 1
    14    7    8 2
    15    8   23 1
    16    8    9 1
    17    9   10 2
    18    9   20 1
    19   10   11 1
    20   10   13 1
    21   11   12 1
    22   13   18 ar
    23   13   14 ar
    24   14   15 ar
    25   14   31 1
    26   15   16 ar
    27   15   32 1
    28   16   17 ar
    29   16   19 1
    30   17   18 ar
    31   17   33 1
    32   18   34 1
    33   20   25 1
    34   20   21 1
    35   20   35 1
    36   21   22 1
    37   21   36 1
    38   21   37 1
    39   22   23 1
    40   22   38 1
    41   22   39 1
    42   23   24 1
    43   23   40 1
    44   24   25 1
    45   24   41 1
    46   24   42 1
    47   25   43 1
    48   25   44 1
@<TRIPOS>MOLECULE
CHEMBL23649
   39    41     0     0     0
SMALL
USER_CHARGES

@<TRIPOS>ATOM
      1 C1          0.5648    0.8521    0.3028 C.3       1 <0>        -0.6502
      2 S1          0.4366   -0.9272   -0.0260 S.o2      1 <0>         2.4991
      3 O1          1.3587   -1.6424    0.7849 O.2       1 <0>        -0.9356
      4 O2         -0.9287   -1.3166   -0.0865 O.2       1 <0>        -0.9344
      5 C2          1.0348   -1.1279   -1.6711 C.ar      1 <0>        -0.6529
      6 C3          0.1783   -0.9416   -2.7424 C.ar      1 <0>        -0.0211
      7 C4          0.6384   -1.0963   -4.0328 C.ar      1 <0>        -0.1086
      8 C5          1.9755   -1.4426   -4.2578 C.ar      1 <0>        -0.0007
      9 C6          2.8348   -1.6291   -3.1692 C.ar      1 <0>        -0.1170
     10 C7          2.3600   -1.4654   -1.8853 C.ar      1 <0>        -0.0215
     11 C8          2.4745   -1.6100   -5.6303 C.2       1 <0>        -0.0119
     12 C9          2.5720   -0.6253   -6.5454 C.2       1 <0>        -0.0305
     13 C10         3.0858   -1.0744   -7.7801 C.2       1 <0>         0.3703
     14 O3          3.2714   -0.3884   -8.7645 O.2       1 <0>        -0.4216
     15 C11         3.3667   -2.5566   -7.6679 C.3       1 <0>        -0.1759
     16 C12         2.9612   -2.9099   -6.2252 C.3       1 <0>        -0.0914
     17 O4          2.2127    0.6634   -6.3045 O.3       1 <0>        -0.2357
     18 C13         3.1908    1.6063   -6.2902 C.ar      1 <0>         0.1216
     19 C14         4.5210    1.2297   -6.4099 C.ar      1 <0>        -0.1890
     20 C15         5.5135    2.1904   -6.3956 C.ar      1 <0>        -0.0808
     21 C16         5.1824    3.5262   -6.2616 C.ar      1 <0>        -0.1498
     22 C17         3.8577    3.9042   -6.1422 C.ar      1 <0>        -0.0814
     23 C18         2.8609    2.9481   -6.1617 C.ar      1 <0>        -0.1428
     24 H1          1.5764    1.1910    0.0793 H         1 <0>         0.1319
     25 H2         -0.1456    1.3898   -0.3252 H         1 <0>         0.1327
     26 H3          0.3406    1.0448    1.3520 H         1 <0>         0.1350
     27 H4         -0.8534   -0.6747   -2.5670 H         1 <0>         0.1469
     28 H5         -0.0312   -0.9509   -4.8676 H         1 <0>         0.1381
     29 H6          3.8680   -1.8964   -3.3345 H         1 <0>         0.1378
     30 H7          3.0229   -1.6050   -1.0441 H         1 <0>         0.1496
     31 H8          2.7638   -3.1144   -8.3845 H         1 <0>         0.1185
     32 H9          4.4270   -2.7567   -7.8225 H         1 <0>         0.1168
     33 H10         3.8206   -3.2835   -5.6685 H         1 <0>         0.1096
     34 H11         2.1600   -3.6489   -6.2286 H         1 <0>         0.1069
     35 H12         4.7802    0.1864   -6.5139 H         1 <0>         0.1184
     36 H13         6.5489    1.8979   -6.4887 H         1 <0>         0.1269
     37 H14         5.9599    4.2757   -6.2499 H         1 <0>         0.1271
     38 H15         3.6019    4.9482   -6.0374 H         1 <0>         0.1330
     39 H16         1.8261    3.2442   -6.0729 H         1 <0>         0.1326
@<TRIPOS>BOND
     1    1    2 1
     2    1   24 1
     3    1   25 1
     4    1   26 1
     5    2    3 2
     6    2    4 2
     7    2    5 1
     8    5   10 ar
     9    5    6 ar
    10    6    7 ar
    11    6   27 1
    12    7    8 ar
    13    7   28 1
    14    8    9 ar
    15    8   11 1
    16    9   10 ar
    17    9   29 1
    18   10   30 1
    19   11   16 1
    20   11   12 2
    21   12   13 1
    22   12   17 1
    23   13   14 2
    24   13   15 1
    25   15   16 1
    26   15   31 1
    27   15   32 1
    28   16   33 1
    29   16   34 1
    30   17   18 1
    31   18   23 ar
    32   18   19 ar
    33   19   20 ar
    34   19   35 1
    35   20   21 ar
    36   20   36 1
    37   21   22 ar
    38   21   37 1
    39   22   23 ar
    40   22   38 1
    41   23   39 1
@<TRIPOS>MOLECULE
CHEMBL6
   40    42     0     0     0
SMALL
USER_CHARGES

@<TRIPOS>ATOM
      1 C1         -0.0182    1.5027    0.0102 C.3       1 <0>        -0.0883
      2 C2          0.0021   -0.0042    0.0020 C.2       1 <0>         0.0711
      3 C3          0.0074   -0.7679   -1.0995 C.2       1 <0>        -0.0782
      4 C4          0.0293   -2.1662   -0.6567 C.ar      1 <0>        -0.0368
      5 C5          0.0428   -3.3917   -1.3243 C.ar      1 <0>        -0.0938
      6 C6          0.0625   -4.5656   -0.5961 C.ar      1 <0>         0.0956
      7 C7          0.0688   -4.5275    0.7953 C.ar      1 <0>        -0.1804
      8 C8          0.0551   -3.3226    1.4635 C.ar      1 <0>        -0.0946
      9 C9          0.0357   -2.1316    0.7482 C.ar      1 <0>         0.0803
     10 N1          0.0240   -0.7990    1.1223 N.am      1 <0>        -0.5123
     11 C10         0.0297   -0.3494    2.3928 C.2       1 <0>         0.6115
     12 O1         -1.0174   -0.0751    2.9450 O.2       1 <0>        -0.4412
     13 C11         1.3084   -0.1902    3.1139 C.ar      1 <0>        -0.1622
     14 C12         2.5190   -0.3985    2.4491 C.ar      1 <0>        -0.0360
     15 C13         3.7097   -0.2483    3.1279 C.ar      1 <0>        -0.1193
     16 C14         3.7070    0.1084    4.4664 C.ar      1 <0>         0.0005
     17 C15         2.5096    0.3160    5.1314 C.ar      1 <0>        -0.1284
     18 C16         1.3125    0.1750    4.4621 C.ar      1 <0>        -0.0426
     19 Cl1         5.2103    0.2955    5.3141 Cl        1 <0>        -0.0622
     20 O2          0.0753   -5.7626   -1.2410 O.3       1 <0>        -0.3182
     21 C17         0.0954   -6.9375   -0.4278 C.3       1 <0>         0.0304
     22 C18        -0.0069   -0.2812   -2.5257 C.3       1 <0>        -0.1253
     23 C19         1.4090   -0.0991   -3.0085 C.2       1 <0>         0.4982
     24 O3          2.3431   -0.3421   -2.2636 O.co2     1 <0>        -0.6866
     25 O4          1.6204    0.2911   -4.1441 O.co2     1 <0>        -0.7049
     26 H1          1.0044    1.8799    0.0025 H         1 <0>         0.0804
     27 H2         -0.5453    1.8638   -0.8729 H         1 <0>         0.0881
     28 H3         -0.5284    1.8543    0.9070 H         1 <0>         0.0568
     29 H4          0.0376   -3.4222   -2.4038 H         1 <0>         0.1332
     30 H5          0.0842   -5.4504    1.3560 H         1 <0>         0.1288
     31 H6          0.0595   -3.3039    2.5434 H         1 <0>         0.1161
     32 H7          2.5224   -0.6770    1.4056 H         1 <0>         0.1519
     33 H8          4.6464   -0.4095    2.6151 H         1 <0>         0.1453
     34 H9          2.5140    0.5936    6.1751 H         1 <0>         0.1420
     35 H10         0.3798    0.3418    4.9804 H         1 <0>         0.1449
     36 H11         0.9887   -6.9318    0.1968 H         1 <0>         0.0516
     37 H12        -0.7911   -6.9558    0.2062 H         1 <0>         0.0506
     38 H13         0.1040   -7.8210   -1.0660 H         1 <0>         0.0947
     39 H14        -0.5139   -1.0132   -3.1543 H         1 <0>         0.0698
     40 H15        -0.5343    0.6712   -2.5793 H         1 <0>         0.0692
@<TRIPOS>BOND
     1    1    2 1
     2    1   26 1
     3    1   27 1
     4    1   28 1
     5    2   10 1
     6    2    3 2
     7    3    4 1
     8    3   22 1
     9    4    9 ar
    10    4    5 ar
    11    5    6 ar
    12    5   29 1
    13    6    7 ar
    14    6   20 1
    15    7    8 ar
    16    7   30 1
    17    8    9 ar
    18    8   31 1
    19    9   10 1
    20   10   11 am
    21   11   12 2
    22   11   13 1
    23   13   18 ar
    24   13   14 ar
    25   14   15 ar
    26   14   32 1
    27   15   16 ar
    28   15   33 1
    29   16   17 ar
    30   16   19 1
    31   17   18 ar
    32   17   34 1
    33   18   35 1
    34   20   21 1
    35   21   36 1
    36   21   37 1
    37   21   38 1
    38   22   23 1
    39   22   39 1
    40   22   40 1
    41   23   24 2
    42   23   25 1
@<TRIPOS>MOLECULE
CHEMBL428710
   37    39     0     0     0
SMALL
USER_CHARGES

@<TRIPOS>ATOM
      1 C1         -0.0225    1.8097    0.0120 C.3       1 <0>        -0.6502
      2 S1          0.0021   -0.0041    0.0020 S.o2      1 <0>         2.4978
      3 O1          0.8352   -0.4880    1.0465 O.2       1 <0>        -0.9375
      4 O2         -1.3147   -0.5105   -0.1678 O.2       1 <0>        -0.9371
      5 C2          0.8454   -0.4373   -1.4831 C.ar      1 <0>        -0.6512
      6 C3          0.1295   -0.6119   -2.6552 C.ar      1 <0>        -0.0260
      7 C4          0.7811   -0.9504   -3.8216 C.ar      1 <0>        -0.0765
      8 C5          2.1717   -1.1177   -3.8187 C.ar      1 <0>         0.0143
      9 C6          2.8880   -0.9392   -2.6285 C.ar      1 <0>        -0.1171
     10 C7          2.2208   -0.5956   -1.4724 C.ar      1 <0>        -0.0245
     11 C8          2.8741   -1.4785   -5.0556 C.2       1 <0>         0.0387
     12 C9          2.9605   -0.6926   -6.1591 C.2       1 <0>        -0.1743
     13 C10         3.7261   -1.3358   -7.2212 C.2       1 <0>         0.4023
     14 O3          3.9641   -0.8679   -8.3156 O.2       1 <0>        -0.4360
     15 C11         4.1708   -2.6899   -6.7147 C.3       1 <0>        -0.1738
     16 C12         3.6112   -2.7742   -5.2849 C.3       1 <0>        -0.1023
     17 C13         2.3516    0.6527   -6.2712 C.ar      1 <0>         0.1878
     18 C14         2.4931    1.3796   -7.4526 C.ar      1 <0>        -0.1496
     19 C15         1.9179    2.6362   -7.5418 C.ar      1 <0>         0.0084
     20 C16         1.2190    3.1250   -6.4445 C.ar      1 <0>        -0.1635
     21 C17         1.1185    2.3500   -5.3049 C.ar      1 <0>         0.1159
     22 N1          1.6708    1.1547   -5.2479 N.ar      1 <0>        -0.4673
     23 Cl1         2.0671    3.5798   -8.9913 Cl        1 <0>        -0.0453
     24 H1          1.0001    2.1870    0.0043 H         1 <0>         0.1315
     25 H2         -0.5497    2.1708   -0.8711 H         1 <0>         0.1314
     26 H3         -0.5327    2.1613    0.9088 H         1 <0>         0.1330
     27 H4         -0.9428   -0.4828   -2.6555 H         1 <0>         0.1426
     28 H5          0.2211   -1.0865   -4.7349 H         1 <0>         0.1277
     29 H6          3.9604   -1.0662   -2.6175 H         1 <0>         0.1333
     30 H7          2.7720   -0.4532   -0.5547 H         1 <0>         0.1438
     31 H8          3.7558   -3.4831   -7.3365 H         1 <0>         0.1164
     32 H9          5.2590   -2.7501   -6.6968 H         1 <0>         0.1158
     33 H10         4.4240   -2.8768   -4.5659 H         1 <0>         0.1068
     34 H11         2.9253   -3.6171   -5.2010 H         1 <0>         0.1068
     35 H12         3.0437    0.9687   -8.2859 H         1 <0>         0.1636
     36 H13         0.7591    4.1014   -6.4820 H         1 <0>         0.1474
     37 H14         0.5763    2.7273   -4.4505 H         1 <0>         0.1670
@<TRIPOS>BOND
     1    1    2 1
     2    1   24 1
     3    1   25 1
     4    1   26 1
     5    2    3 2
     6    2    4 2
     7    2    5 1
     8    5   10 ar
     9    5    6 ar
    10    6    7 ar
    11    6   27 1
    12    7    8 ar
    13    7   28 1
    14    8    9 ar
    15    8   11 1
    16    9   10 ar
    17    9   29 1
    18   10   30 1
    19   11   16 1
    20   11   12 2
    21   12   13 1
    22   12   17 1
    23   13   14 2
    24   13   15 1
    25   15   16 1
    26   15   31 1
    27   15   32 1
    28   16   33 1
    29   16   34 1
    30   17   22 ar
    31   17   18 ar
    32   18   19 ar
    33   18   35 1
    34   19   20 ar
    35   19   23 1
    36   20   21 ar
    37   20   36 1
    38   21   22 ar
    39   21   37 1
@<TRIPOS>MOLECULE
CHEMBL314337
   79    83     0     0     0
SMALL
USER_CHARGES

@<TRIPOS>ATOM
      1 C1          0.0355    0.3598    0.4967 C.3       1 <0>        -0.1528
      2 C2          0.3364   -1.1291    0.3133 C.3       1 <0>        -0.0553
      3 C3          1.2628   -1.6040    1.4345 C.3       1 <0>        -0.1545
      4 C4         -0.9706   -1.9231    0.3609 C.3       1 <0>        -0.1401
      5 C5          1.0178   -1.3490   -1.0388 C.3       1 <0>        -0.1500
      6 C6          2.3051   -0.5669   -1.0857 C.2       1 <0>         0.4179
      7 O1          2.6445    0.1014   -0.1306 O.2       1 <0>        -0.4466
      8 C7          3.1194   -0.6114   -2.2445 C.2       1 <0>        -0.2907
      9 C8          2.8528   -1.3630   -3.4868 C.ar      1 <0>        -0.0187
     10 C9          1.8223   -2.1985   -3.9078 C.ar      1 <0>        -0.1218
     11 C10         1.8723   -2.7634   -5.1687 C.ar      1 <0>         0.1133
     12 C11         2.9472   -2.4977   -6.0115 C.ar      1 <0>        -0.1931
     13 C12         3.9712   -1.6724   -5.6024 C.ar      1 <0>        -0.0749
     14 C13         3.9366   -1.0952   -4.3368 C.ar      1 <0>         0.0542
     15 N1          4.7959   -0.2469   -3.6648 N.pl3     1 <0>        -0.4534
     16 C14         4.3170    0.0434   -2.4406 C.2       1 <0>         0.2270
     17 C15         4.9891    0.9436   -1.4362 C.3       1 <0>        -0.0468
     18 C16         5.9316    0.1160   -0.5600 C.3       1 <0>        -0.1187
     19 C17         5.1509   -1.0284    0.0895 C.3       1 <0>        -0.1224
     20 C18         7.0566   -0.4592   -1.4228 C.3       1 <0>        -0.1308
     21 C19         6.5209    0.9947    0.5132 C.2       1 <0>         0.5092
     22 O2          6.2153    2.1735    0.5719 O.co2     1 <0>        -0.6937
     23 O3          7.3032    0.5267    1.3229 O.co2     1 <0>        -0.6944
     24 C20         6.0524    0.2707   -4.2121 C.3       1 <0>         0.1267
     25 C21         5.7718    1.4980   -5.0403 C.ar      1 <0>        -0.1082
     26 C22         5.3975    1.3672   -6.3646 C.ar      1 <0>        -0.0874
     27 C23         5.1400    2.4925   -7.1247 C.ar      1 <0>        -0.1137
     28 C24         5.2569    3.7500   -6.5599 C.ar      1 <0>        -0.0263
     29 C25         5.6316    3.8804   -5.2345 C.ar      1 <0>        -0.1074
     30 C26         5.8833    2.7541   -4.4738 C.ar      1 <0>        -0.0823
     31 Cl1         4.9343    5.1639   -7.5141 Cl        1 <0>        -0.0719
     32 O4          0.8691   -3.5809   -5.5860 O.3       1 <0>        -0.3130
     33 C27         0.9842   -4.1306   -6.9000 C.3       1 <0>         0.1122
     34 C28        -0.2102   -5.0040   -7.1856 C.ar      1 <0>         0.1641
     35 C29        -1.1955   -5.1454   -6.2107 C.ar      1 <0>        -0.1508
     36 C30        -2.2850   -5.9329   -6.4520 C.ar      1 <0>        -0.0574
     37 C31        -2.3720   -6.5826   -7.6978 C.ar      1 <0>        -0.1043
     38 C32        -3.4624   -7.4076   -8.0175 C.ar      1 <0>        -0.0948
     39 C33        -3.5102   -8.0183   -9.2333 C.ar      1 <0>        -0.1183
     40 C34        -2.4907   -7.8357  -10.1658 C.ar      1 <0>        -0.1017
     41 C35        -1.4195   -7.0436   -9.8889 C.ar      1 <0>        -0.0929
     42 C36        -1.3343   -6.3954   -8.6442 C.ar      1 <0>         0.1322
     43 N2         -0.2971   -5.6064   -8.3466 N.ar      1 <0>        -0.4725
     44 H1          0.9666    0.9255    0.4627 H         1 <0>         0.0847
     45 H2         -0.6245    0.6982   -0.3021 H         1 <0>         0.0427
     46 H3         -0.4499    0.5165    1.4599 H         1 <0>         0.0473
     47 H4          0.7774   -1.4473    2.3978 H         1 <0>         0.0472
     48 H5          1.4771   -2.6647    1.3039 H         1 <0>         0.0440
     49 H6          2.1939   -1.0383    1.4006 H         1 <0>         0.0866
     50 H7         -1.6306   -1.5847   -0.4379 H         1 <0>         0.0508
     51 H8         -0.7562   -2.9838    0.2303 H         1 <0>         0.0515
     52 H9         -1.4560   -1.7664    1.3242 H         1 <0>         0.0530
     53 H10         1.2321   -2.4097   -1.1694 H         1 <0>         0.0888
     54 H11         0.3578   -1.0106   -1.8376 H         1 <0>         0.0881
     55 H12         0.9885   -2.4047   -3.2531 H         1 <0>         0.1345
     56 H13         2.9790   -2.9428   -6.9950 H         1 <0>         0.1302
     57 H14         4.8012   -1.4733   -6.2641 H         1 <0>         0.1208
     58 H15         5.5597    1.7104   -1.9601 H         1 <0>         0.0682
     59 H16         4.2332    1.4175   -0.8099 H         1 <0>         0.1165
     60 H17         4.6500   -1.6112   -0.6836 H         1 <0>         0.0377
     61 H18         5.8383   -1.6704    0.6404 H         1 <0>         0.0458
     62 H19         4.4083   -0.6189    0.7743 H         1 <0>         0.0664
     63 H20         7.6608    0.3553   -1.8223 H         1 <0>         0.0450
     64 H21         7.6830   -1.1121   -0.8151 H         1 <0>         0.0612
     65 H22         6.6273   -1.0307   -2.2458 H         1 <0>         0.0370
     66 H23         6.7252    0.5300   -3.3946 H         1 <0>         0.1213
     67 H24         6.5175   -0.4912   -4.8376 H         1 <0>         0.0999
     68 H25         5.3066    0.3855   -6.8055 H         1 <0>         0.1301
     69 H26         4.8480    2.3901   -8.1594 H         1 <0>         0.1336
     70 H27         5.7233    4.8618   -4.7931 H         1 <0>         0.1381
     71 H28         6.1711    2.8556   -3.4378 H         1 <0>         0.1418
     72 H29         1.0259   -3.3220   -7.6297 H         1 <0>         0.0875
     73 H30         1.8944   -4.7267   -6.9659 H         1 <0>         0.0878
     74 H31        -1.0977   -4.6330   -5.2650 H         1 <0>         0.1506
     75 H32        -3.0581   -6.0540   -5.7077 H         1 <0>         0.1421
     76 H33        -4.2584   -7.5570   -7.3030 H         1 <0>         0.1307
     77 H34        -4.3491   -8.6529   -9.4783 H         1 <0>         0.1276
     78 H35        -2.5517   -8.3311  -11.1235 H         1 <0>         0.1300
     79 H36        -0.6377   -6.9133  -10.6225 H         1 <0>         0.1357
@<TRIPOS>BOND
     1    1    2 1
     2    1   44 1
     3    1   45 1
     4    1   46 1
     5    2    3 1
     6    2    4 1
     7    2    5 1
     8    3   47 1
     9    3   48 1
    10    3   49 1
    11    4   50 1
    12    4   51 1
    13    4   52 1
    14    5    6 1
    15    5   53 1
    16    5   54 1
    17    6    7 2
    18    6    8 1
    19    8   16 2
    20    8    9 1
    21    9   14 ar
    22    9   10 ar
    23   10   11 ar
    24   10   55 1
    25   11   12 ar
    26   11   32 1
    27   12   13 ar
    28   12   56 1
    29   13   14 ar
    30   13   57 1
    31   14   15 1
    32   15   16 1
    33   15   24 1
    34   16   17 1
    35   17   18 1
    36   17   58 1
    37   17   59 1
    38   18   19 1
    39   18   20 1
    40   18   21 1
    41   19   60 1
    42   19   61 1
    43   19   62 1
    44   20   63 1
    45   20   64 1
    46   20   65 1
    47   21   22 2
    48   21   23 1
    49   24   25 1
    50   24   66 1
    51   24   67 1
    52   25   30 ar
    53   25   26 ar
    54   26   27 ar
    55   26   68 1
    56   27   28 ar
    57   27   69 1
    58   28   29 ar
    59   28   31 1
    60   29   30 ar
    61   29   70 1
    62   30   71 1
    63   32   33 1
    64   33   34 1
    65   33   72 1
    66   33   73 1
    67   34   43 ar
    68   34   35 ar
    69   35   36 ar
    70   35   74 1
    71   36   37 ar
    72   36   75 1
    73   37   42 ar
    74   37   38 ar
    75   38   39 ar
    76   38   76 1
    77   39   40 ar
    78   39   77 1
    79   40   41 ar
    80   40   78 1
    81   41   42 ar
    82   41   79 1
    83   42   43 ar
@<TRIPOS>MOLECULE
CHEMBL363971
   46    49     0     0     0
SMALL
USER_CHARGES

@<TRIPOS>ATOM
      1 C1          1.2708    1.2540    0.8577 C.3       1 <0>        -0.6489
      2 S1          0.2941   -0.1217    0.1914 S.o2      1 <0>         2.4975
      3 O1          0.4621   -1.2780    1.0000 O.2       1 <0>        -0.9344
      4 O2         -1.0049    0.3289   -0.1674 O.2       1 <0>        -0.9349
      5 C2          1.0679   -0.5270   -1.3389 C.ar      1 <0>        -0.6500
      6 C3          0.6614    0.0996   -2.5035 C.ar      1 <0>        -0.0191
      7 C4          1.2632   -0.2132   -3.7049 C.ar      1 <0>        -0.1103
      8 C5          2.2840   -1.1638   -3.7437 C.ar      1 <0>        -0.0106
      9 C6          2.6893   -1.7921   -2.5656 C.ar      1 <0>        -0.1163
     10 C7          2.0833   -1.4663   -1.3698 C.ar      1 <0>        -0.0183
     11 C8          2.9337   -1.5046   -5.0293 C.2       1 <0>         0.0807
     12 C9          2.7768   -2.7841   -5.5977 C.2       1 <0>        -0.2338
     13 C10         3.3831   -3.0777   -6.7815 C.2       1 <0>         0.2089
     14 O3          4.1344   -2.1675   -7.4265 O.3       1 <0>        -0.2553
     15 C11         4.3190   -0.9317   -6.9317 C.2       1 <0>         0.5103
     16 O4          5.0056   -0.1290   -7.5398 O.2       1 <0>        -0.4544
     17 C12         3.7130   -0.5597   -5.7097 C.2       1 <0>        -0.1883
     18 C13         3.9026    0.7994   -5.1573 C.ar      1 <0>        -0.0770
     19 C14         3.3620    1.9144   -5.8090 C.ar      1 <0>        -0.0487
     20 C15         3.5674    3.1635   -5.2509 C.ar      1 <0>        -0.1679
     21 C16         4.2935    3.2702   -4.0780 C.ar      1 <0>         0.1032
     22 N1          4.7913    2.2018   -3.4857 N.ar      1 <0>        -0.4795
     23 C17         4.6183    0.9913   -3.9749 C.ar      1 <0>         0.1215
     24 C18         3.2126   -4.4214   -7.3678 C.ar      1 <0>        -0.0803
     25 C19         2.4315   -5.3781   -6.7149 C.ar      1 <0>        -0.0794
     26 C20         2.2766   -6.6317   -7.2686 C.ar      1 <0>        -0.1214
     27 C21         2.8926   -6.9429   -8.4681 C.ar      1 <0>        -0.0891
     28 C22         3.6681   -6.0004   -9.1202 C.ar      1 <0>        -0.1221
     29 C23         3.8268   -4.7407   -8.5812 C.ar      1 <0>        -0.0753
     30 H1          2.3022    0.9317    1.0004 H         1 <0>         0.1332
     31 H2          1.2447    2.0901    0.1589 H         1 <0>         0.1320
     32 H3          0.8523    1.5669    1.8143 H         1 <0>         0.1352
     33 H4         -0.1290    0.8349   -2.4722 H         1 <0>         0.1475
     34 H5          0.9448    0.2763   -4.6134 H         1 <0>         0.1349
     35 H6          3.4788   -2.5287   -2.5892 H         1 <0>         0.1399
     36 H7          2.3994   -1.9484   -0.4566 H         1 <0>         0.1495
     37 H8          2.1780   -3.5299   -5.0961 H         1 <0>         0.1641
     38 H9          2.7994    1.8022   -6.7240 H         1 <0>         0.1339
     39 H10         3.1655    4.0462   -5.7260 H         1 <0>         0.1401
     40 H11         4.4556    4.2441   -3.6404 H         1 <0>         0.1588
     41 H12         5.0374    0.1402   -3.4586 H         1 <0>         0.1518
     42 H13         1.9504   -5.1367   -5.7786 H         1 <0>         0.1348
     43 H14         1.6733   -7.3724   -6.7648 H         1 <0>         0.1352
     44 H15         2.7679   -7.9261   -8.8971 H         1 <0>         0.1318
     45 H16         4.1463   -6.2502  -10.0558 H         1 <0>         0.1337
     46 H17         4.4283   -4.0045   -9.0937 H         1 <0>         0.1365
@<TRIPOS>BOND
     1    1    2 1
     2    1   30 1
     3    1   31 1
     4    1   32 1
     5    2    3 2
     6    2    4 2
     7    2    5 1
     8    5   10 ar
     9    5    6 ar
    10    6    7 ar
    11    6   33 1
    12    7    8 ar
    13    7   34 1
    14    8    9 ar
    15    8   11 1
    16    9   10 ar
    17    9   35 1
    18   10   36 1
    19   11   17 2
    20   11   12 1
    21   12   13 2
    22   12   37 1
    23   13   14 1
    24   13   24 1
    25   14   15 1
    26   15   16 2
    27   15   17 1
    28   17   18 1
    29   18   23 ar
    30   18   19 ar
    31   19   20 ar
    32   19   38 1
    33   20   21 ar
    34   20   39 1
    35   21   22 ar
    36   21   40 1
    37   22   23 ar
    38   23   41 1
    39   24   29 ar
    40   24   25 ar
    41   25   26 ar
    42   25   42 1
    43   26   27 ar
    44   26   43 1
    45   27   28 ar
    46   27   44 1
    47   28   29 ar
    48   28   45 1
    49   29   46 1
@<TRIPOS>MOLECULE
CHEMBL561055
   47    50     0     0     0
SMALL
USER_CHARGES

@<TRIPOS>ATOM
      1 C1         -0.0225    1.8097    0.0120 C.3       1 <0>        -0.6495
      2 S1          0.0021   -0.0041    0.0020 S.o2      1 <0>         2.4982
      3 O1          0.8352   -0.4880    1.0465 O.2       1 <0>        -0.9348
      4 O2         -1.3147   -0.5105   -0.1678 O.2       1 <0>        -0.9344
      5 C2          0.8454   -0.4373   -1.4831 C.ar      1 <0>        -0.6520
      6 C3          0.1346   -0.6126   -2.6557 C.ar      1 <0>        -0.0175
      7 C4          0.7962   -0.9525   -3.8208 C.ar      1 <0>        -0.1141
      8 C5          2.1688   -1.1167   -3.8136 C.ar      1 <0>        -0.0528
      9 C6          2.8797   -0.9405   -2.6412 C.ar      1 <0>        -0.1203
     10 C7          2.2186   -0.5964   -1.4770 C.ar      1 <0>        -0.0160
     11 C8          2.8899   -1.4882   -5.0836 C.3       1 <0>         0.1936
     12 N1          4.0762   -2.2717   -4.7569 N.am      1 <0>        -0.5898
     13 C9          5.2484   -1.7510   -4.3985 C.2       1 <0>         0.5598
     14 O3          6.1474   -2.5218   -4.1222 O.2       1 <0>        -0.5173
     15 C10         5.5330   -0.3149   -4.3136 C.ar      1 <0>        -0.1322
     16 C11         6.6038    0.1496   -3.5430 C.ar      1 <0>        -0.0452
     17 C12         6.8649    1.5000   -3.4729 C.ar      1 <0>        -0.1208
     18 C13         6.0759    2.4089   -4.1611 C.ar      1 <0>        -0.0767
     19 C14         5.0135    1.9697   -4.9257 C.ar      1 <0>        -0.0961
     20 C15         4.7359    0.6139   -5.0041 C.ar      1 <0>        -0.0653
     21 S2          3.3798    0.0229   -5.9650 S.3       1 <0>        -0.0730
     22 C16         3.9708   -3.7312   -4.8275 C.3       1 <0>         0.1476
     23 C17         4.3345   -4.1946   -6.2146 C.ar      1 <0>        -0.1122
     24 C18         3.3566   -4.3029   -7.1856 C.ar      1 <0>        -0.1070
     25 C19         3.6901   -4.7280   -8.4580 C.ar      1 <0>        -0.1217
     26 C20         5.0016   -5.0443   -8.7594 C.ar      1 <0>        -0.1118
     27 C21         5.9796   -4.9351   -7.7886 C.ar      1 <0>        -0.1217
     28 C22         5.6468   -4.5060   -6.5174 C.ar      1 <0>        -0.0920
     29 H1          1.0001    2.1870    0.0043 H         1 <0>         0.1318
     30 H2         -0.5497    2.1708   -0.8711 H         1 <0>         0.1327
     31 H3         -0.5327    2.1613    0.9088 H         1 <0>         0.1349
     32 H4         -0.9378   -0.4844   -2.6614 H         1 <0>         0.1488
     33 H5          0.2407   -1.0902   -4.7367 H         1 <0>         0.1395
     34 H6          3.9520   -1.0690   -2.6355 H         1 <0>         0.1264
     35 H7          2.7745   -0.4551   -0.5619 H         1 <0>         0.1451
     36 H8          2.2284   -2.0793   -5.7168 H         1 <0>         0.1470
     37 H9          7.2250   -0.5498   -3.0033 H         1 <0>         0.1420
     38 H10         7.6925    1.8543   -2.8763 H         1 <0>         0.1372
     39 H11         6.2931    3.4650   -4.0985 H         1 <0>         0.1376
     40 H12         4.4006    2.6801   -5.4606 H         1 <0>         0.1381
     41 H13         4.6518   -4.1800   -4.1043 H         1 <0>         0.1061
     42 H14         2.9485   -4.0331   -4.5999 H         1 <0>         0.0916
     43 H15         2.3320   -4.0557   -6.9501 H         1 <0>         0.1180
     44 H16         2.9260   -4.8133   -9.2165 H         1 <0>         0.1234
     45 H17         5.2621   -5.3771   -9.7533 H         1 <0>         0.1227
     46 H18         7.0042   -5.1826   -8.0241 H         1 <0>         0.1230
     47 H19         6.4115   -4.4171   -5.7600 H         1 <0>         0.1289
@<TRIPOS>BOND
     1    1    2 1
     2    1   29 1
     3    1   30 1
     4    1   31 1
     5    2    3 2
     6    2    4 2
     7    2    5 1
     8    5   10 ar
     9    5    6 ar
    10    6    7 ar
    11    6   32 1
    12    7    8 ar
    13    7   33 1
    14    8    9 ar
    15    8   11 1
    16    9   10 ar
    17    9   34 1
    18   10   35 1
    19   11   21 1
    20   11   12 1
    21   11   36 1
    22   12   13 am
    23   12   22 1
    24   13   14 2
    25   13   15 1
    26   15   20 ar
    27   15   16 ar
    28   16   17 ar
    29   16   37 1
    30   17   18 ar
    31   17   38 1
    32   18   19 ar
    33   18   39 1
    34   19   20 ar
    35   19   40 1
    36   20   21 1
    37   22   23 1
    38   22   41 1
    39   22   42 1
    40   23   28 ar
    41   23   24 ar
    42   24   25 ar
    43   24   43 1
    44   25   26 ar
    45   25   44 1
    46   26   27 ar
    47   26   45 1
    48   27   28 ar
    49   27   46 1
    50   28   47 1
@<TRIPOS>MOLECULE
CHEMBL561055__1
   47    50     0     0     0
SMALL
USER_CHARGES

@<TRIPOS>ATOM
      1 C1         -0.0225    1.8097    0.0120 C.3       1 <0>        -0.6498
      2 S1          0.0021   -0.0041    0.0020 S.o2      1 <0>         2.4963
      3 O1          0.8352   -0.4880    1.0465 O.2       1 <0>        -0.9355
      4 O2         -1.3147   -0.5105   -0.1678 O.2       1 <0>        -0.9349
      5 C2          0.8454   -0.4373   -1.4831 C.ar      1 <0>        -0.6503
      6 C3          0.1346   -0.6126   -2.6557 C.ar      1 <0>        -0.0177
      7 C4          0.7962   -0.9525   -3.8208 C.ar      1 <0>        -0.1157
      8 C5          2.1688   -1.1167   -3.8136 C.ar      1 <0>        -0.0475
      9 C6          2.8797   -0.9405   -2.6412 C.ar      1 <0>        -0.1121
     10 C7          2.2186   -0.5964   -1.4770 C.ar      1 <0>        -0.0149
     11 C8          2.8899   -1.4882   -5.0836 C.3       1 <0>         0.1930
     12 N1          4.2381   -0.9317   -5.0570 N.am      1 <0>        -0.5901
     13 C9          5.2782   -1.5042   -4.4538 C.2       1 <0>         0.5609
     14 O3          6.3413   -0.9145   -4.4814 O.2       1 <0>        -0.5173
     15 C10         5.2335   -2.7945   -3.7582 C.ar      1 <0>        -0.1333
     16 C11         6.2088   -3.1213   -2.8104 C.ar      1 <0>        -0.0453
     17 C12         6.1600   -4.3372   -2.1656 C.ar      1 <0>        -0.1200
     18 C13         5.1509   -5.2457   -2.4461 C.ar      1 <0>        -0.0756
     19 C14         4.1783   -4.9406   -3.3774 C.ar      1 <0>        -0.0946
     20 C15         4.2125   -3.7201   -4.0335 C.ar      1 <0>        -0.0659
     21 S2          2.9788   -3.2975   -5.2214 S.3       1 <0>        -0.0754
     22 C16         4.4631    0.3445   -5.7402 C.3       1 <0>         0.1485
     23 C17         4.2291    1.4787   -4.7759 C.ar      1 <0>        -0.1101
     24 C18         2.9670    2.0279   -4.6480 C.ar      1 <0>        -0.0999
     25 C19         2.7524    3.0683   -3.7634 C.ar      1 <0>        -0.1243
     26 C20         3.7997    3.5591   -3.0064 C.ar      1 <0>        -0.1132
     27 C21         5.0616    3.0092   -3.1336 C.ar      1 <0>        -0.1230
     28 C22         5.2753    1.9660   -4.0150 C.ar      1 <0>        -0.0918
     29 H1          1.0001    2.1870    0.0043 H         1 <0>         0.1317
     30 H2         -0.5497    2.1708   -0.8711 H         1 <0>         0.1323
     31 H3         -0.5327    2.1613    0.9088 H         1 <0>         0.1345
     32 H4         -0.9378   -0.4844   -2.6614 H         1 <0>         0.1470
     33 H5          0.2407   -1.0902   -4.7367 H         1 <0>         0.1379
     34 H6          3.9520   -1.0690   -2.6355 H         1 <0>         0.1240
     35 H7          2.7745   -0.4551   -0.5619 H         1 <0>         0.1418
     36 H8          2.3484   -1.0853   -5.9395 H         1 <0>         0.1478
     37 H9          6.9994   -2.4211   -2.5848 H         1 <0>         0.1414
     38 H10         6.9148   -4.5852   -1.4341 H         1 <0>         0.1373
     39 H11         5.1257   -6.1963   -1.9341 H         1 <0>         0.1382
     40 H12         3.3935   -5.6503   -3.5937 H         1 <0>         0.1387
     41 H13         5.4890    0.3847   -6.1063 H         1 <0>         0.1051
     42 H14         3.7739    0.4336   -6.5800 H         1 <0>         0.0917
     43 H15         2.1487    1.6445   -5.2395 H         1 <0>         0.1170
     44 H16         1.7665    3.4979   -3.6640 H         1 <0>         0.1207
     45 H17         3.6322    4.3723   -2.3158 H         1 <0>         0.1211
     46 H18         5.8799    3.3928   -2.5423 H         1 <0>         0.1221
     47 H19         6.2604    1.5339   -4.1117 H         1 <0>         0.1295
@<TRIPOS>BOND
     1    1    2 1
     2    1   29 1
     3    1   30 1
     4    1   31 1
     5    2    3 2
     6    2    4 2
     7    2    5 1
     8    5   10 ar
     9    5    6 ar
    10    6    7 ar
    11    6   32 1
    12    7    8 ar
    13    7   33 1
    14    8    9 ar
    15    8   11 1
    16    9   10 ar
    17    9   34 1
    18   10   35 1
    19   11   21 1
    20   11   12 1
    21   11   36 1
    22   12   13 am
    23   12   22 1
    24   13   14 2
    25   13   15 1
    26   15   20 ar
    27   15   16 ar
    28   16   17 ar
    29   16   37 1
    30   17   18 ar
    31   17   38 1
    32   18   19 ar
    33   18   39 1
    34   19   20 ar
    35   19   40 1
    36   20   21 1
    37   22   23 1
    38   22   41 1
    39   22   42 1
    40   23   28 ar
    41   23   24 ar
    42   24   25 ar
    43   24   43 1
    44   25   26 ar
    45   25   44 1
    46   26   27 ar
    47   26   45 1
    48   27   28 ar
    49   27   46 1
    50   28   47 1
@<TRIPOS>MOLECULE
CHEMBL341652
   37    40     0     0     0
SMALL
USER_CHARGES

@<TRIPOS>ATOM
      1 C1         -0.0167    1.3792    0.0096 C.ar      1 <0>        -0.1251
      2 C2          1.1686    2.0926    0.0021 C.ar      1 <0>        -0.1192
      3 C3          2.3774    1.4274   -0.0134 C.ar      1 <0>        -0.1107
      4 C4          2.4027    0.0332   -0.0211 C.ar      1 <0>        -0.0021
      5 C5          1.2047   -0.6804   -0.0130 C.ar      1 <0>        -0.1050
      6 C6          0.0021   -0.0041    0.0020 C.ar      1 <0>        -0.1183
      7 C7          3.6976   -0.6872   -0.0382 C.2       1 <0>        -0.1066
      8 C8          4.7817   -0.4503   -0.9138 C.2       1 <0>        -0.1628
      9 C9          5.7644   -1.3217   -0.5967 C.2       1 <0>         0.0042
     10 N1          5.3518   -2.0980    0.4447 N.pl3     1 <0>        -0.4566
     11 C10         4.0794   -1.7161    0.8031 C.2       1 <0>         0.0843
     12 C11         3.2668   -2.3018    1.8877 C.ar      1 <0>        -0.0194
     13 C12         3.1984   -3.6881    2.0429 C.ar      1 <0>        -0.1134
     14 C13         2.4373   -4.2284    3.0584 C.ar      1 <0>        -0.1180
     15 C14         1.7425   -3.4004    3.9223 C.ar      1 <0>        -0.1166
     16 C15         1.8057   -2.0261    3.7745 C.ar      1 <0>        -0.1156
     17 C16         2.5675   -1.4719    2.7669 C.ar      1 <0>        -0.0896
     18 C17         6.4007   -3.0588    0.8267 C.3       1 <0>         0.1031
     19 C18         7.3723   -3.1116   -0.3708 C.3       1 <0>        -0.1312
     20 C19         7.1665   -1.7215   -1.0123 C.3       1 <0>        -0.0605
     21 H1         -0.9604    1.9042    0.0260 H         1 <0>         0.1195
     22 H2          1.1477    3.1724    0.0081 H         1 <0>         0.1213
     23 H3          3.3021    1.9854   -0.0199 H         1 <0>         0.1217
     24 H4          1.2181   -1.7603   -0.0192 H         1 <0>         0.1169
     25 H5         -0.9264   -0.5557    0.0082 H         1 <0>         0.1200
     26 H6          4.8179    0.2933   -1.6962 H         1 <0>         0.1380
     27 H7          3.7399   -4.3355    1.3691 H         1 <0>         0.1158
     28 H8          2.3832   -5.3003    3.1793 H         1 <0>         0.1237
     29 H9          1.1477   -3.8289    4.7155 H         1 <0>         0.1235
     30 H10         1.2606   -1.3857    4.4521 H         1 <0>         0.1254
     31 H11         2.6195   -0.3989    2.6554 H         1 <0>         0.1246
     32 H12         6.9215   -2.7127    1.7194 H         1 <0>         0.0856
     33 H13         5.9648   -4.0424    1.0017 H         1 <0>         0.0854
     34 H14         8.4010   -3.2358   -0.0323 H         1 <0>         0.0967
     35 H15         7.0935   -3.9053   -1.0638 H         1 <0>         0.0844
     36 H16         7.2379   -1.7882   -2.0979 H         1 <0>         0.0894
     37 H17         7.8963   -1.0108   -0.6243 H         1 <0>         0.0871
@<TRIPOS>BOND
     1    1    6 ar
     2    1    2 ar
     3    1   21 1
     4    2    3 ar
     5    2   22 1
     6    3    4 ar
     7    3   23 1
     8    4    5 ar
     9    4    7 1
    10    5    6 ar
    11    5   24 1
    12    6   25 1
    13    7   11 2
    14    7    8 1
    15    8    9 2
    16    8   26 1
    17    9   20 1
    18    9   10 1
    19   10   11 1
    20   10   18 1
    21   11   12 1
    22   12   17 ar
    23   12   13 ar
    24   13   14 ar
    25   13   27 1
    26   14   15 ar
    27   14   28 1
    28   15   16 ar
    29   15   29 1
    30   16   17 ar
    31   16   30 1
    32   17   31 1
    33   18   19 1
    34   18   32 1
    35   18   33 1
    36   19   20 1
    37   19   34 1
    38   19   35 1
    39   20   36 1
    40   20   37 1
@<TRIPOS>MOLECULE
CHEMBL157129
   44    47     0     0     0
SMALL
USER_CHARGES

@<TRIPOS>ATOM
      1 C1         -0.0173    1.4248    0.0099 C.3       1 <0>         0.0240
      2 O1          0.0021   -0.0041    0.0020 O.3       1 <0>        -0.3128
      3 C2          0.6060   -0.6073   -1.0560 C.ar      1 <0>         0.1315
      4 C3          1.1727    0.1620   -2.0621 C.ar      1 <0>        -0.1892
      5 C4          1.7862   -0.4501   -3.1368 C.ar      1 <0>        -0.0651
      6 C5          1.8359   -1.8358   -3.2108 C.ar      1 <0>         0.1105
      7 C6          1.2685   -2.6051   -2.2037 C.ar      1 <0>        -0.0889
      8 C7          0.6603   -1.9919   -1.1266 C.ar      1 <0>        -0.1300
      9 N1          2.4583   -2.4580   -4.3024 N.pl3     1 <0>        -0.3079
     10 C8          3.1599   -3.6136   -4.2657 C.2       1 <0>         0.0876
     11 C9          3.5957   -3.8775   -5.5216 C.2       1 <0>        -0.2109
     12 C10         3.1481   -2.8462   -6.3609 C.2       1 <0>         0.1266
     13 N2          2.4583   -1.9949   -5.6266 N.2       1 <0>        -0.2724
     14 C11         3.4012   -2.7356   -7.8188 C.ar      1 <0>        -0.0106
     15 C12         4.6095   -3.1776   -8.3540 C.ar      1 <0>        -0.0824
     16 C13         4.8400   -3.0731   -9.7105 C.ar      1 <0>        -0.1089
     17 C14         3.8734   -2.5298  -10.5394 C.ar      1 <0>        -0.0268
     18 C15         2.6715   -2.0889  -10.0124 C.ar      1 <0>        -0.1104
     19 C16         2.4291   -2.1948   -8.6580 C.ar      1 <0>        -0.0780
     20 Cl1         4.1695   -2.4005  -12.2450 Cl        1 <0>        -0.0660
     21 C17         4.4155   -5.0866   -5.8971 C.3       1 <0>        -0.0338
     22 C18         4.3046   -6.1165   -4.7661 C.3       1 <0>         0.1059
     23 C19         4.5946   -5.4364   -3.4254 C.3       1 <0>        -0.1469
     24 C20         3.4404   -4.4908   -3.0710 C.3       1 <0>        -0.0570
     25 O2          5.2508   -7.1653   -4.9826 O.3       1 <0>        -0.5638
     26 H1          1.0053    1.8021    0.0021 H         1 <0>         0.0584
     27 H2         -0.5445    1.7859   -0.8732 H         1 <0>         0.0586
     28 H3         -0.5275    1.7763    0.9067 H         1 <0>         0.1044
     29 H4          1.1337    1.2397   -2.0046 H         1 <0>         0.1394
     30 H5          2.2270    0.1488   -3.9201 H         1 <0>         0.1374
     31 H6          1.3065   -3.6829   -2.2609 H         1 <0>         0.1390
     32 H7          0.2228   -2.5901   -0.3410 H         1 <0>         0.1437
     33 H8          5.3645   -3.6010   -7.7081 H         1 <0>         0.1385
     34 H9          5.7762   -3.4154  -10.1263 H         1 <0>         0.1396
     35 H10         1.9206   -1.6654  -10.6630 H         1 <0>         0.1379
     36 H11         1.4893   -1.8549   -8.2485 H         1 <0>         0.1360
     37 H12         4.0334   -5.5160   -6.8233 H         1 <0>         0.0827
     38 H13         5.4579   -4.7969   -6.0288 H         1 <0>         0.0822
     39 H14         3.2975   -6.5333   -4.7517 H         1 <0>         0.0596
     40 H15         4.6953   -6.1938   -2.6481 H         1 <0>         0.0803
     41 H16         5.5210   -4.8669   -3.4998 H         1 <0>         0.0787
     42 H17         3.7214   -3.8718   -2.2190 H         1 <0>         0.0893
     43 H18         2.5516   -5.0721   -2.8257 H         1 <0>         0.0896
     44 H19         5.2368   -7.8540   -4.3040 H         1 <0>         0.3807
@<TRIPOS>BOND
     1    1    2 1
     2    1   26 1
     3    1   27 1
     4    1   28 1
     5    2    3 1
     6    3    8 ar
     7    3    4 ar
     8    4    5 ar
     9    4   29 1
    10    5    6 ar
    11    5   30 1
    12    6    7 ar
    13    6    9 1
    14    7    8 ar
    15    7   31 1
    16    8   32 1
    17    9   13 1
    18    9   10 1
    19   10   24 1
    20   10   11 2
    21   11   12 1
    22   11   21 1
    23   12   13 2
    24   12   14 1
    25   14   19 ar
    26   14   15 ar
    27   15   16 ar
    28   15   33 1
    29   16   17 ar
    30   16   34 1
    31   17   18 ar
    32   17   20 1
    33   18   19 ar
    34   18   35 1
    35   19   36 1
    36   21   22 1
    37   21   37 1
    38   21   38 1
    39   22   23 1
    40   22   25 1
    41   22   39 1
    42   23   24 1
    43   23   40 1
    44   23   41 1
    45   24   42 1
    46   24   43 1
    47   25   44 1
@<TRIPOS>MOLECULE
CHEMBL157129__1
   44    47     0     0     0
SMALL
USER_CHARGES

@<TRIPOS>ATOM
      1 C1         -1.0932    0.6730   -0.1401 C.3       1 <0>         0.0239
      2 O1          0.2203    0.1392    0.0382 O.3       1 <0>        -0.3126
      3 C2          0.7792   -0.4933   -1.0274 C.ar      1 <0>         0.1341
      4 C3          0.0787   -0.5920   -2.2210 C.ar      1 <0>        -0.1910
      5 C4          0.6458   -1.2343   -3.3035 C.ar      1 <0>        -0.0625
      6 C5          1.9176   -1.7815   -3.1977 C.ar      1 <0>         0.1078
      7 C6          2.6182   -1.6824   -2.0029 C.ar      1 <0>        -0.0825
      8 C7          2.0523   -1.0350   -0.9228 C.ar      1 <0>        -0.1318
      9 N1          2.4939   -2.4343   -4.2966 N.pl3     1 <0>        -0.3101
     10 C8          3.1986   -3.5880   -4.2570 C.2       1 <0>         0.0887
     11 C9          3.5844   -3.8852   -5.5218 C.2       1 <0>        -0.2111
     12 C10         3.0978   -2.8796   -6.3706 C.2       1 <0>         0.1254
     13 N2          2.4363   -2.0094   -5.6323 N.2       1 <0>        -0.2711
     14 C11         3.2886   -2.8103   -7.8404 C.ar      1 <0>        -0.0098
     15 C12         3.1787   -3.9637   -8.6147 C.ar      1 <0>        -0.0811
     16 C13         3.3566   -3.8941   -9.9814 C.ar      1 <0>        -0.1088
     17 C14         3.6442   -2.6811  -10.5833 C.ar      1 <0>        -0.0270
     18 C15         3.7548   -1.5325   -9.8184 C.ar      1 <0>        -0.1101
     19 C16         3.5726   -1.5907   -8.4518 C.ar      1 <0>        -0.0781
     20 Cl1         3.8674   -2.6000  -12.3030 Cl        1 <0>        -0.0662
     21 C17         4.3971   -5.0995   -5.8962 C.3       1 <0>        -0.0328
     22 C18         5.0355   -5.6660   -4.6220 C.3       1 <0>         0.1059
     23 C19         3.9643   -5.8207   -3.5390 C.3       1 <0>        -0.1466
     24 C20         3.5252   -4.4343   -3.0518 C.3       1 <0>        -0.0560
     25 O2          5.6136   -6.9417   -4.9057 O.3       1 <0>        -0.5639
     26 H1         -1.0802    1.4092   -0.9438 H         1 <0>         0.0587
     27 H2         -1.7811   -0.1326   -0.3963 H         1 <0>         0.0585
     28 H3         -1.4201    1.1498    0.7840 H         1 <0>         0.1045
     29 H4         -0.9106   -0.1667   -2.3031 H         1 <0>         0.1394
     30 H5          0.1002   -1.3114   -4.2324 H         1 <0>         0.1361
     31 H6          3.6073   -2.1082   -1.9199 H         1 <0>         0.1376
     32 H7          2.5990   -0.9540    0.0051 H         1 <0>         0.1437
     33 H8          2.9551   -4.9106   -8.1459 H         1 <0>         0.1373
     34 H9          3.2716   -4.7874  -10.5823 H         1 <0>         0.1394
     35 H10         3.9797   -0.5886  -10.2926 H         1 <0>         0.1379
     36 H11         3.6544   -0.6933   -7.8564 H         1 <0>         0.1352
     37 H12         3.7484   -5.8506   -6.3470 H         1 <0>         0.0816
     38 H13         5.1771   -4.8156   -6.6026 H         1 <0>         0.0819
     39 H14         5.8113   -4.9856   -4.2710 H         1 <0>         0.0594
     40 H15         3.1051   -6.3501   -3.9509 H         1 <0>         0.0783
     41 H16         4.3729   -6.3872   -2.7022 H         1 <0>         0.0800
     42 H17         4.3332   -3.9708   -2.4858 H         1 <0>         0.0889
     43 H18         2.6419   -4.5302   -2.4203 H         1 <0>         0.0882
     44 H19         6.0364   -7.3601   -4.1433 H         1 <0>         0.3806
@<TRIPOS>BOND
     1    1    2 1
     2    1   26 1
     3    1   27 1
     4    1   28 1
     5    2    3 1
     6    3    8 ar
     7    3    4 ar
     8    4    5 ar
     9    4   29 1
    10    5    6 ar
    11    5   30 1
    12    6    7 ar
    13    6    9 1
    14    7    8 ar
    15    7   31 1
    16    8   32 1
    17    9   13 1
    18    9   10 1
    19   10   24 1
    20   10   11 2
    21   11   12 1
    22   11   21 1
    23   12   13 2
    24   12   14 1
    25   14   19 ar
    26   14   15 ar
    27   15   16 ar
    28   15   33 1
    29   16   17 ar
    30   16   34 1
    31   17   18 ar
    32   17   20 1
    33   18   19 ar
    34   18   35 1
    35   19   36 1
    36   21   22 1
    37   21   37 1
    38   21   38 1
    39   22   23 1
    40   22   25 1
    41   22   39 1
    42   23   24 1
    43   23   40 1
    44   23   41 1
    45   24   42 1
    46   24   43 1
    47   25   44 1
@<TRIPOS>MOLECULE
CHEMBL347720
   48    51     0     0     0
SMALL
USER_CHARGES

@<TRIPOS>ATOM
      1 C1         -0.7461    2.8922   -1.4138 C.3       1 <0>        -0.6505
      2 S1         -0.9802    1.1006   -1.2525 S.o2      1 <0>         2.4991
      3 O1         -0.4950    0.6550    0.0066 O.2       1 <0>        -0.9366
      4 O2         -2.2784    0.7344   -1.6994 O.2       1 <0>        -0.9367
      5 C2          0.1185    0.3923   -2.4340 C.ar      1 <0>        -0.6595
      6 C3         -0.3167    0.1591   -3.7262 C.ar      1 <0>        -0.0194
      7 C4          0.5391   -0.3955   -4.6559 C.ar      1 <0>        -0.1268
      8 C5          1.8448   -0.7209   -4.2905 C.ar      1 <0>         0.0224
      9 C6          2.2777   -0.4835   -2.9865 C.ar      1 <0>        -0.1274
     10 C7          1.4145    0.0767   -2.0671 C.ar      1 <0>        -0.0214
     11 C8          2.7686   -1.3171   -5.2840 C.ar      1 <0>        -0.0490
     12 C9          2.3650   -2.4101   -6.0455 C.ar      1 <0>        -0.0809
     13 C10         3.2280   -2.9665   -6.9731 C.ar      1 <0>         0.0326
     14 C11         4.5067   -2.4345   -7.1501 C.ar      1 <0>         0.0435
     15 C12         4.9178   -1.3483   -6.3992 C.ar      1 <0>        -0.0944
     16 C13         4.0539   -0.7774   -5.4653 C.ar      1 <0>        -0.0128
     17 C14         4.4890    0.3850   -4.6667 C.2       1 <0>        -0.1459
     18 C15         5.1911    1.3563   -5.2367 C.2       1 <0>        -0.0835
     19 C16         5.4075    1.3813   -6.7337 C.3       1 <0>        -0.1006
     20 C17         5.0104    2.7643   -7.2603 C.3       1 <0>        -0.1160
     21 C18         5.7813    3.8405   -6.4940 C.3       1 <0>        -0.1223
     22 C19         5.3837    3.8109   -5.0173 C.3       1 <0>        -0.1176
     23 C20         5.7900    2.4703   -4.4069 C.3       1 <0>        -0.0863
     24 O3          5.1493   -3.1584   -8.1133 O.3       1 <0>        -0.3061
     25 C21         4.4069   -4.3862   -8.2311 C.3       1 <0>         0.2126
     26 O4          3.0743   -4.0215   -7.8263 O.3       1 <0>        -0.3059
     27 H1          0.2927    3.1436   -1.1999 H         1 <0>         0.1316
     28 H2         -0.9929    3.2009   -2.4296 H         1 <0>         0.1316
     29 H3         -1.3975    3.4087   -0.7088 H         1 <0>         0.1335
     30 H4         -1.3284    0.4112   -4.0080 H         1 <0>         0.1450
     31 H5          0.1981   -0.5774   -5.6644 H         1 <0>         0.1358
     32 H6          3.2878   -0.7338   -2.6976 H         1 <0>         0.1385
     33 H7          1.7500    0.2654   -1.0581 H         1 <0>         0.1453
     34 H8          1.3768   -2.8248   -5.9119 H         1 <0>         0.1405
     35 H9          5.9077   -0.9395   -6.5389 H         1 <0>         0.1429
     36 H10         4.2362    0.4451   -3.6184 H         1 <0>         0.1322
     37 H11         6.4580    1.1931   -6.9549 H         1 <0>         0.0757
     38 H12         4.7886    0.6182   -7.2058 H         1 <0>         0.0795
     39 H13         5.2498    2.8318   -8.3215 H         1 <0>         0.0657
     40 H14         3.9400    2.9137   -7.1187 H         1 <0>         0.0627
     41 H15         6.8513    3.6536   -6.5849 H         1 <0>         0.0634
     42 H16         5.5488    4.8198   -6.9122 H         1 <0>         0.0633
     43 H17         5.8878    4.6200   -4.4888 H         1 <0>         0.0662
     44 H18         4.3045    3.9354   -4.9288 H         1 <0>         0.0628
     45 H19         5.4168    2.4066   -3.3847 H         1 <0>         0.0713
     46 H20         6.8766    2.3847   -4.4089 H         1 <0>         0.0794
     47 H21         4.4107   -4.7384   -9.2626 H         1 <0>         0.1350
     48 H22         4.8151   -5.1459   -7.5645 H         1 <0>         0.0873
@<TRIPOS>BOND
     1    1    2 1
     2    1   27 1
     3    1   28 1
     4    1   29 1
     5    2    3 2
     6    2    4 2
     7    2    5 1
     8    5   10 ar
     9    5    6 ar
    10    6    7 ar
    11    6   30 1
    12    7    8 ar
    13    7   31 1
    14    8    9 ar
    15    8   11 1
    16    9   10 ar
    17    9   32 1
    18   10   33 1
    19   11   16 ar
    20   11   12 ar
    21   12   13 ar
    22   12   34 1
    23   13   26 1
    24   13   14 ar
    25   14   15 ar
    26   14   24 1
    27   15   16 ar
    28   15   35 1
    29   16   17 1
    30   17   18 2
    31   17   36 1
    32   18   23 1
    33   18   19 1
    34   19   20 1
    35   19   37 1
    36   19   38 1
    37   20   21 1
    38   20   39 1
    39   20   40 1
    40   21   22 1
    41   21   41 1
    42   21   42 1
    43   22   23 1
    44   22   43 1
    45   22   44 1
    46   23   45 1
    47   23   46 1
    48   24   25 1
    49   25   26 1
    50   25   47 1
    51   25   48 1
@<TRIPOS>MOLECULE
CHEMBL265078
   52    55     0     0     0
SMALL
USER_CHARGES

@<TRIPOS>ATOM
      1 C1         -0.1874    1.9644   -0.2568 C.3       1 <0>        -0.1048
      2 C2         -0.0830    0.4744   -0.0568 C.2       1 <0>         0.1219
      3 C3         -0.0174   -0.4317   -1.0423 C.2       1 <0>        -0.1460
      4 C4          0.0752   -1.7525   -0.4107 C.ar      1 <0>        -0.0353
      5 C5          0.1678   -3.0552   -0.9027 C.ar      1 <0>        -0.1116
      6 C6          0.2412   -4.1149   -0.0194 C.ar      1 <0>         0.1136
      7 C7          0.2230   -3.8858    1.3535 C.ar      1 <0>        -0.1751
      8 C8          0.1315   -2.6034    1.8489 C.ar      1 <0>        -0.0824
      9 C9          0.0572   -1.5250    0.9760 C.ar      1 <0>         0.0768
     10 N1         -0.0348   -0.1565    1.1625 N.am      1 <0>        -0.5038
     11 C10        -0.0745    0.4628    2.3589 C.2       1 <0>         0.6022
     12 O1         -1.1441    0.7495    2.8595 O.2       1 <0>        -0.4277
     13 C11         1.1816    0.7930    3.0614 C.ar      1 <0>        -0.1663
     14 C12         2.4122    0.5705    2.4394 C.ar      1 <0>        -0.0422
     15 C13         3.5816    0.8809    3.1006 C.ar      1 <0>        -0.1205
     16 C14         3.5377    1.4123    4.3791 C.ar      1 <0>         0.0043
     17 C15         2.3204    1.6349    5.0015 C.ar      1 <0>        -0.1233
     18 C16         1.1438    1.3345    4.3484 C.ar      1 <0>        -0.0380
     19 Cl1         5.0145    1.8005    5.2050 Cl        1 <0>        -0.0517
     20 O2          0.3310   -5.3864   -0.4928 O.3       1 <0>        -0.3164
     21 C17         0.4035   -6.4354    0.4749 C.3       1 <0>         0.0269
     22 C18        -0.0360   -0.1470   -2.5221 C.3       1 <0>        -0.0630
     23 C19         1.3751    0.0480   -3.0138 C.2       1 <0>         0.5134
     24 O3          2.3044   -0.0359   -2.2390 O.2       1 <0>        -0.5023
     25 N2          1.6045    0.3157   -4.3147 N.am      1 <0>        -0.6777
     26 C20         2.9179    0.3905   -4.7928 C.ar      1 <0>         0.1544
     27 C21         3.2363    1.2734   -5.8162 C.ar      1 <0>        -0.1355
     28 C22         4.5329    1.3453   -6.2862 C.ar      1 <0>        -0.0899
     29 C23         5.5145    0.5383   -5.7382 C.ar      1 <0>        -0.0516
     30 C24         5.1999   -0.3425   -4.7183 C.ar      1 <0>        -0.0894
     31 C25         3.9059   -0.4141   -4.2408 C.ar      1 <0>        -0.1094
     32 Cl2         7.1433    0.6306   -6.3317 Cl        1 <0>        -0.0699
     33 H1          0.8126    2.3951   -0.3081 H         1 <0>         0.0863
     34 H2         -0.7196    2.1700   -1.1855 H         1 <0>         0.0921
     35 H3         -0.7307    2.4059    0.5787 H         1 <0>         0.0711
     36 H4          0.1815   -3.2339   -1.9677 H         1 <0>         0.1324
     37 H5          0.2809   -4.7206    2.0362 H         1 <0>         0.1357
     38 H6          0.1174   -2.4364    2.9159 H         1 <0>         0.1226
     39 H7          2.4478    0.1559    1.4428 H         1 <0>         0.1443
     40 H8          4.5339    0.7090    2.6209 H         1 <0>         0.1452
     41 H9          2.2926    2.0491    5.9985 H         1 <0>         0.1465
     42 H10         0.1952    1.5129    4.8328 H         1 <0>         0.1477
     43 H11         0.4716   -7.3962   -0.0352 H         1 <0>         0.1008
     44 H12         1.2850   -6.2926    1.1000 H         1 <0>         0.0554
     45 H13        -0.4906   -6.4173    1.0980 H         1 <0>         0.0554
     46 H14        -0.4912   -0.9863   -3.0479 H         1 <0>         0.1108
     47 H15        -0.6148    0.7571   -2.7109 H         1 <0>         0.1070
     48 H16         0.8594    0.4565   -4.9196 H         1 <0>         0.4134
     49 H17         2.4705    1.9032   -6.2445 H         1 <0>         0.1355
     50 H18         4.7810    2.0316   -7.0823 H         1 <0>         0.1374
     51 H19         5.9677   -0.9715   -4.2926 H         1 <0>         0.1364
     52 H20         3.6618   -1.0985   -3.4417 H         1 <0>         0.1443
@<TRIPOS>BOND
     1    1    2 1
     2    1   33 1
     3    1   34 1
     4    1   35 1
     5    2   10 1
     6    2    3 2
     7    3    4 1
     8    3   22 1
     9    4    9 ar
    10    4    5 ar
    11    5    6 ar
    12    5   36 1
    13    6    7 ar
    14    6   20 1
    15    7    8 ar
    16    7   37 1
    17    8    9 ar
    18    8   38 1
    19    9   10 1
    20   10   11 am
    21   11   12 2
    22   11   13 1
    23   13   18 ar
    24   13   14 ar
    25   14   15 ar
    26   14   39 1
    27   15   16 ar
    28   15   40 1
    29   16   17 ar
    30   16   19 1
    31   17   18 ar
    32   17   41 1
    33   18   42 1
    34   20   21 1
    35   21   43 1
    36   21   44 1
    37   21   45 1
    38   22   23 1
    39   22   46 1
    40   22   47 1
    41   23   24 2
    42   23   25 am
    43   25   26 1
    44   25   48 1
    45   26   31 ar
    46   26   27 ar
    47   27   28 ar
    48   27   49 1
    49   28   29 ar
    50   28   50 1
    51   29   30 ar
    52   29   32 1
    53   30   31 ar
    54   30   51 1
    55   31   52 1
@<TRIPOS>MOLECULE
CHEMBL19056
   37    39     0     0     0
SMALL
USER_CHARGES

@<TRIPOS>ATOM
      1 C1         -0.0187    1.5258    0.0104 C.3       1 <0>        -0.1755
      2 C2          0.0021   -0.0041    0.0020 C.3       1 <0>         0.3074
      3 C3         -1.4093   -0.5412    0.0476 C.2       1 <0>        -0.0337
      4 C4         -1.5030   -1.2809    1.1872 C.2       1 <0>        -0.1063
      5 C5         -0.2071   -1.2401    1.8759 C.2       1 <0>         0.5135
      6 O1          0.0432   -1.7996    2.9256 O.2       1 <0>        -0.4254
      7 O2          0.6620   -0.4917    1.1735 O.3       1 <0>        -0.3315
      8 C6         -2.7090   -2.0036    1.6536 C.2       1 <0>        -0.0730
      9 C7         -3.3558   -1.6274    2.8279 C.2       1 <0>        -0.1407
     10 C8         -4.4534   -2.3116    3.2206 C.2       1 <0>        -0.1653
     11 S1         -4.6213   -3.5327    1.9299 S.3       1 <0>         0.0684
     12 C9         -3.2172   -3.0534    0.9375 C.2       1 <0>        -0.1497
     13 C10        -2.4706   -0.3114   -0.9420 C.ar      1 <0>         0.0108
     14 C11        -2.3398   -0.8110   -2.2429 C.ar      1 <0>        -0.1045
     15 C12        -3.3402   -0.5909   -3.1654 C.ar      1 <0>        -0.0231
     16 C13        -4.4716    0.1223   -2.8083 C.ar      1 <0>        -0.6494
     17 C14        -4.6087    0.6202   -1.5240 C.ar      1 <0>        -0.0221
     18 C15        -3.6206    0.4033   -0.5875 C.ar      1 <0>        -0.1093
     19 S2         -5.7441    0.3984   -3.9954 S.o2      1 <0>         2.4974
     20 O3         -6.3888    1.5895   -3.5655 O.2       1 <0>        -0.9345
     21 O4         -5.0846    0.3450   -5.2530 O.2       1 <0>        -0.9341
     22 C16        -6.8638   -1.0176   -3.8164 C.3       1 <0>        -0.6496
     23 O5          0.6698   -0.4779   -1.1692 O.3       1 <0>        -0.5283
     24 H1          1.0039    1.9031    0.0027 H         1 <0>         0.0876
     25 H2         -0.5459    1.8868   -0.8726 H         1 <0>         0.0945
     26 H3         -0.5289    1.8773    0.9072 H         1 <0>         0.0822
     27 H4         -2.9856   -0.8011    3.4167 H         1 <0>         0.1367
     28 H5         -5.0713   -2.1584    4.0930 H         1 <0>         0.1919
     29 H6         -2.8601   -3.4819    0.0127 H         1 <0>         0.1875
     30 H7         -1.4574   -1.3670   -2.5233 H         1 <0>         0.1440
     31 H8         -3.2409   -0.9756   -4.1697 H         1 <0>         0.1492
     32 H9         -5.4942    1.1762   -1.2537 H         1 <0>         0.1487
     33 H10        -3.7312    0.7882    0.4155 H         1 <0>         0.1365
     34 H11        -7.2584   -1.0426   -2.8007 H         1 <0>         0.1326
     35 H12        -7.6873   -0.9212   -4.5239 H         1 <0>         0.1351
     36 H13        -6.3184   -1.9397   -4.0171 H         1 <0>         0.1325
     37 H14         1.5849   -0.1759   -1.2495 H         1 <0>         0.3994
@<TRIPOS>BOND
     1    1    2 1
     2    1   24 1
     3    1   25 1
     4    1   26 1
     5    2    7 1
     6    2    3 1
     7    2   23 1
     8    3    4 2
     9    3   13 1
    10    4    5 1
    11    4    8 1
    12    5    6 2
    13    5    7 1
    14    8   12 2
    15    8    9 1
    16    9   10 2
    17    9   27 1
    18   10   11 1
    19   10   28 1
    20   11   12 1
    21   12   29 1
    22   13   18 ar
    23   13   14 ar
    24   14   15 ar
    25   14   30 1
    26   15   16 ar
    27   15   31 1
    28   16   17 ar
    29   16   19 1
    30   17   18 ar
    31   17   32 1
    32   18   33 1
    33   19   20 2
    34   19   21 2
    35   19   22 1
    36   22   34 1
    37   22   35 1
    38   22   36 1
    39   23   37 1
@<TRIPOS>MOLECULE
CHEMBL19056__1
   36    38     0     0     0
SMALL
USER_CHARGES

@<TRIPOS>ATOM
      1 C1         -0.0187    1.5258    0.0104 C.3       1 <0>        -0.1446
      2 C2          0.0021   -0.0041    0.0020 C.3       1 <0>         0.3228
      3 C3         -1.4093   -0.5412    0.0476 C.2       1 <0>        -0.0191
      4 C4         -1.5030   -1.2809    1.1872 C.2       1 <0>        -0.1988
      5 C5         -0.2071   -1.2401    1.8759 C.2       1 <0>         0.5150
      6 O1          0.0432   -1.7996    2.9256 O.2       1 <0>        -0.5000
      7 O2          0.6620   -0.4917    1.1735 O.3       1 <0>        -0.3398
      8 C6         -2.7090   -2.0036    1.6536 C.2       1 <0>        -0.0393
      9 C7         -3.3558   -1.6274    2.8279 C.2       1 <0>        -0.1300
     10 C8         -4.4534   -2.3116    3.2206 C.2       1 <0>        -0.1783
     11 S1         -4.6213   -3.5327    1.9299 S.3       1 <0>         0.0175
     12 C9         -3.2172   -3.0534    0.9375 C.2       1 <0>        -0.1591
     13 C10        -2.4706   -0.3114   -0.9420 C.ar      1 <0>         0.0450
     14 C11        -2.3398   -0.8110   -2.2429 C.ar      1 <0>        -0.1006
     15 C12        -3.3402   -0.5909   -3.1654 C.ar      1 <0>        -0.0268
     16 C13        -4.4716    0.1223   -2.8083 C.ar      1 <0>        -0.6672
     17 C14        -4.6087    0.6202   -1.5240 C.ar      1 <0>        -0.0272
     18 C15        -3.6206    0.4033   -0.5875 C.ar      1 <0>        -0.1261
     19 S2         -5.7441    0.3984   -3.9954 S.o2      1 <0>         2.5023
     20 O3         -6.3888    1.5895   -3.5655 O.2       1 <0>        -0.9430
     21 O4         -5.0846    0.3450   -5.2530 O.2       1 <0>        -0.9406
     22 C16        -6.8638   -1.0176   -3.8164 C.3       1 <0>        -0.6521
     23 O5          0.6698   -0.4779   -1.1692 O.3       1 <0>        -0.8143
     24 H1          1.0039    1.9031    0.0027 H         1 <0>         0.0606
     25 H2         -0.5459    1.8868   -0.8726 H         1 <0>         0.0601
     26 H3         -0.5289    1.8773    0.9072 H         1 <0>         0.0318
     27 H4         -2.9856   -0.8011    3.4167 H         1 <0>         0.1330
     28 H5         -5.0713   -2.1584    4.0930 H         1 <0>         0.1845
     29 H6         -2.8601   -3.4819    0.0127 H         1 <0>         0.1825
     30 H7         -1.4574   -1.3670   -2.5233 H         1 <0>         0.1484
     31 H8         -3.2409   -0.9756   -4.1697 H         1 <0>         0.1419
     32 H9         -5.4942    1.1762   -1.2537 H         1 <0>         0.1401
     33 H10        -3.7312    0.7882    0.4155 H         1 <0>         0.1303
     34 H11        -7.2584   -1.0426   -2.8007 H         1 <0>         0.1308
     35 H12        -7.6873   -0.9212   -4.5239 H         1 <0>         0.1289
     36 H13        -6.3184   -1.9397   -4.0171 H         1 <0>         0.1313
@<TRIPOS>BOND
     1    1    2 1
     2    1   24 1
     3    1   25 1
     4    1   26 1
     5    2    7 1
     6    2    3 1
     7    2   23 1
     8    3    4 2
     9    3   13 1
    10    4    5 1
    11    4    8 1
    12    5    6 2
    13    5    7 1
    14    8   12 2
    15    8    9 1
    16    9   10 2
    17    9   27 1
    18   10   11 1
    19   10   28 1
    20   11   12 1
    21   12   29 1
    22   13   18 ar
    23   13   14 ar
    24   14   15 ar
    25   14   30 1
    26   15   16 ar
    27   15   31 1
    28   16   17 ar
    29   16   19 1
    30   17   18 ar
    31   17   32 1
    32   18   33 1
    33   19   20 2
    34   19   21 2
    35   19   22 1
    36   22   34 1
    37   22   35 1
    38   22   36 1
@<TRIPOS>MOLECULE
CHEMBL19056__2
   37    39     0     0     0
SMALL
USER_CHARGES

@<TRIPOS>ATOM
      1 C1         -0.0187    1.5258    0.0104 C.3       1 <0>        -0.1809
      2 C2          0.0021   -0.0041    0.0020 C.3       1 <0>         0.3070
      3 C3          0.7372   -0.5051   -1.2191 C.2       1 <0>        -0.0346
      4 C4          1.7983   -1.2254   -0.7610 C.2       1 <0>        -0.1055
      5 C5          1.7740   -1.2068    0.7068 C.2       1 <0>         0.5135
      6 O1          2.5853   -1.7575    1.4252 O.2       1 <0>        -0.4248
      7 O2          0.7207   -0.4907    1.1388 O.3       1 <0>        -0.3311
      8 C6          2.8063   -1.9121   -1.6016 C.2       1 <0>        -0.0711
      9 C7          2.9160   -3.3002   -1.5919 C.2       1 <0>        -0.1406
     10 C8          3.8483   -3.8902   -2.3728 C.2       1 <0>        -0.1640
     11 S1          4.6206   -2.4900   -3.1654 S.3       1 <0>         0.0680
     12 C9          3.6480   -1.1977   -2.4104 C.2       1 <0>        -0.1537
     13 C10         0.3785   -0.2628   -2.6231 C.ar      1 <0>         0.0185
     14 C11         0.4247    1.0340   -3.1474 C.ar      1 <0>        -0.1223
     15 C12         0.0865    1.2527   -4.4658 C.ar      1 <0>        -0.0201
     16 C13        -0.2984    0.1941   -5.2704 C.ar      1 <0>        -0.6510
     17 C14        -0.3471   -1.0915   -4.7596 C.ar      1 <0>        -0.0183
     18 C15        -0.0057   -1.3285   -3.4451 C.ar      1 <0>        -0.1026
     19 S2         -0.7291    0.4848   -6.9540 S.o2      1 <0>         2.4978
     20 O3         -1.6148   -0.5745   -7.2898 O.2       1 <0>        -0.9338
     21 O4         -1.1695    1.8354   -6.9876 O.2       1 <0>        -0.9344
     22 C16         0.8271    0.3120   -7.8699 C.3       1 <0>        -0.6497
     23 O5         -1.3337   -0.5116    0.0131 O.3       1 <0>        -0.5257
     24 H1          1.0039    1.9031    0.0027 H         1 <0>         0.0834
     25 H2         -0.5459    1.8868   -0.8726 H         1 <0>         0.0966
     26 H3         -0.5289    1.8773    0.9072 H         1 <0>         0.0890
     27 H4          2.2659   -3.8968   -0.9691 H         1 <0>         0.1368
     28 H5          4.0695   -4.9410   -2.4879 H         1 <0>         0.1922
     29 H6          3.7090   -0.1290   -2.5535 H         1 <0>         0.1874
     30 H7          0.7240    1.8612   -2.5208 H         1 <0>         0.1391
     31 H8          0.1216    2.2528   -4.8720 H         1 <0>         0.1497
     32 H9         -0.6491   -1.9119   -5.3938 H         1 <0>         0.1492
     33 H10        -0.0396   -2.3328   -3.0494 H         1 <0>         0.1368
     34 H11         1.2255   -0.6919   -7.7232 H         1 <0>         0.1327
     35 H12         0.6444    0.4789   -8.9314 H         1 <0>         0.1351
     36 H13         1.5465    1.0453   -7.5054 H         1 <0>         0.1324
     37 H14        -1.8537   -0.2337    0.7796 H         1 <0>         0.3991
@<TRIPOS>BOND
     1    1    2 1
     2    1   24 1
     3    1   25 1
     4    1   26 1
     5    2    7 1
     6    2    3 1
     7    2   23 1
     8    3    4 2
     9    3   13 1
    10    4    5 1
    11    4    8 1
    12    5    6 2
    13    5    7 1
    14    8   12 2
    15    8    9 1
    16    9   10 2
    17    9   27 1
    18   10   11 1
    19   10   28 1
    20   11   12 1
    21   12   29 1
    22   13   18 ar
    23   13   14 ar
    24   14   15 ar
    25   14   30 1
    26   15   16 ar
    27   15   31 1
    28   16   17 ar
    29   16   19 1
    30   17   18 ar
    31   17   32 1
    32   18   33 1
    33   19   20 2
    34   19   21 2
    35   19   22 1
    36   22   34 1
    37   22   35 1
    38   22   36 1
    39   23   37 1
@<TRIPOS>MOLECULE
CHEMBL19056__3
   36    38     0     0     0
SMALL
USER_CHARGES

@<TRIPOS>ATOM
      1 C1         -0.0187    1.5258    0.0104 C.3       1 <0>        -0.1488
      2 C2          0.0021   -0.0041    0.0020 C.3       1 <0>         0.3230
      3 C3          0.7372   -0.5051   -1.2191 C.2       1 <0>        -0.0217
      4 C4          1.7983   -1.2254   -0.7610 C.2       1 <0>        -0.1980
      5 C5          1.7740   -1.2068    0.7068 C.2       1 <0>         0.5150
      6 O1          2.5853   -1.7575    1.4252 O.2       1 <0>        -0.4997
      7 O2          0.7207   -0.4907    1.1388 O.3       1 <0>        -0.3397
      8 C6          2.8063   -1.9121   -1.6016 C.2       1 <0>        -0.0360
      9 C7          2.9160   -3.3002   -1.5919 C.2       1 <0>        -0.1305
     10 C8          3.8483   -3.8902   -2.3728 C.2       1 <0>        -0.1758
     11 S1          4.6206   -2.4900   -3.1654 S.3       1 <0>         0.0171
     12 C9          3.6480   -1.1977   -2.4104 C.2       1 <0>        -0.1643
     13 C10         0.3785   -0.2628   -2.6231 C.ar      1 <0>         0.0577
     14 C11         0.4247    1.0340   -3.1474 C.ar      1 <0>        -0.1282
     15 C12         0.0865    1.2527   -4.4658 C.ar      1 <0>        -0.0231
     16 C13        -0.2984    0.1941   -5.2704 C.ar      1 <0>        -0.6686
     17 C14        -0.3471   -1.0915   -4.7596 C.ar      1 <0>        -0.0212
     18 C15        -0.0057   -1.3285   -3.4451 C.ar      1 <0>        -0.1120
     19 S2         -0.7291    0.4848   -6.9540 S.o2      1 <0>         2.5028
     20 O3         -1.6148   -0.5745   -7.2898 O.2       1 <0>        -0.9409
     21 O4         -1.1695    1.8354   -6.9876 O.2       1 <0>        -0.9413
     22 C16         0.8271    0.3120   -7.8699 C.3       1 <0>        -0.6521
     23 O5         -1.3337   -0.5116    0.0131 O.3       1 <0>        -0.8161
     24 H1          1.0039    1.9031    0.0027 H         1 <0>         0.0328
     25 H2         -0.5459    1.8868   -0.8726 H         1 <0>         0.0635
     26 H3         -0.5289    1.8773    0.9072 H         1 <0>         0.0617
     27 H4          2.2659   -3.8968   -0.9691 H         1 <0>         0.1341
     28 H5          4.0695   -4.9410   -2.4879 H         1 <0>         0.1850
     29 H6          3.7090   -0.1290   -2.5535 H         1 <0>         0.1821
     30 H7          0.7240    1.8612   -2.5208 H         1 <0>         0.1365
     31 H8          0.1216    2.2528   -4.8720 H         1 <0>         0.1422
     32 H9         -0.6491   -1.9119   -5.3938 H         1 <0>         0.1414
     33 H10        -0.0396   -2.3328   -3.0494 H         1 <0>         0.1319
     34 H11         1.2255   -0.6919   -7.7232 H         1 <0>         0.1312
     35 H12         0.6444    0.4789   -8.9314 H         1 <0>         0.1291
     36 H13         1.5465    1.0453   -7.5054 H         1 <0>         0.1308
@<TRIPOS>BOND
     1    1    2 1
     2    1   24 1
     3    1   25 1
     4    1   26 1
     5    2    7 1
     6    2    3 1
     7    2   23 1
     8    3    4 2
     9    3   13 1
    10    4    5 1
    11    4    8 1
    12    5    6 2
    13    5    7 1
    14    8   12 2
    15    8    9 1
    16    9   10 2
    17    9   27 1
    18   10   11 1
    19   10   28 1
    20   11   12 1
    21   12   29 1
    22   13   18 ar
    23   13   14 ar
    24   14   15 ar
    25   14   30 1
    26   15   16 ar
    27   15   31 1
    28   16   17 ar
    29   16   19 1
    30   17   18 ar
    31   17   32 1
    32   18   33 1
    33   19   20 2
    34   19   21 2
    35   19   22 1
    36   22   34 1
    37   22   35 1
    38   22   36 1
@<TRIPOS>MOLECULE
CHEMBL422964
   52    56     0     0     0
SMALL
USER_CHARGES

@<TRIPOS>ATOM
      1 C1          0.1290    1.5462    0.8522 C.3       1 <0>        -0.1100
      2 C2          0.1005    0.0539    0.6443 C.ar      1 <0>        -0.0966
      3 C3         -0.0040   -0.4507   -0.6212 C.ar      1 <0>        -0.0646
      4 C4         -0.0303   -1.8333   -0.8194 C.ar      1 <0>         0.0437
      5 C5          0.0513   -2.6924    0.2899 C.ar      1 <0>         0.0494
      6 C6          0.1570   -2.1617    1.5680 C.ar      1 <0>        -0.1065
      7 C7          0.1864   -0.7937    1.7392 C.ar      1 <0>        -0.0690
      8 C8          0.3068   -0.2154    3.1256 C.3       1 <0>        -0.1132
      9 N1          0.0012   -3.9754   -0.2174 N.pl3     1 <0>        -0.4836
     10 C9         -0.1056   -3.8719   -1.5696 C.2       1 <0>         0.2665
     11 N2         -0.1240   -2.6197   -1.9224 N.2       1 <0>        -0.4997
     12 C10         0.0537   -5.2179    0.5569 C.3       1 <0>         0.1393
     13 C11        -1.3304   -5.5678    1.0397 C.2       1 <0>        -0.1707
     14 C12        -1.8383   -6.7813    0.7932 C.2       1 <0>        -0.0020
     15 C13        -0.9708   -7.8319    0.2103 C.ar      1 <0>        -0.0340
     16 C14         0.3253   -7.9323    0.7396 C.ar      1 <0>        -0.1135
     17 C15         1.2088   -8.8725    0.2628 C.ar      1 <0>        -0.1198
     18 C16         0.8114   -9.7272   -0.7503 C.ar      1 <0>        -0.1134
     19 C17        -0.4595   -9.6340   -1.2712 C.ar      1 <0>        -0.1200
     20 C18        -1.3699   -8.6874   -0.7991 C.ar      1 <0>        -0.0982
     21 C19        -2.7217   -8.7166   -1.4628 C.3       1 <0>         0.1154
     22 O1         -3.5444   -7.6155   -1.1751 O.3       1 <0>        -0.3229
     23 C20        -4.0741   -7.4535    0.0508 C.ar      1 <0>         0.0995
     24 C21        -3.2590   -7.0576    1.1126 C.ar      1 <0>        -0.1072
     25 C22        -3.7584   -6.9236    2.3956 C.ar      1 <0>        -0.0491
     26 C23        -5.1169   -7.1731    2.6249 C.ar      1 <0>        -0.1339
     27 C24        -5.9430   -7.5497    1.5597 C.ar      1 <0>        -0.0662
     28 C25        -5.4276   -7.6873    0.2756 C.ar      1 <0>        -0.1468
     29 C26        -5.6742   -7.0404    3.9815 C.2       1 <0>         0.5209
     30 O2         -4.9499   -6.7115    4.9109 O.co2     1 <0>        -0.6845
     31 O3         -6.8615   -7.2590    4.1791 O.co2     1 <0>        -0.6838
     32 H1          1.1598    1.8985    0.8162 H         1 <0>         0.0674
     33 H2         -0.4492    2.0336    0.0672 H         1 <0>         0.0647
     34 H3         -0.3032    1.7860    1.8238 H         1 <0>         0.0686
     35 H4         -0.0665    0.2183   -1.4668 H         1 <0>         0.1259
     36 H5          0.2197   -2.8171    2.4241 H         1 <0>         0.1221
     37 H6         -0.6882   -0.0688    3.5458 H         1 <0>         0.0726
     38 H7          0.8707   -0.9014    3.7577 H         1 <0>         0.0654
     39 H8          0.8250    0.7422    3.0761 H         1 <0>         0.0694
     40 H9         -0.1661   -4.7076   -2.2512 H         1 <0>         0.2084
     41 H10         0.4330   -6.0227   -0.0728 H         1 <0>         0.1091
     42 H11         0.7144   -5.0846    1.4135 H         1 <0>         0.0962
     43 H12        -1.9124   -4.8393    1.5847 H         1 <0>         0.1286
     44 H13         0.6325   -7.2634    1.5300 H         1 <0>         0.1267
     45 H14         2.2044   -8.9429    0.6754 H         1 <0>         0.1271
     46 H15         1.4986  -10.4675   -1.1327 H         1 <0>         0.1247
     47 H16        -0.7578  -10.3066   -2.0617 H         1 <0>         0.1245
     48 H17        -2.5744   -8.7635   -2.5418 H         1 <0>         0.1127
     49 H18        -3.2390   -9.6237   -1.1504 H         1 <0>         0.0642
     50 H19        -3.1102   -6.6305    3.2082 H         1 <0>         0.1338
     51 H20        -6.9928   -7.7329    1.7354 H         1 <0>         0.1347
     52 H21        -6.0694   -7.9790   -0.5426 H         1 <0>         0.1274
@<TRIPOS>BOND
     1    1    2 1
     2    1   32 1
     3    1   33 1
     4    1   34 1
     5    2    7 ar
     6    2    3 ar
     7    3    4 ar
     8    3   35 1
     9    4   11 1
    10    4    5 ar
    11    5    6 ar
    12    5    9 1
    13    6    7 ar
    14    6   36 1
    15    7    8 1
    16    8   37 1
    17    8   38 1
    18    8   39 1
    19    9   10 1
    20    9   12 1
    21   10   11 2
    22   10   40 1
    23   12   13 1
    24   12   41 1
    25   12   42 1
    26   13   14 2
    27   13   43 1
    28   14   24 1
    29   14   15 1
    30   15   20 ar
    31   15   16 ar
    32   16   17 ar
    33   16   44 1
    34   17   18 ar
    35   17   45 1
    36   18   19 ar
    37   18   46 1
    38   19   20 ar
    39   19   47 1
    40   20   21 1
    41   21   22 1
    42   21   48 1
    43   21   49 1
    44   22   23 1
    45   23   28 ar
    46   23   24 ar
    47   24   25 ar
    48   25   26 ar
    49   25   50 1
    50   26   27 ar
    51   26   29 1
    52   27   28 ar
    53   27   51 1
    54   28   52 1
    55   29   30 2
    56   29   31 1
@<TRIPOS>MOLECULE
CHEMBL422964__1
   53    57     0     0     0
SMALL
USER_CHARGES

@<TRIPOS>ATOM
      1 C1          0.1290    1.5462    0.8522 C.3       1 <0>        -0.1275
      2 C2          0.1005    0.0539    0.6443 C.ar      1 <0>        -0.0444
      3 C3         -0.0040   -0.4507   -0.6212 C.ar      1 <0>        -0.0822
      4 C4         -0.0303   -1.8333   -0.8194 C.ar      1 <0>         0.0421
      5 C5          0.0513   -2.6924    0.2899 C.ar      1 <0>         0.0793
      6 C6          0.1570   -2.1617    1.5680 C.ar      1 <0>        -0.0872
      7 C7          0.1864   -0.7937    1.7392 C.ar      1 <0>        -0.0310
      8 C8          0.3068   -0.2154    3.1256 C.3       1 <0>        -0.1304
      9 N1          0.0012   -3.9754   -0.2174 N.pl3     1 <0>        -0.4176
     10 C9         -0.1056   -3.8719   -1.5696 C.cat     1 <0>         0.3687
     11 N2         -0.1240   -2.6197   -1.9224 N.pl3     1 <0>        -0.4922
     12 C10         0.0537   -5.2179    0.5569 C.3       1 <0>         0.1284
     13 C11        -1.3304   -5.5678    1.0397 C.2       1 <0>        -0.2175
     14 C12        -1.8383   -6.7813    0.7932 C.2       1 <0>         0.0498
     15 C13        -0.9708   -7.8319    0.2103 C.ar      1 <0>        -0.0571
     16 C14         0.3253   -7.9323    0.7396 C.ar      1 <0>        -0.1179
     17 C15         1.2088   -8.8725    0.2628 C.ar      1 <0>        -0.1170
     18 C16         0.8114   -9.7272   -0.7503 C.ar      1 <0>        -0.1038
     19 C17        -0.4595   -9.6340   -1.2712 C.ar      1 <0>        -0.1178
     20 C18        -1.3699   -8.6874   -0.7991 C.ar      1 <0>        -0.0901
     21 C19        -2.7217   -8.7166   -1.4628 C.3       1 <0>         0.1096
     22 O1         -3.5444   -7.6155   -1.1751 O.3       1 <0>        -0.3250
     23 C20        -4.0741   -7.4535    0.0508 C.ar      1 <0>         0.0976
     24 C21        -3.2590   -7.0576    1.1126 C.ar      1 <0>        -0.1245
     25 C22        -3.7584   -6.9236    2.3956 C.ar      1 <0>        -0.0461
     26 C23        -5.1169   -7.1731    2.6249 C.ar      1 <0>        -0.1286
     27 C24        -5.9430   -7.5497    1.5597 C.ar      1 <0>        -0.0591
     28 C25        -5.4276   -7.6873    0.2756 C.ar      1 <0>        -0.1429
     29 C26        -5.6742   -7.0404    3.9815 C.2       1 <0>         0.5178
     30 O2         -4.9499   -6.7115    4.9109 O.co2     1 <0>        -0.6825
     31 O3         -6.8615   -7.2590    4.1791 O.co2     1 <0>        -0.6765
     32 H1          1.1598    1.8985    0.8162 H         1 <0>         0.0857
     33 H2         -0.4492    2.0336    0.0672 H         1 <0>         0.0782
     34 H3         -0.3032    1.7860    1.8238 H         1 <0>         0.0842
     35 H4         -0.0665    0.2183   -1.4668 H         1 <0>         0.1494
     36 H5          0.2197   -2.8171    2.4241 H         1 <0>         0.1519
     37 H6         -0.6882   -0.0688    3.5458 H         1 <0>         0.0905
     38 H7          0.8707   -0.9014    3.7577 H         1 <0>         0.0806
     39 H8          0.8250    0.7422    3.0761 H         1 <0>         0.0832
     40 H9         -0.1661   -4.7076   -2.2512 H         1 <0>         0.2607
     41 H10         0.4330   -6.0227   -0.0728 H         1 <0>         0.1300
     42 H11         0.7144   -5.0846    1.4135 H         1 <0>         0.1236
     43 H12        -1.9124   -4.8393    1.5847 H         1 <0>         0.1377
     44 H13         0.6325   -7.2634    1.5300 H         1 <0>         0.1273
     45 H14         2.2044   -8.9429    0.6754 H         1 <0>         0.1315
     46 H15         1.4986  -10.4675   -1.1327 H         1 <0>         0.1300
     47 H16        -0.7578  -10.3066   -2.0617 H         1 <0>         0.1294
     48 H17        -2.5744   -8.7635   -2.5418 H         1 <0>         0.1162
     49 H18        -3.2390   -9.6237   -1.1504 H         1 <0>         0.0700
     50 H19        -3.1102   -6.6305    3.2082 H         1 <0>         0.1357
     51 H20        -6.9928   -7.7329    1.7354 H         1 <0>         0.1390
     52 H21        -6.0694   -7.9790   -0.5426 H         1 <0>         0.1309
     53 H22        -0.1941   -2.2970   -2.8344 H         1 <0>         0.4601
@<TRIPOS>BOND
     1    1    2 1
     2    1   32 1
     3    1   33 1
     4    1   34 1
     5    2    7 ar
     6    2    3 ar
     7    3    4 ar
     8    3   35 1
     9    4   11 1
    10    4    5 ar
    11    5    6 ar
    12    5    9 1
    13    6    7 ar
    14    6   36 1
    15    7    8 1
    16    8   37 1
    17    8   38 1
    18    8   39 1
    19    9   10 1
    20    9   12 1
    21   10   11 2
    22   10   40 1
    23   11   53 1
    24   12   13 1
    25   12   41 1
    26   12   42 1
    27   13   14 2
    28   13   43 1
    29   14   24 1
    30   14   15 1
    31   15   20 ar
    32   15   16 ar
    33   16   17 ar
    34   16   44 1
    35   17   18 ar
    36   17   45 1
    37   18   19 ar
    38   18   46 1
    39   19   20 ar
    40   19   47 1
    41   20   21 1
    42   21   22 1
    43   21   48 1
    44   21   49 1
    45   22   23 1
    46   23   28 ar
    47   23   24 ar
    48   24   25 ar
    49   25   26 ar
    50   25   50 1
    51   26   27 ar
    52   26   29 1
    53   27   28 ar
    54   27   51 1
    55   28   52 1
    56   29   30 2
    57   29   31 1
@<TRIPOS>MOLECULE
CHEMBL392114
   61    63     0     0     0
SMALL
USER_CHARGES

@<TRIPOS>ATOM
      1 C1          1.0535    1.6018   -1.1661 C.3       1 <0>        -0.1726
      2 C2          0.9934    0.1045   -1.0062 C.2       1 <0>         0.5112
      3 O1          1.4901   -0.4218   -0.0328 O.2       1 <0>        -0.5238
      4 N1          0.3879   -0.6497   -1.9447 N.am      1 <0>        -0.6760
      5 C3          0.4167   -2.0443   -1.8467 C.ar      1 <0>         0.1528
      6 C4          0.3542   -2.6533   -0.5988 C.ar      1 <0>        -0.1165
      7 C5          0.3824   -4.0277   -0.4990 C.ar      1 <0>        -0.0835
      8 C6          0.4739   -4.8079   -1.6524 C.ar      1 <0>        -0.0686
      9 C7          0.5365   -4.1936   -2.9039 C.ar      1 <0>        -0.0747
     10 C8          0.5022   -2.8189   -2.9977 C.ar      1 <0>        -0.1384
     11 C9          0.5050   -6.2845   -1.5486 C.2       1 <0>        -0.0978
     12 C10        -0.5026   -7.0257   -2.0846 C.2       1 <0>        -0.0071
     13 C11        -1.6906   -6.3604   -2.6359 C.ar      1 <0>        -0.0217
     14 C12        -2.3796   -6.9297   -3.7132 C.ar      1 <0>        -0.1130
     15 C13        -3.4938   -6.2991   -4.2243 C.ar      1 <0>        -0.0271
     16 C14        -3.9317   -5.1062   -3.6752 C.ar      1 <0>        -0.6493
     17 C15        -3.2558   -4.5362   -2.6101 C.ar      1 <0>        -0.0263
     18 C16        -2.1432   -5.1566   -2.0833 C.ar      1 <0>        -0.1127
     19 S1         -5.3570   -4.3085   -4.3362 S.o2      1 <0>         2.4975
     20 O2         -5.1787   -2.9330   -4.0273 O.2       1 <0>        -0.9358
     21 O3         -5.4231   -4.7450   -5.6869 O.2       1 <0>        -0.9355
     22 C17        -6.7500   -4.9855   -3.3919 C.3       1 <0>        -0.6505
     23 C18         1.6246   -6.9502   -0.8663 C.2       1 <0>         0.5089
     24 O4          1.6501   -8.1626   -0.7810 O.2       1 <0>        -0.4850
     25 O5          2.6230   -6.2159   -0.3352 O.3       1 <0>        -0.3145
     26 C19         3.6785   -6.9286    0.3130 C.3       1 <0>         0.2460
     27 O6          4.5194   -7.5335   -0.6714 O.3       1 <0>        -0.2187
     28 N2          5.6027   -8.2679   -0.1307 N.2       1 <0>        -0.0841
     29 N3          6.4030   -8.8390   -0.8863 N.pl3     1 <0>         0.2965
     30 O7          6.2337   -8.7569   -2.2897 O.3       1 <0>        -0.4893
     31 N4          7.4748   -9.5657   -0.3513 N.pl3     1 <0>        -0.4562
     32 C20         7.7639   -9.7377    1.0799 C.3       1 <0>         0.1105
     33 C21         9.0482  -10.5864    1.1891 C.3       1 <0>        -0.1264
     34 C22         9.7265  -10.3691   -0.1893 C.3       1 <0>        -0.1293
     35 C23         8.4957  -10.2897   -1.1302 C.3       1 <0>         0.1257
     36 H1          1.9594    1.8733   -1.7079 H         1 <0>         0.0988
     37 H2          0.1809    1.9430   -1.7231 H         1 <0>         0.0841
     38 H3          1.0635    2.0721   -0.1828 H         1 <0>         0.0984
     39 H4         -0.0680   -0.2251   -2.6883 H         1 <0>         0.4140
     40 H5          0.2837   -2.0490    0.2935 H         1 <0>         0.1430
     41 H6          0.3341   -4.5004    0.4709 H         1 <0>         0.1291
     42 H7          0.6074   -4.7948   -3.7982 H         1 <0>         0.1273
     43 H8          0.5462   -2.3430   -3.9662 H         1 <0>         0.1303
     44 H9         -0.4289   -8.1029   -2.1046 H         1 <0>         0.1534
     45 H10        -2.0391   -7.8602   -4.1429 H         1 <0>         0.1400
     46 H11        -4.0264   -6.7368   -5.0557 H         1 <0>         0.1467
     47 H12        -3.6036   -3.6049   -2.1880 H         1 <0>         0.1442
     48 H13        -1.6198   -4.7131   -1.2491 H         1 <0>         0.1461
     49 H14        -6.6158   -4.7597   -2.3340 H         1 <0>         0.1321
     50 H15        -7.6794   -4.5377   -3.7439 H         1 <0>         0.1342
     51 H16        -6.7920   -6.0659   -3.5304 H         1 <0>         0.1324
     52 H17         4.2658   -6.2374    0.9175 H         1 <0>         0.1239
     53 H18         3.2548   -7.7019    0.9537 H         1 <0>         0.0807
     54 H19         7.9217   -8.7649    1.5457 H         1 <0>         0.0830
     55 H20         6.9360  -10.2538    1.5659 H         1 <0>         0.0831
     56 H21         9.6850  -10.2202    1.9943 H         1 <0>         0.0992
     57 H22         8.8038  -11.6383    1.3372 H         1 <0>         0.0897
     58 H23        10.2938   -9.4385   -0.2032 H         1 <0>         0.0871
     59 H24        10.3615  -11.2158   -0.4500 H         1 <0>         0.1039
     60 H25         8.1425  -11.2898   -1.3817 H         1 <0>         0.0858
     61 H26         8.7457   -9.7361   -2.0353 H         1 <0>         0.0952
@<TRIPOS>BOND
     1    1    2 1
     2    1   36 1
     3    1   37 1
     4    1   38 1
     5    2    3 2
     6    2    4 am
     7    4    5 1
     8    4   39 1
     9    5   10 ar
    10    5    6 ar
    11    6    7 ar
    12    6   40 1
    13    7    8 ar
    14    7   41 1
    15    8    9 ar
    16    8   11 1
    17    9   10 ar
    18    9   42 1
    19   10   43 1
    20   11   12 2
    21   11   23 1
    22   12   13 1
    23   12   44 1
    24   13   18 ar
    25   13   14 ar
    26   14   15 ar
    27   14   45 1
    28   15   16 ar
    29   15   46 1
    30   16   17 ar
    31   16   19 1
    32   17   18 ar
    33   17   47 1
    34   18   48 1
    35   19   20 2
    36   19   21 2
    37   19   22 1
    38   22   49 1
    39   22   50 1
    40   22   51 1
    41   23   24 2
    42   23   25 1
    43   25   26 1
    44   26   27 1
    45   26   52 1
    46   26   53 1
    47   27   28 1
    48   28   29 2
    49   29   30 1
    50   29   31 1
    51   31   35 1
    52   31   32 1
    53   32   33 1
    54   32   54 1
    55   32   55 1
    56   33   34 1
    57   33   56 1
    58   33   57 1
    59   34   35 1
    60   34   58 1
    61   34   59 1
    62   35   60 1
    63   35   61 1
@<TRIPOS>MOLECULE
CHEMBL392114__1
   61    63     0     0     0
SMALL
USER_CHARGES

@<TRIPOS>ATOM
      1 C1          1.0535    1.6018   -1.1661 C.3       1 <0>        -0.1729
      2 C2          0.9934    0.1045   -1.0062 C.2       1 <0>         0.5114
      3 O1          1.4901   -0.4218   -0.0328 O.2       1 <0>        -0.5229
      4 N1          0.3879   -0.6497   -1.9447 N.am      1 <0>        -0.6767
      5 C3          0.4167   -2.0443   -1.8467 C.ar      1 <0>         0.1545
      6 C4          0.3542   -2.6533   -0.5988 C.ar      1 <0>        -0.1161
      7 C5          0.3824   -4.0277   -0.4990 C.ar      1 <0>        -0.0829
      8 C6          0.4739   -4.8079   -1.6524 C.ar      1 <0>        -0.0701
      9 C7          0.5365   -4.1936   -2.9039 C.ar      1 <0>        -0.0755
     10 C8          0.5022   -2.8189   -2.9977 C.ar      1 <0>        -0.1393
     11 C9          0.5050   -6.2845   -1.5486 C.2       1 <0>        -0.1010
     12 C10        -0.5026   -7.0257   -2.0846 C.2       1 <0>        -0.0039
     13 C11        -1.6906   -6.3604   -2.6359 C.ar      1 <0>        -0.0243
     14 C12        -2.3796   -6.9297   -3.7132 C.ar      1 <0>        -0.1126
     15 C13        -3.4938   -6.2991   -4.2243 C.ar      1 <0>        -0.0273
     16 C14        -3.9317   -5.1062   -3.6752 C.ar      1 <0>        -0.6479
     17 C15        -3.2558   -4.5362   -2.6101 C.ar      1 <0>        -0.0262
     18 C16        -2.1432   -5.1566   -2.0833 C.ar      1 <0>        -0.1117
     19 S1         -5.3570   -4.3085   -4.3362 S.o2      1 <0>         2.4970
     20 O2         -5.1787   -2.9330   -4.0273 O.2       1 <0>        -0.9354
     21 O3         -5.4231   -4.7450   -5.6869 O.2       1 <0>        -0.9353
     22 C17        -6.7500   -4.9855   -3.3919 C.3       1 <0>        -0.6504
     23 C18         1.6246   -6.9502   -0.8663 C.2       1 <0>         0.5076
     24 O4          1.6501   -8.1626   -0.7810 O.2       1 <0>        -0.4863
     25 O5          2.6230   -6.2159   -0.3352 O.3       1 <0>        -0.3153
     26 C19         3.6785   -6.9286    0.3130 C.3       1 <0>         0.2474
     27 O6          4.5194   -7.5335   -0.6714 O.3       1 <0>        -0.2660
     28 N2          5.6027   -8.2679   -0.1307 N.2       1 <0>        -0.0500
     29 N3          6.4030   -8.8390   -0.8863 N.pl3     1 <0>         0.3305
     30 O7          7.4862   -9.5734   -0.3456 O.3       1 <0>        -0.4326
     31 N4          6.2355   -8.7577   -2.2748 N.pl3     1 <0>        -0.5126
     32 C20         5.1638   -8.0273   -2.9673 C.3       1 <0>         0.1194
     33 C21         5.3682   -8.2410   -4.4819 C.3       1 <0>        -0.1293
     34 C22         6.2100   -9.5432   -4.5386 C.3       1 <0>        -0.1301
     35 C23         7.1083   -9.3852   -3.2838 C.3       1 <0>         0.1171
     36 H1          1.9594    1.8733   -1.7079 H         1 <0>         0.0991
     37 H2          0.1809    1.9430   -1.7231 H         1 <0>         0.0843
     38 H3          1.0635    2.0721   -0.1828 H         1 <0>         0.0988
     39 H4         -0.0680   -0.2251   -2.6883 H         1 <0>         0.4142
     40 H5          0.2837   -2.0490    0.2935 H         1 <0>         0.1432
     41 H6          0.3341   -4.5004    0.4709 H         1 <0>         0.1290
     42 H7          0.6074   -4.7948   -3.7982 H         1 <0>         0.1266
     43 H8          0.5462   -2.3430   -3.9662 H         1 <0>         0.1302
     44 H9         -0.4289   -8.1029   -2.1046 H         1 <0>         0.1529
     45 H10        -2.0391   -7.8602   -4.1429 H         1 <0>         0.1397
     46 H11        -4.0264   -6.7368   -5.0557 H         1 <0>         0.1469
     47 H12        -3.6036   -3.6049   -2.1880 H         1 <0>         0.1444
     48 H13        -1.6198   -4.7131   -1.2491 H         1 <0>         0.1460
     49 H14        -6.6158   -4.7597   -2.3340 H         1 <0>         0.1323
     50 H15        -7.6794   -4.5377   -3.7439 H         1 <0>         0.1346
     51 H16        -6.7920   -6.0659   -3.5304 H         1 <0>         0.1325
     52 H17         4.2658   -6.2374    0.9175 H         1 <0>         0.1280
     53 H18         3.2548   -7.7019    0.9537 H         1 <0>         0.0849
     54 H19         4.1927   -8.4196   -2.6653 H         1 <0>         0.0815
     55 H20         5.2266   -6.9650   -2.7310 H         1 <0>         0.0817
     56 H21         4.4109   -8.3785   -4.9847 H         1 <0>         0.0940
     57 H22         5.9180   -7.4071   -4.9183 H         1 <0>         0.0867
     58 H23         5.5729  -10.4240   -4.4589 H         1 <0>         0.0840
     59 H24         6.8126   -9.5797   -5.4462 H         1 <0>         0.0996
     60 H25         7.9596   -8.7406   -3.5025 H         1 <0>         0.0819
     61 H26         7.4492  -10.3606   -2.9366 H         1 <0>         0.0927
@<TRIPOS>BOND
     1    1    2 1
     2    1   36 1
     3    1   37 1
     4    1   38 1
     5    2    3 2
     6    2    4 am
     7    4    5 1
     8    4   39 1
     9    5   10 ar
    10    5    6 ar
    11    6    7 ar
    12    6   40 1
    13    7    8 ar
    14    7   41 1
    15    8    9 ar
    16    8   11 1
    17    9   10 ar
    18    9   42 1
    19   10   43 1
    20   11   12 2
    21   11   23 1
    22   12   13 1
    23   12   44 1
    24   13   18 ar
    25   13   14 ar
    26   14   15 ar
    27   14   45 1
    28   15   16 ar
    29   15   46 1
    30   16   17 ar
    31   16   19 1
    32   17   18 ar
    33   17   47 1
    34   18   48 1
    35   19   20 2
    36   19   21 2
    37   19   22 1
    38   22   49 1
    39   22   50 1
    40   22   51 1
    41   23   24 2
    42   23   25 1
    43   25   26 1
    44   26   27 1
    45   26   52 1
    46   26   53 1
    47   27   28 1
    48   28   29 2
    49   29   30 1
    50   29   31 1
    51   31   35 1
    52   31   32 1
    53   32   33 1
    54   32   54 1
    55   32   55 1
    56   33   34 1
    57   33   56 1
    58   33   57 1
    59   34   35 1
    60   34   58 1
    61   34   59 1
    62   35   60 1
    63   35   61 1
@<TRIPOS>MOLECULE
CHEMBL85139
   35    39     0     0     0
SMALL
USER_CHARGES

@<TRIPOS>ATOM
      1 C1         -0.0165    1.3665    0.0096 C.ar      1 <0>        -0.1447
      2 C2          1.1456    2.1219    0.0025 C.ar      1 <0>        -0.0868
      3 C3          2.4010    1.5402   -0.0130 C.ar      1 <0>        -0.1280
      4 C4          2.4539    0.1482   -0.0210 C.ar      1 <0>         0.1107
      5 C5          1.2602   -0.6268   -0.0133 C.ar      1 <0>        -0.0978
      6 C6          0.0021   -0.0041    0.0020 C.ar      1 <0>        -0.0596
      7 C7          1.6486   -1.9623   -0.0245 C.2       1 <0>        -0.1125
      8 C8          3.0258   -1.9987   -0.0375 C.2       1 <0>         0.0721
      9 N1          3.5125   -0.7181   -0.0366 N.pl3     1 <0>        -0.5391
     10 H1          4.4496   -0.4679   -0.0463 H         1 <0>         0.4287
     11 C9          3.7305   -3.2938   -0.0479 C.2       1 <0>         0.4687
     12 N2          4.9945   -3.3611    0.2858 N.2       1 <0>        -0.5197
     13 C10         5.6615   -4.5304    0.3185 C.ar      1 <0>         0.1593
     14 C11         7.0161   -4.5908    0.6607 C.ar      1 <0>        -0.1098
     15 C12         7.6557   -5.7977    0.6895 C.ar      1 <0>        -0.0710
     16 C13         6.9799   -6.9722    0.3843 C.ar      1 <0>        -0.1365
     17 C14         5.6456   -6.9448    0.0410 C.ar      1 <0>        -0.0393
     18 C15         4.9738   -5.7244    0.0009 C.ar      1 <0>        -0.1988
     19 C16         3.5553   -5.6317   -0.3724 C.2       1 <0>         0.5533
     20 O1          2.9070   -6.6285   -0.6325 O.2       1 <0>        -0.5062
     21 N3          2.9946   -4.4017   -0.4176 N.am      1 <0>        -0.5388
     22 C17         1.6152   -4.2560   -0.8938 C.3       1 <0>         0.0917
     23 C18         0.8497   -3.2437   -0.0264 C.3       1 <0>        -0.0657
     24 H2         -0.9691    1.8752    0.0260 H         1 <0>         0.1229
     25 H3          1.0688    3.1992    0.0090 H         1 <0>         0.1264
     26 H4          3.3000    2.1388   -0.0190 H         1 <0>         0.1331
     27 H5         -0.9116   -0.5800    0.0079 H         1 <0>         0.1341
     28 H6          7.5550   -3.6862    0.9010 H         1 <0>         0.1396
     29 H7          8.7021   -5.8392    0.9539 H         1 <0>         0.1362
     30 H8          7.5050   -7.9154    0.4160 H         1 <0>         0.1358
     31 H9          5.1248   -7.8612   -0.1946 H         1 <0>         0.1401
     32 H10         1.6261   -3.9085   -1.9269 H         1 <0>         0.0894
     33 H11         1.1139   -5.2227   -0.8454 H         1 <0>         0.1148
     34 H12         0.7550   -3.6235    0.9909 H         1 <0>         0.0899
     35 H13        -0.1385   -3.0643   -0.4500 H         1 <0>         0.1076
@<TRIPOS>BOND
     1    1    6 ar
     2    1    2 ar
     3    1   24 1
     4    2    3 ar
     5    2   25 1
     6    3    4 ar
     7    3   26 1
     8    4    9 1
     9    4    5 ar
    10    5    6 ar
    11    5    7 1
    12    6   27 1
    13    7   23 1
    14    7    8 2
    15    8    9 1
    16    8   11 1
    17    9   10 1
    18   11   21 1
    19   11   12 2
    20   12   13 1
    21   13   18 ar
    22   13   14 ar
    23   14   15 ar
    24   14   28 1
    25   15   16 ar
    26   15   29 1
    27   16   17 ar
    28   16   30 1
    29   17   18 ar
    30   17   31 1
    31   18   19 1
    32   19   20 2
    33   19   21 am
    34   21   22 1
    35   22   23 1
    36   22   32 1
    37   22   33 1
    38   23   34 1
    39   23   35 1
@<TRIPOS>MOLECULE
CHEMBL449930
   34    36     0     0     0
SMALL
USER_CHARGES

@<TRIPOS>ATOM
      1 C1         -0.0225    1.8097    0.0120 C.3       1 <0>        -0.6494
      2 S1          0.0021   -0.0041    0.0020 S.o2      1 <0>         2.5022
      3 O1          0.8352   -0.4880    1.0465 O.2       1 <0>        -0.9331
      4 O2         -1.3147   -0.5105   -0.1678 O.2       1 <0>        -0.9321
      5 C2          0.8454   -0.4373   -1.4831 C.ar      1 <0>        -0.6647
      6 C3          0.1330   -0.6124   -2.6553 C.ar      1 <0>         0.0023
      7 C4          0.7913   -0.9520   -3.8210 C.ar      1 <0>        -0.1296
      8 C5          2.1697   -1.1176   -3.8152 C.ar      1 <0>         0.1979
      9 C6          2.8822   -0.9412   -2.6368 C.ar      1 <0>        -0.1501
     10 C7          2.2190   -0.5961   -1.4754 C.ar      1 <0>         0.0033
     11 N1          2.8408   -1.4629   -4.9970 N.pl3     1 <0>        -0.3272
     12 C8          4.1790   -1.6636   -5.1447 C.2       1 <0>         0.0370
     13 C9          4.3848   -1.9788   -6.4530 C.2       1 <0>         0.0071
     14 N2          3.2035   -1.9708   -7.0873 N.2       1 <0>        -0.2082
     15 N3          2.2644   -1.6752   -6.2579 N.2       1 <0>        -0.0472
     16 C10         5.6986   -2.2808   -7.0742 C.ar      1 <0>        -0.0150
     17 C11         6.8580   -2.2612   -6.3019 C.ar      1 <0>        -0.1068
     18 C12         8.0771   -2.5432   -6.8846 C.ar      1 <0>        -0.1165
     19 C13         8.1489   -2.8449   -8.2325 C.ar      1 <0>        -0.1123
     20 C14         7.0010   -2.8654   -9.0039 C.ar      1 <0>        -0.1164
     21 C15         5.7761   -2.5905   -8.4303 C.ar      1 <0>        -0.0915
     22 H1          1.0001    2.1870    0.0043 H         1 <0>         0.1325
     23 H2         -0.5497    2.1708   -0.8711 H         1 <0>         0.1329
     24 H3         -0.5327    2.1613    0.9088 H         1 <0>         0.1360
     25 H4         -0.9393   -0.4837   -2.6591 H         1 <0>         0.1572
     26 H5          0.2343   -1.0889   -4.7361 H         1 <0>         0.1524
     27 H6          3.9545   -1.0698   -2.6292 H         1 <0>         0.1441
     28 H7          2.7733   -0.4544   -0.5594 H         1 <0>         0.1572
     29 H8          4.9315   -1.5873   -4.3738 H         1 <0>         0.2012
     30 H9          6.8031   -2.0253   -5.2494 H         1 <0>         0.1230
     31 H10         8.9765   -2.5279   -6.2869 H         1 <0>         0.1280
     32 H11         9.1048   -3.0650   -8.6844 H         1 <0>         0.1257
     33 H12         7.0627   -3.1012  -10.0561 H         1 <0>         0.1280
     34 H13         4.8798   -2.6112   -9.0325 H         1 <0>         0.1320
@<TRIPOS>BOND
     1    1    2 1
     2    1   22 1
     3    1   23 1
     4    1   24 1
     5    2    3 2
     6    2    4 2
     7    2    5 1
     8    5   10 ar
     9    5    6 ar
    10    6    7 ar
    11    6   25 1
    12    7    8 ar
    13    7   26 1
    14    8    9 ar
    15    8   11 1
    16    9   10 ar
    17    9   27 1
    18   10   28 1
    19   11   15 1
    20   11   12 1
    21   12   13 2
    22   12   29 1
    23   13   14 1
    24   13   16 1
    25   14   15 2
    26   16   21 ar
    27   16   17 ar
    28   17   18 ar
    29   17   30 1
    30   18   19 ar
    31   18   31 1
    32   19   20 ar
    33   19   32 1
    34   20   21 ar
    35   20   33 1
    36   21   34 1
@<TRIPOS>MOLECULE
CHEMBL157629
   53    56     0     0     0
SMALL
USER_CHARGES

@<TRIPOS>ATOM
      1 C1         -0.0184    1.5028    0.0103 C.3       1 <0>        -0.1188
      2 C2          0.0021   -0.0041    0.0020 C.ar      1 <0>        -0.0725
      3 C3          0.0057   -0.6863   -1.2017 C.ar      1 <0>        -0.1189
      4 C4          0.0244   -2.0657   -1.2162 C.ar      1 <0>        -0.0781
      5 C5          0.0401   -2.7729   -0.0132 C.ar      1 <0>        -0.0474
      6 C6          0.0368   -2.0788    1.1974 C.ar      1 <0>        -0.0875
      7 C7          0.0229   -0.6992    1.1981 C.ar      1 <0>        -0.1211
      8 C8          0.0597   -4.2524   -0.0214 C.2       1 <0>        -0.0692
      9 C9          1.1579   -4.9524    0.4820 C.2       1 <0>        -0.0258
     10 C10         1.1446   -6.3627    0.4599 C.2       1 <0>         0.0880
     11 N1          0.1206   -7.0091   -0.0241 N.2       1 <0>        -0.2080
     12 N2         -0.9919   -6.3335   -0.5344 N.am      1 <0>        -0.4030
     13 C11        -1.0385   -4.9866   -0.5348 C.2       1 <0>         0.5086
     14 O1         -2.0151   -4.4045   -0.9776 O.2       1 <0>        -0.5167
     15 C12        -2.1216   -7.0979   -1.0689 C.3       1 <0>         0.1660
     16 C13        -1.9093   -7.3454   -2.5402 C.ar      1 <0>        -0.1196
     17 C14        -2.3778   -6.4350   -3.4689 C.ar      1 <0>        -0.0931
     18 C15        -2.1831   -6.6620   -4.8185 C.ar      1 <0>        -0.1252
     19 C16        -1.5196   -7.7994   -5.2394 C.ar      1 <0>        -0.1086
     20 C17        -1.0503   -8.7094   -4.3106 C.ar      1 <0>        -0.1259
     21 C18        -1.2413   -8.4802   -2.9608 C.ar      1 <0>        -0.0932
     22 C19         2.3227   -4.2230    1.0319 C.ar      1 <0>         0.0004
     23 C20         3.1022   -3.4187    0.1998 C.ar      1 <0>        -0.1075
     24 C21         4.1862   -2.7411    0.7186 C.ar      1 <0>        -0.0182
     25 C22         4.5010   -2.8579    2.0608 C.ar      1 <0>        -0.6517
     26 C23         3.7321   -3.6539    2.8911 C.ar      1 <0>        -0.0195
     27 C24         2.6423   -4.3324    2.3857 C.ar      1 <0>        -0.1193
     28 S1          5.8875   -1.9897    2.7155 S.o2      1 <0>         2.4973
     29 O2          6.2931   -2.7523    3.8438 O.2       1 <0>        -0.9350
     30 O3          6.7607   -1.8136    1.6083 O.2       1 <0>        -0.9350
     31 C25         5.2247   -0.3878    3.2495 C.3       1 <0>        -0.6499
     32 H1          1.0042    1.8801    0.0026 H         1 <0>         0.0729
     33 H2         -0.5455    1.8639   -0.8728 H         1 <0>         0.0687
     34 H3         -0.5286    1.8543    0.9071 H         1 <0>         0.0681
     35 H4         -0.0064   -0.1378   -2.1320 H         1 <0>         0.1264
     36 H5          0.0265   -2.5970   -2.1564 H         1 <0>         0.1210
     37 H6          0.0485   -2.6203    2.1318 H         1 <0>         0.1207
     38 H7          0.0241   -0.1608    2.1343 H         1 <0>         0.1256
     39 H8          1.9901   -6.9120    0.8469 H         1 <0>         0.1974
     40 H9         -2.1943   -8.0519   -0.5467 H         1 <0>         0.1057
     41 H10        -3.0429   -6.5335   -0.9246 H         1 <0>         0.1105
     42 H11        -2.8961   -5.5464   -3.1401 H         1 <0>         0.1292
     43 H12        -2.5497   -5.9511   -5.5441 H         1 <0>         0.1240
     44 H13        -1.3681   -7.9771   -6.2938 H         1 <0>         0.1235
     45 H14        -0.5323   -9.5981   -4.6395 H         1 <0>         0.1246
     46 H15        -0.8714   -9.1893   -2.2351 H         1 <0>         0.1256
     47 H16         2.8576   -3.3270   -0.8481 H         1 <0>         0.1337
     48 H17         4.7906   -2.1185    0.0756 H         1 <0>         0.1464
     49 H18         3.9832   -3.7412    3.9379 H         1 <0>         0.1478
     50 H19         2.0403   -4.9501    3.0357 H         1 <0>         0.1382
     51 H20         4.4552   -0.5467    4.0049 H         1 <0>         0.1322
     52 H21         6.0286    0.2157    3.6711 H         1 <0>         0.1344
     53 H22         4.7922    0.1301    2.3935 H         1 <0>         0.1321
@<TRIPOS>BOND
     1    1    2 1
     2    1   32 1
     3    1   33 1
     4    1   34 1
     5    2    7 ar
     6    2    3 ar
     7    3    4 ar
     8    3   35 1
     9    4    5 ar
    10    4   36 1
    11    5    6 ar
    12    5    8 1
    13    6    7 ar
    14    6   37 1
    15    7   38 1
    16    8   13 1
    17    8    9 2
    18    9   10 1
    19    9   22 1
    20   10   11 2
    21   10   39 1
    22   11   12 1
    23   12   13 am
    24   12   15 1
    25   13   14 2
    26   15   16 1
    27   15   40 1
    28   15   41 1
    29   16   21 ar
    30   16   17 ar
    31   17   18 ar
    32   17   42 1
    33   18   19 ar
    34   18   43 1
    35   19   20 ar
    36   19   44 1
    37   20   21 ar
    38   20   45 1
    39   21   46 1
    40   22   27 ar
    41   22   23 ar
    42   23   24 ar
    43   23   47 1
    44   24   25 ar
    45   24   48 1
    46   25   26 ar
    47   25   28 1
    48   26   27 ar
    49   26   49 1
    50   27   50 1
    51   28   29 2
    52   28   30 2
    53   28   31 1
    54   31   51 1
    55   31   52 1
    56   31   53 1
@<TRIPOS>MOLECULE
CHEMBL15039
   56    57     0     0     0
SMALL
USER_CHARGES

@<TRIPOS>ATOM
      1 C1         -7.9126   -1.5938    0.5345 C.3       1 <0>        -0.1540
      2 C2         -6.6447   -2.4247    0.3271 C.3       1 <0>        -0.1248
      3 C3         -6.9419   -3.8939    0.6338 C.3       1 <0>        -0.1117
      4 C4         -5.6740   -4.7248    0.4264 C.3       1 <0>        -0.1665
      5 C5         -5.9668   -6.1719    0.7285 C.2       1 <0>         0.4004
      6 O1         -7.0802   -6.5058    1.0755 O.2       1 <0>        -0.4656
      7 C6         -4.9050   -7.1771    0.6027 C.ar      1 <0>        -0.2339
      8 C7         -5.1760   -8.5226    0.8772 C.ar      1 <0>        -0.0109
      9 C8         -4.1867   -9.4619    0.7596 C.ar      1 <0>        -0.1584
     10 C9         -2.9108   -9.0744    0.3636 C.ar      1 <0>         0.2629
     11 C10        -2.6358   -7.7343    0.0908 C.ar      1 <0>        -0.1625
     12 C11        -3.6184   -6.7938    0.2021 C.ar      1 <0>        -0.0264
     13 C12        -1.2493   -7.3243   -0.3340 C.3       1 <0>        -0.0300
     14 C13        -1.2223   -5.8180   -0.6011 C.3       1 <0>        -0.1460
     15 C14        -0.2542   -7.6630    0.7777 C.3       1 <0>        -0.1621
     16 C15        -0.8637   -8.0755   -1.6099 C.3       1 <0>        -0.1577
     17 N1         -1.8912  -10.0121    0.2281 N.pl3     1 <0>        -0.6160
     18 C16        -2.0782  -11.3548    0.7933 C.3       1 <0>         0.1158
     19 C17        -3.4878  -11.8303    0.4177 C.3       1 <0>        -0.1275
     20 C18        -4.5115  -10.9001    1.0683 C.3       1 <0>        -0.0138
     21 C19        -5.9064  -11.2298    0.5331 C.3       1 <0>        -0.1421
     22 C20        -4.4934  -11.1087    2.5839 C.3       1 <0>        -0.1406
     23 C21        -0.6499   -9.6650   -0.4683 C.3       1 <0>        -0.0423
     24 H1         -7.7008   -0.5471    0.3160 H         1 <0>         0.0540
     25 H2         -8.6957   -1.9531   -0.1331 H         1 <0>         0.0543
     26 H3         -8.2444   -1.6892    1.5683 H         1 <0>         0.0543
     27 H4         -6.3128   -2.3293   -0.7068 H         1 <0>         0.0615
     28 H5         -5.8616   -2.0654    0.9947 H         1 <0>         0.0614
     29 H6         -7.2738   -3.9893    1.6676 H         1 <0>         0.0674
     30 H7         -7.7250   -4.2532   -0.0338 H         1 <0>         0.0674
     31 H8         -5.3422   -4.6294   -0.6075 H         1 <0>         0.0959
     32 H9         -4.8909   -4.3655    1.0940 H         1 <0>         0.0959
     33 H10        -6.1680   -8.8207    1.1829 H         1 <0>         0.1315
     34 H11        -3.4040   -5.7576   -0.0137 H         1 <0>         0.1338
     35 H12        -1.4970   -5.2829    0.3078 H         1 <0>         0.0611
     36 H13        -0.2194   -5.5215   -0.9084 H         1 <0>         0.0623
     37 H14        -1.9312   -5.5767   -1.3932 H         1 <0>         0.0623
     38 H15        -0.5371   -8.6071    1.2433 H         1 <0>         0.0745
     39 H16         0.7465   -7.7519    0.3550 H         1 <0>         0.0688
     40 H17        -0.2632   -6.8714    1.5270 H         1 <0>         0.0620
     41 H18        -0.9194   -7.3976   -2.4616 H         1 <0>         0.0415
     42 H19         0.1533   -8.4560   -1.5142 H         1 <0>         0.0678
     43 H20        -1.5503   -8.9082   -1.7628 H         1 <0>         0.0857
     44 H21        -1.3359  -12.0366    0.3782 H         1 <0>         0.0796
     45 H22        -1.9787  -11.3157    1.8780 H         1 <0>         0.0656
     46 H23        -3.6060  -11.8031   -0.6655 H         1 <0>         0.0703
     47 H24        -3.6381  -12.8480    0.7781 H         1 <0>         0.0797
     48 H25        -5.9279  -11.0743   -0.5455 H         1 <0>         0.0566
     49 H26        -6.1442  -12.2701    0.7551 H         1 <0>         0.0593
     50 H27        -6.6410  -10.5797    1.0085 H         1 <0>         0.0615
     51 H28        -5.2350  -10.4593    3.0489 H         1 <0>         0.0585
     52 H29        -4.7281  -12.1488    2.8103 H         1 <0>         0.0592
     53 H30        -3.5040  -10.8667    2.9721 H         1 <0>         0.0548
     54 H31        -0.4146   -8.6157   -0.2903 H         1 <0>         0.1901
     55 H32         0.1627  -10.2881   -0.0948 H         1 <0>         0.0472
     56 H33        -0.7743   -9.8330   -1.5381 H         1 <0>         0.0681
@<TRIPOS>BOND
     1    1    2 1
     2    1   24 1
     3    1   25 1
     4    1   26 1
     5    2    3 1
     6    2   27 1
     7    2   28 1
     8    3    4 1
     9    3   29 1
    10    3   30 1
    11    4    5 1
    12    4   31 1
    13    4   32 1
    14    5    6 2
    15    5    7 1
    16    7   12 ar
    17    7    8 ar
    18    8    9 ar
    19    8   33 1
    20    9   20 1
    21    9   10 ar
    22   10   11 ar
    23   10   17 1
    24   11   12 ar
    25   11   13 1
    26   12   34 1
    27   13   14 1
    28   13   15 1
    29   13   16 1
    30   14   35 1
    31   14   36 1
    32   14   37 1
    33   15   38 1
    34   15   39 1
    35   15   40 1
    36   16   41 1
    37   16   42 1
    38   16   43 1
    39   17   18 1
    40   17   23 1
    41   18   19 1
    42   18   44 1
    43   18   45 1
    44   19   20 1
    45   19   46 1
    46   19   47 1
    47   20   21 1
    48   20   22 1
    49   21   48 1
    50   21   49 1
    51   21   50 1
    52   22   51 1
    53   22   52 1
    54   22   53 1
    55   23   54 1
    56   23   55 1
    57   23   56 1
@<TRIPOS>MOLECULE
CHEMBL15039__1
   57    58     0     0     0
SMALL
USER_CHARGES

@<TRIPOS>ATOM
      1 C1         -2.9995   -1.6688   -5.5420 C.3       1 <0>        -0.1566
      2 C2         -2.5105   -2.8031   -4.6392 C.3       1 <0>        -0.1242
      3 C3         -1.5524   -2.2408   -3.5872 C.3       1 <0>        -0.1151
      4 C4         -1.0635   -3.3751   -2.6844 C.3       1 <0>        -0.1669
      5 C5         -0.1197   -2.8212   -1.6483 C.2       1 <0>         0.3868
      6 O1          0.1366   -1.6361   -1.6334 O.2       1 <0>        -0.4227
      7 C6          0.4909   -3.7186   -0.6545 C.ar      1 <0>        -0.1108
      8 C7          1.3618   -3.2122    0.3122 C.ar      1 <0>        -0.0545
      9 C8          1.9342   -4.0556    1.2486 C.ar      1 <0>        -0.0330
     10 C9          1.6440   -5.4040    1.2349 C.ar      1 <0>        -0.0120
     11 C10         0.7801   -5.9132    0.2691 C.ar      1 <0>        -0.0548
     12 C11         0.2004   -5.0865   -0.6650 C.ar      1 <0>        -0.0643
     13 C12         0.4713   -7.3881    0.2506 C.3       1 <0>        -0.0489
     14 C13        -0.8262   -7.6279   -0.5238 C.3       1 <0>        -0.1532
     15 C14         1.6173   -8.1406   -0.4287 C.3       1 <0>        -0.1723
     16 C15         0.3095   -7.8932    1.6858 C.3       1 <0>        -0.2022
     17 N1          2.1677   -6.3084    2.1597 N.4       1 <0>        -0.3156
     18 C16         3.3935   -5.8096    2.7827 C.3       1 <0>        -0.0204
     19 C17         3.1067   -4.4369    3.4041 C.3       1 <0>        -0.1375
     20 C18         2.8740   -3.4470    2.2601 C.3       1 <0>        -0.0361
     21 C19         2.2604   -2.1605    2.8163 C.3       1 <0>        -0.1500
     22 C20         4.2090   -3.1244    1.5859 C.3       1 <0>        -0.1486
     23 C21         2.4611   -7.5748    1.4754 C.3       1 <0>        -0.2096
     24 H1         -2.1464   -1.2058   -6.0381 H         1 <0>         0.0559
     25 H2         -3.6821   -2.0694   -6.2914 H         1 <0>         0.0581
     26 H3         -3.5182   -0.9230   -4.9398 H         1 <0>         0.0560
     27 H4         -3.3636   -3.2660   -4.1431 H         1 <0>         0.0632
     28 H5         -1.9918   -3.5489   -5.2414 H         1 <0>         0.0631
     29 H6         -0.6993   -1.7778   -4.0833 H         1 <0>         0.0713
     30 H7         -2.0711   -1.4949   -2.9850 H         1 <0>         0.0714
     31 H8         -1.9165   -3.8380   -2.1883 H         1 <0>         0.1040
     32 H9         -0.5447   -4.1209   -3.2867 H         1 <0>         0.1037
     33 H10         1.5903   -2.1567    0.3292 H         1 <0>         0.1575
     34 H11        -0.4725   -5.4925   -1.4058 H         1 <0>         0.1602
     35 H12        -0.7109   -7.2680   -1.5462 H         1 <0>         0.0738
     36 H13        -1.0495   -8.6947   -0.5371 H         1 <0>         0.0790
     37 H14        -1.6426   -7.0918   -0.0399 H         1 <0>         0.0709
     38 H15         2.0148   -8.8910    0.2547 H         1 <0>         0.0858
     39 H16         1.2471   -8.6296   -1.3297 H         1 <0>         0.0786
     40 H17         2.4063   -7.4374   -0.6950 H         1 <0>         0.0776
     41 H18        -0.6823   -7.6304    2.0537 H         1 <0>         0.0889
     42 H19         0.4290   -8.9765    1.7053 H         1 <0>         0.1108
     43 H20         1.0664   -7.4326    2.3206 H         1 <0>         0.0589
     44 H21         3.7166   -6.5023    3.5597 H         1 <0>         0.1382
     45 H22         4.1740   -5.7134    2.0280 H         1 <0>         0.1313
     46 H23         2.2164   -4.4936    4.0303 H         1 <0>         0.0921
     47 H24         3.9600   -4.1166    4.0019 H         1 <0>         0.1209
     48 H25         1.3089   -2.3897    3.2961 H         1 <0>         0.0650
     49 H26         2.9391   -1.7207    3.5471 H         1 <0>         0.0773
     50 H27         2.0962   -1.4547    2.0021 H         1 <0>         0.0722
     51 H28         4.0438   -2.4181    0.7723 H         1 <0>         0.0721
     52 H29         4.8881   -2.6847    2.3164 H         1 <0>         0.0790
     53 H30         4.6462   -4.0405    1.1887 H         1 <0>         0.0582
     54 H31         2.9443   -7.3682    0.5205 H         1 <0>         0.1492
     55 H32         3.1247   -8.1775    2.0955 H         1 <0>         0.1202
     56 H33         1.5321   -8.1181    1.3026 H         1 <0>         0.2351
     57 H34         1.4800   -6.4775    2.8785 H         1 <0>         0.4231
@<TRIPOS>BOND
     1    1    2 1
     2    1   24 1
     3    1   25 1
     4    1   26 1
     5    2    3 1
     6    2   27 1
     7    2   28 1
     8    3    4 1
     9    3   29 1
    10    3   30 1
    11    4    5 1
    12    4   31 1
    13    4   32 1
    14    5    6 2
    15    5    7 1
    16    7   12 ar
    17    7    8 ar
    18    8    9 ar
    19    8   33 1
    20    9   20 1
    21    9   10 ar
    22   10   11 ar
    23   10   17 1
    24   11   12 ar
    25   11   13 1
    26   12   34 1
    27   13   14 1
    28   13   15 1
    29   13   16 1
    30   14   35 1
    31   14   36 1
    32   14   37 1
    33   15   38 1
    34   15   39 1
    35   15   40 1
    36   16   41 1
    37   16   42 1
    38   16   43 1
    39   17   18 1
    40   17   23 1
    41   17   57 1
    42   18   19 1
    43   18   44 1
    44   18   45 1
    45   19   20 1
    46   19   46 1
    47   19   47 1
    48   20   21 1
    49   20   22 1
    50   21   48 1
    51   21   49 1
    52   21   50 1
    53   22   51 1
    54   22   52 1
    55   22   53 1
    56   23   54 1
    57   23   55 1
    58   23   56 1
@<TRIPOS>MOLECULE
CHEMBL1095083
   42    44     0     0     0
SMALL
USER_CHARGES

@<TRIPOS>ATOM
      1 C1         -0.0155    1.3801    0.0124 C.ar      1 <0>        -0.1112
      2 C2          0.4780    0.8189    1.1753 C.ar      1 <0>        -0.1184
      3 C3          1.6839    0.1433    1.1591 C.ar      1 <0>        -0.0972
      4 C4          2.3960    0.0285   -0.0201 C.ar      1 <0>        -0.1265
      5 C5          1.9021    0.5889   -1.1832 C.ar      1 <0>        -0.1179
      6 C6          0.6968    1.2657   -1.1667 C.ar      1 <0>        -0.1178
      7 C7          3.7112   -0.7071   -0.0376 C.3       1 <0>         0.1810
      8 C8          4.0764   -1.0696   -1.4803 C.3       1 <0>        -0.1735
      9 C9          3.0175   -2.0214   -2.0428 C.3       1 <0>         0.1080
     10 H1          2.0506   -1.5186   -2.0628 H         1 <0>         0.0852
     11 O1          2.9339   -3.1824   -1.2138 O.3       1 <0>        -0.3601
     12 C10         2.5496   -2.9095    0.1353 C.3       1 <0>         0.1416
     13 H2          1.5766   -2.4183    0.1439 H         1 <0>         0.0770
     14 C11         3.5898   -1.9934    0.7853 C.3       1 <0>        -0.1319
     15 C12         2.4668   -4.2022    0.9055 C.ar      1 <0>        -0.0798
     16 C13         3.4166   -5.1868    0.7070 C.ar      1 <0>        -0.0763
     17 C14         3.3412   -6.3726    1.4131 C.ar      1 <0>        -0.1120
     18 C15         2.3148   -6.5740    2.3187 C.ar      1 <0>        -0.0293
     19 C16         1.3646   -5.5882    2.5170 C.ar      1 <0>        -0.1106
     20 C17         1.4443   -4.4006    1.8145 C.ar      1 <0>        -0.0934
     21 Cl1         2.2191   -8.0633    3.2056 Cl        1 <0>        -0.0678
     22 C18         3.4066   -2.4355   -3.4634 C.3       1 <0>        -0.1216
     23 S1          2.0815   -3.4433   -4.1838 S.3       1 <0>         0.0773
     24 C19         2.6786   -3.8389   -5.8123 C.1       1 <0>         0.1691
     25 N1          3.0599   -4.0915   -6.8522 N.1       1 <0>        -0.3778
     26 O2          4.7309    0.1234    0.5213 O.3       1 <0>        -0.5443
     27 H3         -0.9599    1.9040    0.0241 H         1 <0>         0.1243
     28 H4         -0.0784    0.9086    2.0966 H         1 <0>         0.1251
     29 H5          2.0698   -0.2945    2.0678 H         1 <0>         0.1251
     30 H6          2.4586    0.4995   -2.1045 H         1 <0>         0.1263
     31 H7          0.3111    1.7039   -2.0754 H         1 <0>         0.1255
     32 H8          4.1107   -0.1640   -2.0859 H         1 <0>         0.0873
     33 H9          5.0509   -1.5576   -1.4977 H         1 <0>         0.0934
     34 H10         4.5544   -2.5001    0.8137 H         1 <0>         0.0885
     35 H11         3.2760   -1.7484    1.8000 H         1 <0>         0.0885
     36 H12         4.2175   -5.0296   -0.0003 H         1 <0>         0.1374
     37 H13         4.0830   -7.1419    1.2576 H         1 <0>         0.1353
     38 H14         0.5630   -5.7450    3.2236 H         1 <0>         0.1361
     39 H15         0.7053   -3.6290    1.9726 H         1 <0>         0.1329
     40 H16         3.5579   -1.5447   -4.0730 H         1 <0>         0.1128
     41 H17         4.3288   -3.0158   -3.4329 H         1 <0>         0.1086
     42 H18         4.8640    0.9557    0.0473 H         1 <0>         0.3810
@<TRIPOS>BOND
     1    1    6 ar
     2    1    2 ar
     3    1   27 1
     4    2    3 ar
     5    2   28 1
     6    3    4 ar
     7    3   29 1
     8    4    5 ar
     9    4    7 1
    10    5    6 ar
    11    5   30 1
    12    6   31 1
    13    7   14 1
    14    7    8 1
    15    7   26 1
    16    8    9 1
    17    8   32 1
    18    8   33 1
    19    9   10 1
    20    9   11 1
    21    9   22 1
    22   11   12 1
    23   12   13 1
    24   12   14 1
    25   12   15 1
    26   14   34 1
    27   14   35 1
    28   15   20 ar
    29   15   16 ar
    30   16   17 ar
    31   16   36 1
    32   17   18 ar
    33   17   37 1
    34   18   19 ar
    35   18   21 1
    36   19   20 ar
    37   19   38 1
    38   20   39 1
    39   22   23 1
    40   22   40 1
    41   22   41 1
    42   23   24 1
    43   24   25 3
    44   26   42 1
@<TRIPOS>MOLECULE
CHEMBL1096723
   57    60     0     0     0
SMALL
USER_CHARGES

@<TRIPOS>ATOM
      1 C1         -0.0187    1.5258    0.0104 C.3       1 <0>        -0.1372
      2 C2          0.0021   -0.0041    0.0020 C.3       1 <0>        -0.0943
      3 S1          0.8794   -0.6050    1.4716 S.3       1 <0>        -0.2394
      4 C3          0.8160   -2.4109    1.3127 C.3       1 <0>        -0.0835
      5 C4          1.5298   -3.0531    2.5040 C.3       1 <0>         0.1159
      6 H1          2.5433   -2.6585    2.5762 H         1 <0>         0.0781
      7 C5          1.5853   -4.5704    2.3085 C.3       1 <0>        -0.1684
      8 C6          2.2472   -5.2112    3.5323 C.3       1 <0>         0.1878
      9 C7          1.4647   -4.8151    4.7882 C.3       1 <0>        -0.0532
     10 H2          0.4507   -5.2100    4.7252 H         1 <0>         0.0988
     11 C8          1.4138   -3.2883    4.8879 C.3       1 <0>         0.1468
     12 H3          2.4258   -2.8969    4.9915 H         1 <0>         0.0811
     13 O1          0.8154   -2.7545    3.7051 O.3       1 <0>        -0.3571
     14 C9          0.5954   -2.8901    6.0891 C.ar      1 <0>        -0.0718
     15 C10        -0.7852   -2.9024    6.0194 C.ar      1 <0>        -0.0801
     16 C11        -1.5362   -2.5373    7.1207 C.ar      1 <0>        -0.1135
     17 C12        -0.9061   -2.1595    8.2930 C.ar      1 <0>        -0.0298
     18 C13         0.4756   -2.1474    8.3621 C.ar      1 <0>        -0.1101
     19 C14         1.2256   -2.5181    7.2619 C.ar      1 <0>        -0.0849
     20 Cl1        -1.8488   -1.7003    9.6765 Cl        1 <0>        -0.0713
     21 C15         2.1496   -5.3781    6.0067 C.ar      1 <0>        -0.0678
     22 C16         3.4496   -5.0112    6.3003 C.ar      1 <0>        -0.0929
     23 C17         4.0779   -5.5276    7.4181 C.ar      1 <0>        -0.1249
     24 C18         3.4061   -6.4107    8.2425 C.ar      1 <0>        -0.1188
     25 C19         2.1057   -6.7769    7.9495 C.ar      1 <0>        -0.1215
     26 C20         1.4760   -6.2571    6.8340 C.ar      1 <0>        -0.1067
     27 C21         2.2366   -6.7108    3.3838 C.ar      1 <0>        -0.1019
     28 C22         1.1668   -7.4451    3.8605 C.ar      1 <0>        -0.1052
     29 C23         1.1571   -8.8207    3.7243 C.ar      1 <0>        -0.1156
     30 C24         2.2171   -9.4620    3.1110 C.ar      1 <0>        -0.1176
     31 C25         3.2865   -8.7276    2.6334 C.ar      1 <0>        -0.1158
     32 C26         3.2941   -7.3516    2.7658 C.ar      1 <0>        -0.1102
     33 O2          3.5950   -4.7496    3.6434 O.3       1 <0>        -0.5429
     34 H4          1.0039    1.9031    0.0027 H         1 <0>         0.0647
     35 H5         -0.5459    1.8868   -0.8726 H         1 <0>         0.0714
     36 H6         -0.5289    1.8773    0.9072 H         1 <0>         0.0657
     37 H7         -1.0205   -0.3814    0.0098 H         1 <0>         0.0797
     38 H8          0.5123   -0.3556   -0.8948 H         1 <0>         0.0783
     39 H9         -0.2237   -2.7376    1.2929 H         1 <0>         0.0888
     40 H10         1.3091   -2.7118    0.3884 H         1 <0>         0.0940
     41 H11         0.5738   -4.9604    2.1954 H         1 <0>         0.0868
     42 H12         2.1677   -4.8017    1.4166 H         1 <0>         0.0842
     43 H13        -1.2769   -3.1970    5.1041 H         1 <0>         0.1340
     44 H14        -2.6148   -2.5466    7.0660 H         1 <0>         0.1330
     45 H15         0.9681   -1.8523    9.2769 H         1 <0>         0.1335
     46 H16         2.3042   -2.5133    7.3173 H         1 <0>         0.1300
     47 H17         3.9746   -4.3213    5.6562 H         1 <0>         0.1344
     48 H18         5.0939   -5.2415    7.6470 H         1 <0>         0.1182
     49 H19         3.8972   -6.8147    9.1154 H         1 <0>         0.1172
     50 H20         1.5809   -7.4670    8.5934 H         1 <0>         0.1177
     51 H21         0.4588   -6.5404    6.6071 H         1 <0>         0.1134
     52 H22         0.3387   -6.9441    4.3398 H         1 <0>         0.1211
     53 H23         0.3217   -9.3944    4.0974 H         1 <0>         0.1225
     54 H24         2.2098  -10.5367    3.0052 H         1 <0>         0.1219
     55 H25         4.1147   -9.2287    2.1545 H         1 <0>         0.1225
     56 H26         4.1279   -6.7776    2.3894 H         1 <0>         0.1189
     57 H27         4.1472   -4.9603    2.8781 H         1 <0>         0.3761
@<TRIPOS>BOND
     1    1    2 1
     2    1   34 1
     3    1   35 1
     4    1   36 1
     5    2    3 1
     6    2   37 1
     7    2   38 1
     8    3    4 1
     9    4    5 1
    10    4   39 1
    11    4   40 1
    12    5    6 1
    13    5   13 1
    14    5    7 1
    15    7    8 1
    16    7   41 1
    17    7   42 1
    18    8    9 1
    19    8   27 1
    20    8   33 1
    21    9   10 1
    22    9   11 1
    23    9   21 1
    24   11   12 1
    25   11   13 1
    26   11   14 1
    27   14   19 ar
    28   14   15 ar
    29   15   16 ar
    30   15   43 1
    31   16   17 ar
    32   16   44 1
    33   17   18 ar
    34   17   20 1
    35   18   19 ar
    36   18   45 1
    37   19   46 1
    38   21   26 ar
    39   21   22 ar
    40   22   23 ar
    41   22   47 1
    42   23   24 ar
    43   23   48 1
    44   24   25 ar
    45   24   49 1
    46   25   26 ar
    47   25   50 1
    48   26   51 1
    49   27   32 ar
    50   27   28 ar
    51   28   29 ar
    52   28   52 1
    53   29   30 ar
    54   29   53 1
    55   30   31 ar
    56   30   54 1
    57   31   32 ar
    58   31   55 1
    59   32   56 1
    60   33   57 1
@<TRIPOS>MOLECULE
CHEMBL158148
   56    59     0     0     0
SMALL
USER_CHARGES

@<TRIPOS>ATOM
      1 C1         -0.0225    1.8097    0.0120 C.3       1 <0>        -0.6502
      2 S1          0.0021   -0.0041    0.0020 S.o2      1 <0>         2.4969
      3 O1          0.8352   -0.4880    1.0465 O.2       1 <0>        -0.9344
      4 O2         -1.3147   -0.5105   -0.1678 O.2       1 <0>        -0.9345
      5 C2          0.8454   -0.4373   -1.4831 C.ar      1 <0>        -0.6511
      6 C3          0.1311   -0.6120   -2.6551 C.ar      1 <0>        -0.0191
      7 C4          0.7855   -0.9513   -3.8213 C.ar      1 <0>        -0.1188
      8 C5          2.1708   -1.1177   -3.8172 C.ar      1 <0>        -0.0036
      9 C6          2.8855   -0.9397   -2.6322 C.ar      1 <0>        -0.1090
     10 C7          2.2199   -0.5958   -1.4737 C.ar      1 <0>        -0.0185
     11 C8          2.8793   -1.4822   -5.0648 C.2       1 <0>        -0.0195
     12 C9          2.6398   -2.7268   -5.6837 C.2       1 <0>         0.0852
     13 N1          3.2619   -3.0518   -6.7829 N.2       1 <0>        -0.2061
     14 N2          4.1809   -2.1859   -7.3827 N.am      1 <0>        -0.4034
     15 C10         4.4506   -0.9833   -6.8373 C.2       1 <0>         0.5074
     16 O3          5.2537   -0.2331   -7.3672 O.2       1 <0>        -0.5128
     17 C11         3.7880   -0.5956   -5.6457 C.2       1 <0>        -0.0760
     18 C12         4.0581    0.7208   -5.0267 C.ar      1 <0>        -0.0504
     19 C13         3.0449    1.6770   -4.9444 C.ar      1 <0>        -0.0641
     20 C14         3.3019    2.9024   -4.3660 C.ar      1 <0>        -0.1531
     21 C15         4.5636    3.1849   -3.8670 C.ar      1 <0>         0.1109
     22 C16         5.5733    2.2389   -3.9463 C.ar      1 <0>        -0.1507
     23 C17         5.3255    1.0085   -4.5180 C.ar      1 <0>        -0.0539
     24 F1          4.8103    4.3869   -3.3018 F         1 <0>        -0.1357
     25 C18         4.8584   -2.5901   -8.6172 C.3       1 <0>         0.1264
     26 C19         6.1571   -3.3208   -8.2704 C.3       1 <0>        -0.1001
     27 C20         7.1187   -2.3518   -7.5796 C.3       1 <0>        -0.1080
     28 C21         8.4174   -3.0826   -7.2328 C.3       1 <0>        -0.1198
     29 C22         9.0619   -3.6134   -8.5149 C.3       1 <0>        -0.1208
     30 C23         8.1003   -4.5824   -9.2057 C.3       1 <0>        -0.1178
     31 C24         6.8016   -3.8516   -9.5525 C.3       1 <0>        -0.1112
     32 H1          1.0001    2.1870    0.0043 H         1 <0>         0.1323
     33 H2         -0.5497    2.1708   -0.8711 H         1 <0>         0.1324
     34 H3         -0.5327    2.1613    0.9088 H         1 <0>         0.1350
     35 H4         -0.9412   -0.4829   -2.6569 H         1 <0>         0.1484
     36 H5          0.2267   -1.0881   -4.7353 H         1 <0>         0.1390
     37 H6          3.9579   -1.0675   -2.6225 H         1 <0>         0.1346
     38 H7          2.7724   -0.4537   -0.5566 H         1 <0>         0.1472
     39 H8          1.9354   -3.4169   -5.2433 H         1 <0>         0.1977
     40 H9          2.0614    1.4580   -5.3332 H         1 <0>         0.1321
     41 H10         2.5186    3.6432   -4.3020 H         1 <0>         0.1401
     42 H11         6.5549    2.4642   -3.5563 H         1 <0>         0.1411
     43 H12         6.1118    0.2704   -4.5752 H         1 <0>         0.1327
     44 H13         4.2089   -3.2542   -9.1874 H         1 <0>         0.0975
     45 H14         5.0868   -1.7060   -9.2125 H         1 <0>         0.1028
     46 H15         5.9381   -4.1536   -7.6021 H         1 <0>         0.0765
     47 H16         7.3377   -1.5190   -8.2478 H         1 <0>         0.0709
     48 H17         6.6595   -1.9737   -6.6662 H         1 <0>         0.0527
     49 H18         9.1025   -2.3922   -6.7406 H         1 <0>         0.0611
     50 H19         8.1984   -3.9154   -6.5645 H         1 <0>         0.0580
     51 H20         9.2809   -2.7806   -9.1831 H         1 <0>         0.0626
     52 H21         9.9872   -4.1340   -8.2678 H         1 <0>         0.0613
     53 H22         8.5595   -4.9605  -10.1191 H         1 <0>         0.0647
     54 H23         7.8813   -5.4152   -8.5374 H         1 <0>         0.0617
     55 H24         6.1166   -4.5419  -10.0447 H         1 <0>         0.0663
     56 H25         7.0206   -3.0188  -10.2208 H         1 <0>         0.0669
@<TRIPOS>BOND
     1    1    2 1
     2    1   32 1
     3    1   33 1
     4    1   34 1
     5    2    3 2
     6    2    4 2
     7    2    5 1
     8    5   10 ar
     9    5    6 ar
    10    6    7 ar
    11    6   35 1
    12    7    8 ar
    13    7   36 1
    14    8    9 ar
    15    8   11 1
    16    9   10 ar
    17    9   37 1
    18   10   38 1
    19   11   17 2
    20   11   12 1
    21   12   13 2
    22   12   39 1
    23   13   14 1
    24   14   15 am
    25   14   25 1
    26   15   16 2
    27   15   17 1
    28   17   18 1
    29   18   23 ar
    30   18   19 ar
    31   19   20 ar
    32   19   40 1
    33   20   21 ar
    34   20   41 1
    35   21   22 ar
    36   21   24 1
    37   22   23 ar
    38   22   42 1
    39   23   43 1
    40   25   26 1
    41   25   44 1
    42   25   45 1
    43   26   31 1
    44   26   27 1
    45   26   46 1
    46   27   28 1
    47   27   47 1
    48   27   48 1
    49   28   29 1
    50   28   49 1
    51   28   50 1
    52   29   30 1
    53   29   51 1
    54   29   52 1
    55   30   31 1
    56   30   53 1
    57   30   54 1
    58   31   55 1
    59   31   56 1
@<TRIPOS>MOLECULE
CHEMBL29423
   48    51     0     0     0
SMALL
USER_CHARGES

@<TRIPOS>ATOM
      1 C1          0.4924    0.6792    0.0968 C.3       1 <0>         0.0248
      2 O1          0.3411   -0.7412    0.0587 O.3       1 <0>        -0.3148
      3 C2         -0.9280   -1.2267    0.0556 C.ar      1 <0>         0.1421
      4 C3         -2.0048   -0.3508    0.0829 C.ar      1 <0>        -0.2106
      5 C4         -3.2940   -0.8406    0.0803 C.ar      1 <0>        -0.0451
      6 C5         -3.5154   -2.2162    0.0497 C.ar      1 <0>        -0.0640
      7 C6         -2.4325   -3.0930    0.0219 C.ar      1 <0>        -0.0494
      8 C7         -1.1454   -2.5973    0.0194 C.ar      1 <0>        -0.1521
      9 C8         -4.9014   -2.7463    0.0473 C.2       1 <0>         0.1387
     10 C9         -5.2627   -4.1043    0.0238 C.2       1 <0>        -0.2235
     11 C10        -6.6252   -4.1733    0.0299 C.2       1 <0>         0.1320
     12 N1         -7.1018   -2.8929    0.0565 N.pl3     1 <0>        -0.3347
     13 N2         -6.0029   -2.0245    0.0725 N.2       1 <0>        -0.2677
     14 C11        -8.4501   -2.5158    0.0708 C.ar      1 <0>         0.2115
     15 C12        -9.3417   -3.1524    0.9244 C.ar      1 <0>        -0.1405
     16 C13       -10.6709   -2.7778    0.9365 C.ar      1 <0>         0.0000
     17 C14       -11.1144   -1.7700    0.0999 C.ar      1 <0>        -0.6782
     18 C15       -10.2293   -1.1344   -0.7515 C.ar      1 <0>         0.0018
     19 C16        -8.8977   -1.5004   -0.7644 C.ar      1 <0>        -0.1292
     20 S1        -12.8111   -1.2951    0.1184 S.o2      1 <0>         2.7029
     21 O2        -13.0812   -0.7040   -1.1453 O.2       1 <0>        -0.9585
     22 O3        -13.5402   -2.4120    0.6085 O.2       1 <0>        -0.9580
     23 N3        -12.9709   -0.0935    1.2467 N.pl3     1 <0>        -1.2491
     24 C17        -7.4384   -5.4090    0.0107 C.ar      1 <0>        -0.0400
     25 C18        -8.7330   -5.3873   -0.5093 C.ar      1 <0>        -0.0951
     26 C19        -9.4867   -6.5426   -0.5246 C.ar      1 <0>        -0.1048
     27 C20        -8.9609   -7.7221   -0.0252 C.ar      1 <0>        -0.0217
     28 C21        -7.6768   -7.7496    0.4921 C.ar      1 <0>        -0.1062
     29 C22        -6.9117   -6.6017    0.5073 C.ar      1 <0>        -0.0737
     30 Cl1        -9.9154   -9.1720   -0.0472 Cl        1 <0>        -0.0581
     31 H1          1.5527    0.9319    0.0952 H         1 <0>         0.1029
     32 H2          0.0126    1.1193   -0.7774 H         1 <0>         0.0578
     33 H3          0.0271    1.0700    1.0018 H         1 <0>         0.0577
     34 H4         -1.8326    0.7151    0.1066 H         1 <0>         0.1333
     35 H5         -4.1313   -0.1587    0.1022 H         1 <0>         0.1323
     36 H6         -2.6009   -4.1595   -0.0018 H         1 <0>         0.1363
     37 H7         -0.3059   -3.2762   -0.0062 H         1 <0>         0.1380
     38 H8         -4.5830   -4.9434    0.0041 H         1 <0>         0.1620
     39 H9         -8.9960   -3.9398    1.5778 H         1 <0>         0.1431
     40 H10       -11.3648   -3.2727    1.5998 H         1 <0>         0.1558
     41 H11       -10.5789   -0.3480   -1.4040 H         1 <0>         0.1554
     42 H12        -8.2060   -1.0007   -1.4264 H         1 <0>         0.1459
     43 H13       -12.1961    0.2100    1.7451 H         1 <0>         0.4175
     44 H14       -13.8394    0.3067    1.4093 H         1 <0>         0.4229
     45 H15        -9.1442   -4.4678   -0.8988 H         1 <0>         0.1331
     46 H16       -10.4890   -6.5269   -0.9266 H         1 <0>         0.1417
     47 H17        -7.2718   -8.6724    0.8806 H         1 <0>         0.1431
     48 H18        -5.9087   -6.6253    0.9069 H         1 <0>         0.1422
@<TRIPOS>BOND
     1    1    2 1
     2    1   31 1
     3    1   32 1
     4    1   33 1
     5    2    3 1
     6    3    8 ar
     7    3    4 ar
     8    4    5 ar
     9    4   34 1
    10    5    6 ar
    11    5   35 1
    12    6    7 ar
    13    6    9 1
    14    7    8 ar
    15    7   36 1
    16    8   37 1
    17    9   13 2
    18    9   10 1
    19   10   11 2
    20   10   38 1
    21   11   12 1
    22   11   24 1
    23   12   13 1
    24   12   14 1
    25   14   19 ar
    26   14   15 ar
    27   15   16 ar
    28   15   39 1
    29   16   17 ar
    30   16   40 1
    31   17   18 ar
    32   17   20 1
    33   18   19 ar
    34   18   41 1
    35   19   42 1
    36   20   21 2
    37   20   22 2
    38   20   23 1
    39   23   43 1
    40   23   44 1
    41   24   29 ar
    42   24   25 ar
    43   25   26 ar
    44   25   45 1
    45   26   27 ar
    46   26   46 1
    47   27   28 ar
    48   27   30 1
    49   28   29 ar
    50   28   47 1
    51   29   48 1
@<TRIPOS>MOLECULE
CHEMBL29424
   51    54     0     0     0
SMALL
USER_CHARGES

@<TRIPOS>ATOM
      1 C1         -0.3563    1.6240    0.8351 C.ar      1 <0>        -0.1118
      2 C2          0.8349    2.3174    0.7299 C.ar      1 <0>        -0.1233
      3 C3          2.0215    1.6303    0.5545 C.ar      1 <0>        -0.0972
      4 C4          2.0169    0.2497    0.4847 C.ar      1 <0>        -0.0937
      5 C5          0.8258   -0.4437    0.5908 C.ar      1 <0>        -0.0974
      6 C6         -0.3609    0.2435    0.7648 C.ar      1 <0>        -0.1235
      7 C7          3.3104   -0.4993    0.2924 C.3       1 <0>         0.1058
      8 O1          3.8784   -0.8042    1.5677 O.3       1 <0>        -0.3742
      9 C8          5.1144   -1.5179    1.4978 C.3       1 <0>         0.1440
     10 C9          5.6200   -1.7846    2.8922 C.2       1 <0>         0.0879
     11 C10         4.9849   -1.4040    4.0747 C.2       1 <0>        -0.2052
     12 C11         5.7560   -1.8286    5.1201 C.2       1 <0>         0.1240
     13 N1          6.8457   -2.4589    4.5907 N.pl3     1 <0>        -0.3345
     14 N2          6.7256   -2.4171    3.1957 N.2       1 <0>        -0.2667
     15 C12         7.8927   -3.0460    5.3128 C.ar      1 <0>         0.2121
     16 C13         7.6152   -3.8606    6.4027 C.ar      1 <0>        -0.1403
     17 C14         8.6496   -4.4383    7.1123 C.ar      1 <0>         0.0001
     18 C15         9.9606   -4.2059    6.7389 C.ar      1 <0>        -0.6782
     19 C16        10.2403   -3.3949    5.6544 C.ar      1 <0>         0.0017
     20 C17         9.2101   -2.8192    4.9369 C.ar      1 <0>        -0.1293
     21 S1         11.2776   -4.9444    7.6472 S.o2      1 <0>         2.7030
     22 O2         12.4245   -4.1337    7.4313 O.2       1 <0>        -0.9585
     23 O3         10.7715   -5.2176    8.9466 O.2       1 <0>        -0.9580
     24 N3         11.5951   -6.4101    6.9451 N.pl3     1 <0>        -1.2491
     25 C18         5.4646   -1.6399    6.5580 C.ar      1 <0>        -0.0378
     26 C19         6.5061   -1.6156    7.4863 C.ar      1 <0>        -0.0962
     27 C20         6.2285   -1.4389    8.8259 C.ar      1 <0>        -0.1051
     28 C21         4.9192   -1.2863    9.2501 C.ar      1 <0>        -0.0222
     29 C22         3.8816   -1.3100    8.3335 C.ar      1 <0>        -0.1061
     30 C23         4.1477   -1.4799    6.9907 C.ar      1 <0>        -0.0730
     31 Cl1         4.5773   -1.0648   10.9376 Cl        1 <0>        -0.0588
     32 H1         -1.2828    2.1606    0.9767 H         1 <0>         0.1233
     33 H2          0.8385    3.3961    0.7845 H         1 <0>         0.1242
     34 H3          2.9521    2.1721    0.4716 H         1 <0>         0.1232
     35 H4          0.8222   -1.5223    0.5359 H         1 <0>         0.1232
     36 H5         -1.2916   -0.2983    0.8474 H         1 <0>         0.1242
     37 H6          3.1171   -1.4249   -0.2499 H         1 <0>         0.0626
     38 H7          4.0059    0.1170   -0.2772 H         1 <0>         0.0626
     39 H8          4.9585   -2.4646    0.9806 H         1 <0>         0.0765
     40 H9          5.8474   -0.9227    0.9532 H         1 <0>         0.0766
     41 H10         4.0500   -0.8686    4.1505 H         1 <0>         0.1646
     42 H11         6.5915   -4.0419    6.6952 H         1 <0>         0.1432
     43 H12         8.4344   -5.0719    7.9600 H         1 <0>         0.1559
     44 H13        11.2652   -3.2150    5.3654 H         1 <0>         0.1555
     45 H14         9.4290   -2.1895    4.0872 H         1 <0>         0.1460
     46 H15        11.0806   -6.7010    6.1759 H         1 <0>         0.4176
     47 H16        12.2954   -6.9778    7.3030 H         1 <0>         0.4229
     48 H17         7.5276   -1.7352    7.1566 H         1 <0>         0.1327
     49 H18         7.0338   -1.4199    9.5453 H         1 <0>         0.1414
     50 H19         2.8623   -1.1912    8.6702 H         1 <0>         0.1428
     51 H20         3.3380   -1.4938    6.2761 H         1 <0>         0.1424
@<TRIPOS>BOND
     1    1    6 ar
     2    1    2 ar
     3    1   32 1
     4    2    3 ar
     5    2   33 1
     6    3    4 ar
     7    3   34 1
     8    4    5 ar
     9    4    7 1
    10    5    6 ar
    11    5   35 1
    12    6   36 1
    13    7    8 1
    14    7   37 1
    15    7   38 1
    16    8    9 1
    17    9   10 1
    18    9   39 1
    19    9   40 1
    20   10   14 2
    21   10   11 1
    22   11   12 2
    23   11   41 1
    24   12   13 1
    25   12   25 1
    26   13   14 1
    27   13   15 1
    28   15   20 ar
    29   15   16 ar
    30   16   17 ar
    31   16   42 1
    32   17   18 ar
    33   17   43 1
    34   18   19 ar
    35   18   21 1
    36   19   20 ar
    37   19   44 1
    38   20   45 1
    39   21   22 2
    40   21   23 2
    41   21   24 1
    42   24   46 1
    43   24   47 1
    44   25   30 ar
    45   25   26 ar
    46   26   27 ar
    47   26   48 1
    48   27   28 ar
    49   27   49 1
    50   28   29 ar
    51   28   31 1
    52   29   30 ar
    53   29   50 1
    54   30   51 1
@<TRIPOS>MOLECULE
CHEMBL282839
   42    45     0     0     0
SMALL
USER_CHARGES

@<TRIPOS>ATOM
      1 C1          0.8724    0.0757   -0.8162 C.ar      1 <0>        -0.1333
      2 C2          2.1174    0.6525   -0.6594 C.ar      1 <0>        -0.0001
      3 C3          2.6080    0.9082    0.6080 C.ar      1 <0>        -0.6730
      4 C4          1.8541    0.5875    1.7220 C.ar      1 <0>         0.0020
      5 C5          0.6085    0.0100    1.5719 C.ar      1 <0>        -0.1238
      6 C6          0.1129   -0.2476    0.3006 C.ar      1 <0>         0.1989
      7 N1         -1.1504   -0.8323    0.1449 N.pl3     1 <0>        -0.3182
      8 C7         -1.4644   -1.8600   -0.6980 C.2       1 <0>         0.1564
      9 C8         -2.7962   -2.1226   -0.5397 C.2       1 <0>        -0.2068
     10 C9         -3.2962   -1.2376    0.4162 C.2       1 <0>        -0.0024
     11 N2         -2.3179   -0.4722    0.8302 N.2       1 <0>        -0.2183
     12 C10        -4.7232   -1.1772    0.8969 C.3       1 <0>         0.5579
     13 F1         -4.8809   -2.0263    1.9975 F         1 <0>        -0.1638
     14 F2         -5.0340    0.1344    1.2715 F         1 <0>        -0.1640
     15 F3         -5.5795   -1.5836   -0.1321 F         1 <0>        -0.1613
     16 C11        -0.5356   -2.5586   -1.6128 C.ar      1 <0>        -0.0840
     17 C12         0.8308   -2.6003   -1.3308 C.ar      1 <0>        -0.0653
     18 C13         1.6935   -3.2544   -2.1808 C.ar      1 <0>        -0.1334
     19 C14         1.2130   -3.8796   -3.3309 C.ar      1 <0>         0.1319
     20 C15        -0.1480   -3.8278   -3.6104 C.ar      1 <0>        -0.1730
     21 C16        -1.0195   -3.1866   -2.7622 C.ar      1 <0>        -0.0294
     22 C17        -0.3609   -4.5641   -4.9192 C.3       1 <0>        -0.1109
     23 C18         1.0802   -4.6525   -5.4746 C.3       1 <0>         0.0496
     24 O1          1.8847   -4.5808   -4.2854 O.3       1 <0>        -0.2985
     25 S1          4.1971    1.6437    0.8038 S.o2      1 <0>         2.7031
     26 O2          4.6566    1.2793    2.0981 O.2       1 <0>        -0.9569
     27 O3          4.9304    1.3464   -0.3766 O.2       1 <0>        -0.9567
     28 N3          3.9779    3.2850    0.8240 N.pl3     1 <0>        -1.2487
     29 H1          0.4879   -0.1197   -1.8063 H         1 <0>         0.1463
     30 H2          2.7087    0.9038   -1.5275 H         1 <0>         0.1582
     31 H3          2.2400    0.7884    2.7105 H         1 <0>         0.1580
     32 H4          0.0205   -0.2409    2.4424 H         1 <0>         0.1482
     33 H5         -3.3615   -2.8803   -1.0620 H         1 <0>         0.1727
     34 H6          1.2124   -2.1176   -0.4433 H         1 <0>         0.1337
     35 H7          2.7493   -3.2832   -1.9557 H         1 <0>         0.1391
     36 H8         -2.0756   -3.1644   -2.9871 H         1 <0>         0.1368
     37 H9         -0.7727   -5.5580   -4.7445 H         1 <0>         0.0962
     38 H10        -1.0019   -3.9907   -5.5889 H         1 <0>         0.0971
     39 H11         1.2376   -5.5996   -5.9908 H         1 <0>         0.1121
     40 H12         1.2917   -3.8117   -6.1352 H         1 <0>         0.0823
     41 H13         3.0862    3.6563    0.7355 H         1 <0>         0.4178
     42 H14         4.7412    3.8750    0.9245 H         1 <0>         0.4235
@<TRIPOS>BOND
     1    1    6 ar
     2    1    2 ar
     3    1   29 1
     4    2    3 ar
     5    2   30 1
     6    3    4 ar
     7    3   25 1
     8    4    5 ar
     9    4   31 1
    10    5    6 ar
    11    5   32 1
    12    6    7 1
    13    7   11 1
    14    7    8 1
    15    8    9 2
    16    8   16 1
    17    9   10 1
    18    9   33 1
    19   10   11 2
    20   10   12 1
    21   12   13 1
    22   12   14 1
    23   12   15 1
    24   16   21 ar
    25   16   17 ar
    26   17   18 ar
    27   17   34 1
    28   18   19 ar
    29   18   35 1
    30   19   24 1
    31   19   20 ar
    32   20   21 ar
    33   20   22 1
    34   21   36 1
    35   22   23 1
    36   22   37 1
    37   22   38 1
    38   23   24 1
    39   23   39 1
    40   23   40 1
    41   25   26 2
    42   25   27 2
    43   25   28 1
    44   28   41 1
    45   28   42 1
@<TRIPOS>MOLECULE
CHEMBL55395
   43    46     0     0     0
SMALL
USER_CHARGES

@<TRIPOS>ATOM
      1 C1         -0.0168    1.3899    0.0097 C.ar      1 <0>        -0.1270
      2 C2          1.1703    2.0934    0.0021 C.ar      1 <0>        -0.0147
      3 C3          2.3775    1.4181   -0.0135 C.ar      1 <0>        -0.6709
      4 C4          2.4025    0.0350   -0.0216 C.ar      1 <0>        -0.0147
      5 C5          1.2218   -0.6792   -0.0137 C.ar      1 <0>        -0.1123
      6 C6          0.0021   -0.0041    0.0020 C.ar      1 <0>         0.0133
      7 C7         -1.2697   -0.7654    0.0106 C.ar      1 <0>        -0.0334
      8 C8         -2.2603   -0.4618    0.9406 C.ar      1 <0>        -0.1046
      9 C9         -3.4448   -1.1732    0.9455 C.ar      1 <0>         0.0733
     10 C10        -3.6538   -2.1929    0.0257 C.ar      1 <0>         0.0826
     11 C11        -2.6793   -2.5048   -0.9029 C.ar      1 <0>        -0.1122
     12 C12        -1.4832   -1.7922   -0.9228 C.ar      1 <0>         0.0002
     13 C13        -0.4380   -2.1197   -1.9213 C.ar      1 <0>        -0.0581
     14 C14         0.1435   -1.1065   -2.6824 C.ar      1 <0>        -0.0873
     15 C15         1.1153   -1.4138   -3.6115 C.ar      1 <0>        -0.1100
     16 C16         1.5190   -2.7299   -3.7921 C.ar      1 <0>         0.0648
     17 C17         0.9441   -3.7446   -3.0338 C.ar      1 <0>         0.0524
     18 C18        -0.0298   -3.4407   -2.0976 C.ar      1 <0>        -0.0955
     19 O1          1.3340   -5.0392   -3.1928 O.3       1 <0>        -0.3055
     20 C19         2.0467   -5.3539   -4.3939 C.3       1 <0>         0.0201
     21 C20         3.1249   -4.2829   -4.6073 C.3       1 <0>         0.0189
     22 O2          2.4774   -3.0108   -4.7171 O.3       1 <0>        -0.3038
     23 F1         -4.8151   -2.8831    0.0393 F         1 <0>        -0.1217
     24 F2         -4.4040   -0.8760    1.8493 F         1 <0>        -0.1225
     25 S1          3.8893    2.3232   -0.0236 S.o2      1 <0>         2.6988
     26 O3          4.8719    1.4662   -0.5889 O.2       1 <0>        -0.9609
     27 O4          3.5927    3.6032   -0.5647 O.2       1 <0>        -0.9612
     28 N1          4.3251    2.5662    1.5554 N.pl3     1 <0>        -1.2499
     29 H1         -0.9587    1.9182    0.0260 H         1 <0>         0.1394
     30 H2          1.1569    3.1733    0.0081 H         1 <0>         0.1477
     31 H3          3.3480   -0.4869   -0.0345 H         1 <0>         0.1454
     32 H4          1.2425   -1.7590   -0.0204 H         1 <0>         0.1365
     33 H5         -2.1028    0.3296    1.6585 H         1 <0>         0.1539
     34 H6         -2.8469   -3.2986   -1.6158 H         1 <0>         0.1546
     35 H7         -0.1672   -0.0813   -2.5446 H         1 <0>         0.1337
     36 H8          1.5642   -0.6277   -4.2005 H         1 <0>         0.1403
     37 H9         -0.4757   -4.2273   -1.5070 H         1 <0>         0.1395
     38 H10         2.5154   -6.3333   -4.2974 H         1 <0>         0.1254
     39 H11         1.3588   -5.3567   -5.2395 H         1 <0>         0.0798
     40 H12         3.8086   -4.2754   -3.7585 H         1 <0>         0.0810
     41 H13         3.6771   -4.4945   -5.5230 H         1 <0>         0.1255
     42 H14         3.7667    2.2238    2.2708 H         1 <0>         0.4170
     43 H15         5.1388    3.0509    1.7649 H         1 <0>         0.4220
@<TRIPOS>BOND
     1    1    6 ar
     2    1    2 ar
     3    1   29 1
     4    2    3 ar
     5    2   30 1
     6    3    4 ar
     7    3   25 1
     8    4    5 ar
     9    4   31 1
    10    5    6 ar
    11    5   32 1
    12    6    7 1
    13    7   12 ar
    14    7    8 ar
    15    8    9 ar
    16    8   33 1
    17    9   10 ar
    18    9   24 1
    19   10   11 ar
    20   10   23 1
    21   11   12 ar
    22   11   34 1
    23   12   13 1
    24   13   18 ar
    25   13   14 ar
    26   14   15 ar
    27   14   35 1
    28   15   16 ar
    29   15   36 1
    30   16   22 1
    31   16   17 ar
    32   17   18 ar
    33   17   19 1
    34   18   37 1
    35   19   20 1
    36   20   21 1
    37   20   38 1
    38   20   39 1
    39   21   22 1
    40   21   40 1
    41   21   41 1
    42   25   26 2
    43   25   27 2
    44   25   28 1
    45   28   42 1
    46   28   43 1
@<TRIPOS>MOLECULE
CHEMBL64759
   59    61     0     0     0
SMALL
USER_CHARGES

@<TRIPOS>ATOM
      1 C1         -1.4227    1.0099   -1.1326 C.3       1 <0>        -0.1493
      2 C2         -1.2057   -0.5046   -1.1468 C.3       1 <0>        -0.0216
      3 C3         -0.8923   -0.9882    0.2705 C.3       1 <0>        -0.1426
      4 C4         -2.4728   -1.1965   -1.6533 C.3       1 <0>        -0.1430
      5 C5         -0.0527   -0.8383   -2.0580 C.ar      1 <0>        -0.0964
      6 C6          0.6210    0.1701   -2.7133 C.ar      1 <0>        -0.0791
      7 C7          1.6888   -0.1400   -3.5570 C.ar      1 <0>        -0.0995
      8 C8          2.0702   -1.4710   -3.7337 C.ar      1 <0>        -0.1007
      9 C9          1.3915   -2.4739   -3.0748 C.ar      1 <0>        -0.0981
     10 C10         0.3333   -2.1608   -2.2319 C.ar      1 <0>         0.1416
     11 O1         -0.3296   -3.1515   -1.5800 O.3       1 <0>        -0.4841
     12 C11         1.8020   -3.9113   -3.2652 C.3       1 <0>        -0.0213
     13 C12         2.9872   -3.9796   -4.2304 C.3       1 <0>        -0.1516
     14 C13         2.2077   -4.5088   -1.9164 C.3       1 <0>        -0.1429
     15 C14         0.6281   -4.7049   -3.8422 C.3       1 <0>        -0.1434
     16 C15         2.4134    0.9379   -4.2618 C.2       1 <0>         0.0956
     17 C16         3.5387    0.6674   -4.9089 C.2       1 <0>        -0.6921
     18 C17         4.3707   -0.6085   -4.8948 C.3       1 <0>        -0.1091
     19 C18         5.8300   -0.2157   -5.1333 C.3       1 <0>         0.0726
     20 N1          5.9452    0.9137   -6.0646 N.pl3     1 <0>        -0.9285
     21 S1          4.4663    1.6986   -6.0268 S.o2      1 <0>         2.6471
     22 O2          4.6668    2.9500   -5.3841 O.2       1 <0>        -0.9461
     23 O3          3.8785    1.5671   -7.3138 O.2       1 <0>        -0.9372
     24 C19         7.0607    1.2606   -6.8309 C.ar      1 <0>         0.1606
     25 C20         7.2487    2.5756   -7.2506 C.ar      1 <0>        -0.1330
     26 C21         8.3699    2.8702   -8.0084 C.ar      1 <0>        -0.1261
     27 C22         9.2589    1.8584   -8.3211 C.ar      1 <0>         0.0724
     28 N2          9.0522    0.6232   -7.9085 N.ar      1 <0>        -0.4530
     29 C23         8.0016    0.3006   -7.1807 C.ar      1 <0>         0.0737
     30 H1         -0.5200    1.5029   -0.7718 H         1 <0>         0.0596
     31 H2         -1.6460    1.3545   -2.1423 H         1 <0>         0.0590
     32 H3         -2.2566    1.2513   -0.4736 H         1 <0>         0.0621
     33 H4         -1.7263   -0.7468    0.9295 H         1 <0>         0.0563
     34 H5         -0.7378   -2.0671    0.2603 H         1 <0>         0.0751
     35 H6          0.0104   -0.4952    0.6313 H         1 <0>         0.0517
     36 H7         -2.6961   -0.8520   -2.6630 H         1 <0>         0.0552
     37 H8         -2.3183   -2.2755   -1.6634 H         1 <0>         0.0580
     38 H9         -3.3068   -0.9551   -0.9943 H         1 <0>         0.0628
     39 H10         0.3228    1.1988   -2.5744 H         1 <0>         0.1382
     40 H11         2.8957   -1.7150   -4.3860 H         1 <0>         0.1532
     41 H12        -1.0804   -3.5119   -2.0714 H         1 <0>         0.3862
     42 H13         3.8236   -3.4142   -3.8194 H         1 <0>         0.0581
     43 H14         3.2842   -5.0193   -4.3681 H         1 <0>         0.0644
     44 H15         2.6982   -3.5540   -5.1914 H         1 <0>         0.0588
     45 H16         1.3634   -4.4601   -1.2288 H         1 <0>         0.0758
     46 H17         2.5047   -5.5485   -2.0541 H         1 <0>         0.0565
     47 H18         3.0441   -3.9434   -1.5054 H         1 <0>         0.0515
     48 H19         0.3391   -4.2792   -4.8031 H         1 <0>         0.0554
     49 H20         0.9250   -5.7446   -3.9799 H         1 <0>         0.0632
     50 H21        -0.2163   -4.6562   -3.1545 H         1 <0>         0.0582
     51 H22         2.0264    1.9461   -4.2498 H         1 <0>         0.1438
     52 H23         4.2743   -1.1017   -3.9276 H         1 <0>         0.1248
     53 H24         4.0342   -1.2776   -5.6867 H         1 <0>         0.1051
     54 H25         6.2837    0.0608   -4.1816 H         1 <0>         0.0916
     55 H26         6.3657   -1.0714   -5.5445 H         1 <0>         0.1036
     56 H27         6.5376    3.3461   -6.9918 H         1 <0>         0.1380
     57 H28         8.5477    3.8788   -8.3514 H         1 <0>         0.1462
     58 H29        10.1345    2.0828   -8.9121 H         1 <0>         0.1631
     59 H30         7.8686   -0.7211   -6.8572 H         1 <0>         0.1595
@<TRIPOS>BOND
     1    1    2 1
     2    1   30 1
     3    1   31 1
     4    1   32 1
     5    2    3 1
     6    2    4 1
     7    2    5 1
     8    3   33 1
     9    3   34 1
    10    3   35 1
    11    4   36 1
    12    4   37 1
    13    4   38 1
    14    5   10 ar
    15    5    6 ar
    16    6    7 ar
    17    6   39 1
    18    7    8 ar
    19    7   16 1
    20    8    9 ar
    21    8   40 1
    22    9   10 ar
    23    9   12 1
    24   10   11 1
    25   11   41 1
    26   12   13 1
    27   12   14 1
    28   12   15 1
    29   13   42 1
    30   13   43 1
    31   13   44 1
    32   14   45 1
    33   14   46 1
    34   14   47 1
    35   15   48 1
    36   15   49 1
    37   15   50 1
    38   16   17 2
    39   16   51 1
    40   17   21 1
    41   17   18 1
    42   18   19 1
    43   18   52 1
    44   18   53 1
    45   19   20 1
    46   19   54 1
    47   19   55 1
    48   20   21 1
    49   20   24 1
    50   21   22 2
    51   21   23 2
    52   24   29 ar
    53   24   25 ar
    54   25   26 ar
    55   25   56 1
    56   26   27 ar
    57   26   57 1
    58   27   28 ar
    59   27   58 1
    60   28   29 ar
    61   29   59 1
@<TRIPOS>MOLECULE
CHEMBL599
   35    37     0     0     0
SMALL
USER_CHARGES

@<TRIPOS>ATOM
      1 C1         -3.8281    0.1080   -0.2180 C.3       1 <0>        -0.0473
      2 C2         -2.8733   -1.0569   -0.1677 C.2       1 <0>        -0.2486
      3 C3         -1.5519   -1.0792    0.1342 C.2       1 <0>         0.0744
      4 N1         -0.9488   -2.2533    0.1023 N.2       1 <0>        -0.5317
      5 C4         -1.6085   -3.3482   -0.2098 C.2       1 <0>         0.3134
      6 S1         -3.1724   -2.7888   -0.4819 S.3       1 <0>         0.0501
      7 N2         -1.1317   -4.6497   -0.2894 N.am      1 <0>        -0.6372
      8 C5          0.1646   -4.9097   -0.0274 C.2       1 <0>         0.5661
      9 O1          0.9484   -3.9922    0.1374 O.2       1 <0>        -0.4639
     10 C6          0.6158   -6.2517    0.0565 C.2       1 <0>        -0.2316
     11 C7          1.9424   -6.4875    0.1512 C.2       1 <0>         0.2866
     12 C8          2.5400   -7.8250    0.2503 C.ar      1 <0>         0.0185
     13 C9          3.8641   -7.9776    0.6755 C.ar      1 <0>        -0.0966
     14 C10         4.4147   -9.2381    0.7662 C.ar      1 <0>        -0.0819
     15 C11         3.6677  -10.3566    0.4394 C.ar      1 <0>        -0.1424
     16 C12         2.3551  -10.2173    0.0167 C.ar      1 <0>        -0.0321
     17 C13         1.7977   -8.9659   -0.0774 C.ar      1 <0>        -0.6471
     18 S2          0.1290   -8.7501   -0.6167 S.o2      1 <0>         2.6915
     19 O2         -0.6471   -9.7570    0.0183 O.2       1 <0>        -0.9714
     20 O3          0.1659   -8.5818   -2.0272 O.2       1 <0>        -0.9574
     21 N3         -0.3359   -7.2896    0.0439 N.pl3     1 <0>        -0.9132
     22 C14        -1.6821   -7.0922    0.5869 C.3       1 <0>         0.0755
     23 O4          2.7765   -5.4197    0.1546 O.3       1 <0>        -0.6096
     24 H1         -4.8209   -0.2477   -0.4936 H         1 <0>         0.0661
     25 H2         -3.8718    0.5844    0.7614 H         1 <0>         0.0724
     26 H3         -3.4822    0.8296   -0.9580 H         1 <0>         0.0727
     27 H4         -1.0163   -0.1768    0.3892 H         1 <0>         0.1658
     28 H5         -1.7314   -5.3719   -0.5336 H         1 <0>         0.4163
     29 H6          4.4534   -7.1098    0.9324 H         1 <0>         0.1411
     30 H7          5.4371   -9.3539    1.0943 H         1 <0>         0.1271
     31 H8          4.1085  -11.3397    0.5137 H         1 <0>         0.1282
     32 H9          1.7727  -11.0904   -0.2382 H         1 <0>         0.1313
     33 H10        -1.7763   -6.0736    0.9634 H         1 <0>         0.0895
     34 H11        -2.4189   -7.2587   -0.1989 H         1 <0>         0.0557
     35 H12        -1.8528   -7.7974    1.4004 H         1 <0>         0.0695
@<TRIPOS>BOND
     1    1    2 1
     2    1   24 1
     3    1   25 1
     4    1   26 1
     5    2    6 1
     6    2    3 2
     7    3    4 1
     8    3   27 1
     9    4    5 2
    10    5    6 1
    11    5    7 1
    12    7    8 am
    13    7   28 1
    14    8    9 2
    15    8   10 1
    16   10   21 1
    17   10   11 2
    18   11   12 1
    19   11   23 1
    20   12   17 ar
    21   12   13 ar
    22   13   14 ar
    23   13   29 1
    24   14   15 ar
    25   14   30 1
    26   15   16 ar
    27   15   31 1
    28   16   17 ar
    29   16   32 1
    30   17   18 1
    31   18   19 2
    32   18   20 2
    33   18   21 1
    34   21   22 1
    35   22   33 1
    36   22   34 1
    37   22   35 1
@<TRIPOS>MOLECULE
CHEMBL282093
   37    39     0     0     0
SMALL
USER_CHARGES

@<TRIPOS>ATOM
      1 C1          1.1545   -0.5804   -0.5546 C.ar      1 <0>        -0.0922
      2 C2          2.3350    0.1331   -0.5717 C.ar      1 <0>        -0.1046
      3 C3          2.3775    1.4188   -0.0594 C.ar      1 <0>        -0.0175
      4 C4          1.2368    1.9957    0.4730 C.ar      1 <0>        -0.1057
      5 C5          0.0508    1.2916    0.4958 C.ar      1 <0>        -0.0692
      6 C6          0.0018   -0.0040   -0.0198 C.ar      1 <0>        -0.0466
      7 C7         -1.2672   -0.7638    0.0010 C.2       1 <0>         0.1429
      8 C8         -2.5276   -0.2357    0.0142 C.2       1 <0>        -0.1983
      9 C9         -3.4353   -1.2951    0.0320 C.2       1 <0>        -0.0038
     10 N1         -2.7656   -2.4202    0.0299 N.2       1 <0>        -0.2138
     11 N2         -1.3969   -2.1233    0.0045 N.pl3     1 <0>        -0.3160
     12 C10        -0.3496   -3.0535   -0.0108 C.ar      1 <0>         0.1963
     13 C11         0.7406   -2.8878    0.8332 C.ar      1 <0>        -0.1334
     14 C12         1.7713   -3.8069    0.8160 C.ar      1 <0>        -0.0002
     15 C13         1.7188   -4.8910   -0.0408 C.ar      1 <0>        -0.6720
     16 C14         0.6347   -5.0586   -0.8829 C.ar      1 <0>         0.0022
     17 C15        -0.4021   -4.1463   -0.8660 C.ar      1 <0>        -0.1224
     18 S1          3.0361   -6.0610   -0.0602 S.o2      1 <0>         2.7030
     19 O1          3.0051   -6.6865   -1.3357 O.2       1 <0>        -0.9564
     20 O2          4.1865   -5.3855    0.4293 O.2       1 <0>        -0.9562
     21 N3          2.6668   -7.2325    1.0505 N.pl3     1 <0>        -1.2485
     22 C16        -4.9367   -1.1658    0.0511 C.3       1 <0>         0.5581
     23 F1         -5.4186   -1.1331   -1.2618 F         1 <0>        -0.1632
     24 F2         -5.4904   -2.2603    0.7240 F         1 <0>        -0.1635
     25 F3         -5.2947    0.0158    0.7089 F         1 <0>        -0.1606
     26 Cl1         3.8666    2.3107   -0.0843 Cl        1 <0>        -0.0545
     27 H1          1.1215   -1.5815   -0.9584 H         1 <0>         0.1343
     28 H2          3.2279   -0.3122   -0.9850 H         1 <0>         0.1437
     29 H3          1.2759    2.9988    0.8714 H         1 <0>         0.1453
     30 H4         -0.8381    1.7424    0.9120 H         1 <0>         0.1443
     31 H5         -2.7767    0.8152    0.0117 H         1 <0>         0.1750
     32 H6          0.7826   -2.0409    1.5021 H         1 <0>         0.1460
     33 H7          2.6195   -3.6785    1.4722 H         1 <0>         0.1589
     34 H8          0.5967   -5.9061   -1.5512 H         1 <0>         0.1586
     35 H9         -1.2506   -4.2801   -1.5207 H         1 <0>         0.1486
     36 H10         1.8432   -7.1756    1.5598 H         1 <0>         0.4178
     37 H11         3.2741   -7.9756    1.1918 H         1 <0>         0.4237
@<TRIPOS>BOND
     1    1    6 ar
     2    1    2 ar
     3    1   27 1
     4    2    3 ar
     5    2   28 1
     6    3    4 ar
     7    3   26 1
     8    4    5 ar
     9    4   29 1
    10    5    6 ar
    11    5   30 1
    12    6    7 1
    13    7   11 1
    14    7    8 2
    15    8    9 1
    16    8   31 1
    17    9   10 2
    18    9   22 1
    19   10   11 1
    20   11   12 1
    21   12   17 ar
    22   12   13 ar
    23   13   14 ar
    24   13   32 1
    25   14   15 ar
    26   14   33 1
    27   15   16 ar
    28   15   18 1
    29   16   17 ar
    30   16   34 1
    31   17   35 1
    32   18   19 2
    33   18   20 2
    34   18   21 1
    35   21   36 1
    36   21   37 1
    37   22   23 1
    38   22   24 1
    39   22   25 1
@<TRIPOS>MOLECULE
CHEMBL278392
   38    40     0     0     0
SMALL
USER_CHARGES

@<TRIPOS>ATOM
      1 C1         -0.0225    1.8097    0.0120 C.3       1 <0>        -0.6500
      2 S1          0.0021   -0.0041    0.0020 S.o2      1 <0>         2.4963
      3 O1          0.8352   -0.4880    1.0465 O.2       1 <0>        -0.9341
      4 O2         -1.3147   -0.5105   -0.1678 O.2       1 <0>        -0.9343
      5 C2          0.8454   -0.4373   -1.4831 C.ar      1 <0>        -0.6513
      6 C3          0.1296   -0.6119   -2.6552 C.ar      1 <0>        -0.0197
      7 C4          0.7812   -0.9508   -3.8215 C.ar      1 <0>        -0.1173
      8 C5          2.1716   -1.1181   -3.8186 C.ar      1 <0>        -0.0070
      9 C6          2.8879   -0.9392   -2.6286 C.ar      1 <0>        -0.1135
     10 C7          2.2207   -0.5956   -1.4724 C.ar      1 <0>        -0.0189
     11 C8          2.8741   -1.4795   -5.0557 C.2       1 <0>         0.0155
     12 C9          3.7770   -0.6944   -5.6948 C.2       1 <0>        -0.1717
     13 C10         4.2974   -1.3379   -6.8964 C.2       1 <0>         0.3982
     14 O3          5.1160   -0.8704   -7.6609 O.2       1 <0>        -0.4290
     15 C11         3.6348   -2.6921   -7.0184 C.3       1 <0>        -0.1756
     16 C12         2.7026   -2.7807   -5.7986 C.3       1 <0>        -0.0977
     17 C13         4.1847    0.6522   -5.2296 C.ar      1 <0>        -0.0023
     18 C14         3.2554    1.6912   -5.1944 C.ar      1 <0>        -0.0797
     19 C15         3.6401    2.9441   -4.7596 C.ar      1 <0>        -0.0190
     20 C16         4.9471    3.1699   -4.3593 C.ar      1 <0>        -0.0278
     21 C17         5.8742    2.1409   -4.3930 C.ar      1 <0>        -0.0175
     22 C18         5.4976    0.8829   -4.8203 C.ar      1 <0>        -0.0751
     23 Cl1         7.5102    2.4317   -3.8904 Cl        1 <0>        -0.0281
     24 Cl2         5.4248    4.7474   -3.8144 Cl        1 <0>        -0.0217
     25 Cl3         2.4842    4.2387   -4.7152 Cl        1 <0>        -0.0307
     26 H1          1.0001    2.1870    0.0043 H         1 <0>         0.1326
     27 H2         -0.5497    2.1708   -0.8711 H         1 <0>         0.1327
     28 H3         -0.5327    2.1613    0.9088 H         1 <0>         0.1355
     29 H4         -0.9427   -0.4824   -2.6556 H         1 <0>         0.1486
     30 H5          0.2212   -1.0873   -4.7348 H         1 <0>         0.1396
     31 H6          3.9603   -1.0663   -2.6176 H         1 <0>         0.1363
     32 H7          2.7720   -0.4532   -0.5547 H         1 <0>         0.1479
     33 H8          3.0620   -2.7527   -7.9438 H         1 <0>         0.1154
     34 H9          4.3814   -3.4853   -6.9800 H         1 <0>         0.1152
     35 H10         2.9905   -3.6178   -5.1626 H         1 <0>         0.1055
     36 H11         1.6688   -2.8939   -6.1252 H         1 <0>         0.1046
     37 H12         2.2365    1.5163   -5.5069 H         1 <0>         0.1483
     38 H13         6.2199    0.0803   -4.8419 H         1 <0>         0.1499
@<TRIPOS>BOND
     1    1    2 1
     2    1   26 1
     3    1   27 1
     4    1   28 1
     5    2    3 2
     6    2    4 2
     7    2    5 1
     8    5   10 ar
     9    5    6 ar
    10    6    7 ar
    11    6   29 1
    12    7    8 ar
    13    7   30 1
    14    8    9 ar
    15    8   11 1
    16    9   10 ar
    17    9   31 1
    18   10   32 1
    19   11   16 1
    20   11   12 2
    21   12   13 1
    22   12   17 1
    23   13   14 2
    24   13   15 1
    25   15   16 1
    26   15   33 1
    27   15   34 1
    28   16   35 1
    29   16   36 1
    30   17   22 ar
    31   17   18 ar
    32   18   19 ar
    33   18   37 1
    34   19   20 ar
    35   19   25 1
    36   20   21 ar
    37   20   24 1
    38   21   22 ar
    39   21   23 1
    40   22   38 1
@<TRIPOS>MOLECULE
CHEMBL298084
   49    52     0     0     0
SMALL
USER_CHARGES

@<TRIPOS>ATOM
      1 C1          0.7785    1.1348    0.7350 C.3       1 <0>        -0.6494
      2 S1          0.8490   -0.6688    0.5543 S.o2      1 <0>         2.4982
      3 O1          1.8356   -1.2096    1.4223 O.2       1 <0>        -0.9307
      4 O2         -0.4648   -1.2095    0.5248 O.2       1 <0>        -0.9311
      5 C2          1.4820   -0.9369   -1.0681 C.ar      1 <0>        -0.6535
      6 C3          0.6138   -1.0362   -2.1398 C.ar      1 <0>        -0.0053
      7 C4          1.1069   -1.2459   -3.4128 C.ar      1 <0>        -0.1304
      8 C5          2.4759   -1.3570   -3.6158 C.ar      1 <0>         0.1645
      9 C6          3.3451   -1.2569   -2.5377 C.ar      1 <0>        -0.1256
     10 C7          2.8462   -1.0420   -1.2679 C.ar      1 <0>        -0.0074
     11 N1          2.9793   -1.5703   -4.9061 N.pl3     1 <0>        -0.4165
     12 C8          2.6543   -2.6017   -5.7488 C.2       1 <0>        -0.0052
     13 C9          3.3630   -2.4237   -6.8822 C.2       1 <0>         0.0211
     14 N2          4.1045   -1.3178   -6.7486 N.2       1 <0>        -0.4448
     15 C10         3.8834   -0.7864   -5.5665 C.2       1 <0>         0.2630
     16 C11         4.5079    0.4462   -5.0405 C.ar      1 <0>        -0.0169
     17 C12         5.6924    0.9259   -5.6018 C.ar      1 <0>        -0.0598
     18 C13         6.2702    2.0766   -5.1072 C.ar      1 <0>        -0.1071
     19 C14         5.6773    2.7557   -4.0560 C.ar      1 <0>        -0.0218
     20 C15         4.5024    2.2844   -3.4948 C.ar      1 <0>        -0.1072
     21 C16         3.9123    1.1379   -3.9847 C.ar      1 <0>        -0.0996
     22 Cl1         6.4104    4.2033   -3.4389 Cl        1 <0>        -0.0597
     23 C17         3.3262   -3.3187   -8.0940 C.3       1 <0>        -0.0237
     24 S2          2.0355   -2.7436   -9.2315 S.3       1 <0>        -0.0875
     25 C18         2.1181   -3.8771  -10.5780 C.ar      1 <0>        -0.0822
     26 C19         3.0428   -4.9142  -10.5594 C.ar      1 <0>        -0.1233
     27 C20         3.1051   -5.8008  -11.6162 C.ar      1 <0>        -0.0884
     28 C21         2.2478   -5.6574  -12.6931 C.ar      1 <0>        -0.0420
     29 C22         1.3257   -4.6256  -12.7146 C.ar      1 <0>        -0.0893
     30 C23         1.2547   -3.7391  -11.6581 C.ar      1 <0>        -0.0883
     31 Cl2         2.3295   -6.7738  -14.0200 Cl        1 <0>        -0.0661
     32 H1          1.7792    1.5509    0.6187 H         1 <0>         0.1336
     33 H2          0.1210    1.5510   -0.0282 H         1 <0>         0.1335
     34 H3          0.3930    1.3861    1.7231 H         1 <0>         0.1371
     35 H4         -0.4510   -0.9500   -1.9812 H         1 <0>         0.1565
     36 H5          0.4283   -1.3237   -4.2494 H         1 <0>         0.1453
     37 H6          4.4105   -1.3434   -2.6925 H         1 <0>         0.1434
     38 H7          3.5221   -0.9599   -0.4295 H         1 <0>         0.1565
     39 H8          1.9619   -3.4048   -5.5437 H         1 <0>         0.1879
     40 H9          6.1558    0.3969   -6.4214 H         1 <0>         0.1468
     41 H10         7.1869    2.4485   -5.5404 H         1 <0>         0.1433
     42 H11         4.0449    2.8178   -2.6747 H         1 <0>         0.1398
     43 H12         2.9935    0.7737   -3.5492 H         1 <0>         0.1330
     44 H13         4.2929   -3.2895   -8.5968 H         1 <0>         0.1069
     45 H14         3.1085   -4.3409   -7.7844 H         1 <0>         0.1044
     46 H15         3.7123   -5.0264   -9.7194 H         1 <0>         0.1324
     47 H16         3.8238   -6.6068  -11.6024 H         1 <0>         0.1374
     48 H17         0.6583   -4.5160  -13.5565 H         1 <0>         0.1398
     49 H18         0.5318   -2.9369  -11.6732 H         1 <0>         0.1378
@<TRIPOS>BOND
     1    1    2 1
     2    1   32 1
     3    1   33 1
     4    1   34 1
     5    2    3 2
     6    2    4 2
     7    2    5 1
     8    5   10 ar
     9    5    6 ar
    10    6    7 ar
    11    6   35 1
    12    7    8 ar
    13    7   36 1
    14    8    9 ar
    15    8   11 1
    16    9   10 ar
    17    9   37 1
    18   10   38 1
    19   11   15 1
    20   11   12 1
    21   12   13 2
    22   12   39 1
    23   13   14 1
    24   13   23 1
    25   14   15 2
    26   15   16 1
    27   16   21 ar
    28   16   17 ar
    29   17   18 ar
    30   17   40 1
    31   18   19 ar
    32   18   41 1
    33   19   20 ar
    34   19   22 1
    35   20   21 ar
    36   20   42 1
    37   21   43 1
    38   23   24 1
    39   23   44 1
    40   23   45 1
    41   24   25 1
    42   25   30 ar
    43   25   26 ar
    44   26   27 ar
    45   26   46 1
    46   27   28 ar
    47   27   47 1
    48   28   29 ar
    49   28   31 1
    50   29   30 ar
    51   29   48 1
    52   30   49 1
@<TRIPOS>MOLECULE
CHEMBL23556
   42    44     0     0     0
SMALL
USER_CHARGES

@<TRIPOS>ATOM
      1 C1         -0.0225    1.8097    0.0120 C.3       1 <0>        -0.6504
      2 S1          0.0021   -0.0041    0.0020 S.o2      1 <0>         2.4983
      3 O1          0.8352   -0.4880    1.0465 O.2       1 <0>        -0.9350
      4 O2         -1.3147   -0.5105   -0.1678 O.2       1 <0>        -0.9349
      5 C2          0.8454   -0.4373   -1.4831 C.ar      1 <0>        -0.6553
      6 C3          0.1293   -0.6119   -2.6552 C.ar      1 <0>        -0.0211
      7 C4          0.7806   -0.9508   -3.8215 C.ar      1 <0>        -0.1197
      8 C5          2.1717   -1.1187   -3.8187 C.ar      1 <0>         0.0045
      9 C6          2.8881   -0.9399   -2.6279 C.ar      1 <0>        -0.1188
     10 C7          2.2209   -0.5956   -1.4723 C.ar      1 <0>        -0.0204
     11 C8          2.8735   -1.4797   -5.0546 C.2       1 <0>        -0.0159
     12 C9          2.9622   -0.6875   -6.1707 C.2       1 <0>        -0.1601
     13 C10         3.7309   -1.3407   -7.2291 C.2       1 <0>         0.3972
     14 O3          3.9729   -0.8796   -8.3251 O.2       1 <0>        -0.4375
     15 C11         4.1710   -2.6927   -6.7148 C.3       1 <0>        -0.1776
     16 C12         3.6108   -2.7747   -5.2857 C.3       1 <0>        -0.0944
     17 C13         2.3600    0.6489   -6.2882 C.2       1 <0>        -0.1124
     18 C14         2.5012    1.3525   -7.4259 C.2       1 <0>        -0.0910
     19 C15         1.8980    2.6910   -7.5436 C.ar      1 <0>        -0.0712
     20 C16         1.1830    3.2354   -6.4727 C.ar      1 <0>        -0.0839
     21 C17         0.6208    4.4887   -6.5893 C.ar      1 <0>        -0.1524
     22 C18         0.7633    5.2089   -7.7651 C.ar      1 <0>         0.1014
     23 C19         1.4707    4.6745   -8.8308 C.ar      1 <0>        -0.1518
     24 C20         2.0430    3.4248   -8.7247 C.ar      1 <0>        -0.0731
     25 F1          0.2100    6.4367   -7.8731 F         1 <0>        -0.1376
     26 H1          1.0001    2.1870    0.0043 H         1 <0>         0.1321
     27 H2         -0.5497    2.1708   -0.8711 H         1 <0>         0.1319
     28 H3         -0.5327    2.1613    0.9088 H         1 <0>         0.1348
     29 H4         -0.9429   -0.4825   -2.6554 H         1 <0>         0.1476
     30 H5          0.2205   -1.0870   -4.7348 H         1 <0>         0.1383
     31 H6          3.9605   -1.0677   -2.6166 H         1 <0>         0.1384
     32 H7          2.7720   -0.4531   -0.5545 H         1 <0>         0.1477
     33 H8          3.7561   -3.4874   -7.3348 H         1 <0>         0.1130
     34 H9          5.2591   -2.7549   -6.6953 H         1 <0>         0.1125
     35 H10         4.4234   -2.8777   -4.5666 H         1 <0>         0.1002
     36 H11         2.9248   -3.6176   -5.2014 H         1 <0>         0.1003
     37 H12         1.8044    1.0654   -5.4611 H         1 <0>         0.1235
     38 H13         3.0569    0.9359   -8.2530 H         1 <0>         0.1445
     39 H14         1.0711    2.6751   -5.5562 H         1 <0>         0.1335
     40 H15         0.0679    4.9102   -5.7628 H         1 <0>         0.1375
     41 H16         1.5778    5.2405   -9.7444 H         1 <0>         0.1391
     42 H17         2.5983    3.0117   -9.5538 H         1 <0>         0.1379
@<TRIPOS>BOND
     1    1    2 1
     2    1   26 1
     3    1   27 1
     4    1   28 1
     5    2    3 2
     6    2    4 2
     7    2    5 1
     8    5   10 ar
     9    5    6 ar
    10    6    7 ar
    11    6   29 1
    12    7    8 ar
    13    7   30 1
    14    8    9 ar
    15    8   11 1
    16    9   10 ar
    17    9   31 1
    18   10   32 1
    19   11   16 1
    20   11   12 2
    21   12   13 1
    22   12   17 1
    23   13   14 2
    24   13   15 1
    25   15   16 1
    26   15   33 1
    27   15   34 1
    28   16   35 1
    29   16   36 1
    30   17   18 2
    31   17   37 1
    32   18   19 1
    33   18   38 1
    34   19   24 ar
    35   19   20 ar
    36   20   21 ar
    37   20   39 1
    38   21   22 ar
    39   21   40 1
    40   22   23 ar
    41   22   25 1
    42   23   24 ar
    43   23   41 1
    44   24   42 1
@<TRIPOS>MOLECULE
CHEMBL17179
   41    44     0     0     0
SMALL
USER_CHARGES

@<TRIPOS>ATOM
      1 C1          0.9032   -1.1874    1.3519 C.3       1 <0>        -0.6501
      2 S1         -0.0072   -0.2811    0.0710 S.o2      1 <0>         2.4981
      3 O1         -1.3028   -0.8400   -0.0968 O.2       1 <0>        -0.9352
      4 O2          0.1604    1.1187    0.2492 O.2       1 <0>        -0.9344
      5 C2          0.8385   -0.6477   -1.4307 C.ar      1 <0>        -0.6541
      6 C3          1.8840    0.1580   -1.8465 C.ar      1 <0>        -0.0187
      7 C4          2.5505   -0.1229   -3.0208 C.ar      1 <0>        -0.1066
      8 C5          2.1679   -1.2238   -3.7911 C.ar      1 <0>         0.0535
      9 C6          1.1114   -2.0328   -3.3651 C.ar      1 <0>        -0.1231
     10 C7          0.4577   -1.7431   -2.1857 C.ar      1 <0>        -0.0188
     11 C8          2.8757   -1.5305   -5.0489 C.2       1 <0>        -0.1522
     12 C9          4.2442   -1.6108   -5.3040 C.2       1 <0>         0.1434
     13 N1          4.6452   -1.9045   -6.5228 N.2       1 <0>        -0.4624
     14 C10         3.7820   -2.1234   -7.5032 C.2       1 <0>         0.1497
     15 S2          2.2166   -1.9101   -6.6673 S.3       1 <0>         0.0608
     16 C11         4.0445   -2.4612   -8.9175 C.ar      1 <0>        -0.0143
     17 C12         2.9813   -2.6482   -9.8029 C.ar      1 <0>        -0.0809
     18 C13         3.2332   -2.9629  -11.1219 C.ar      1 <0>        -0.1134
     19 C14         4.5363   -3.0937  -11.5693 C.ar      1 <0>        -0.0846
     20 C15         5.5950   -2.9101  -10.6985 C.ar      1 <0>        -0.1132
     21 C16         5.3576   -2.5894   -9.3763 C.ar      1 <0>         0.0030
     22 Cl1         6.6875   -2.3527   -8.2858 Cl        1 <0>        -0.0277
     23 C17         5.2292   -1.3694   -4.2227 C.2       1 <0>        -0.0571
     24 C18         6.3688   -0.6048   -4.4554 C.2       1 <0>        -0.1302
     25 C19         7.2437   -0.4066   -3.4438 C.2       1 <0>        -0.1721
     26 S3          6.4820   -1.3049   -2.1029 S.3       1 <0>         0.0578
     27 C20         5.0363   -1.8880   -2.9723 C.2       1 <0>        -0.1550
     28 H1          0.8819   -2.2537    1.1271 H         1 <0>         0.1322
     29 H2          1.9366   -0.8418    1.3764 H         1 <0>         0.1327
     30 H3          0.4380   -1.0112    2.3218 H         1 <0>         0.1346
     31 H4          2.1785    1.0089   -1.2502 H         1 <0>         0.1488
     32 H5          3.3661    0.5070   -3.3443 H         1 <0>         0.1364
     33 H6          0.8103   -2.8855   -3.9556 H         1 <0>         0.1364
     34 H7         -0.3560   -2.3703   -1.8527 H         1 <0>         0.1487
     35 H8          1.9637   -2.5469   -9.4555 H         1 <0>         0.1355
     36 H9          2.4113   -3.1080  -11.8074 H         1 <0>         0.1398
     37 H10         4.7273   -3.3406  -12.6032 H         1 <0>         0.1401
     38 H11         6.6095   -3.0140  -11.0541 H         1 <0>         0.1427
     39 H12         6.5517   -0.1764   -5.4298 H         1 <0>         0.1372
     40 H13         8.1680    0.1522   -3.4466 H         1 <0>         0.1889
     41 H14         4.2213   -2.4946   -2.6060 H         1 <0>         0.1836
@<TRIPOS>BOND
     1    1    2 1
     2    1   28 1
     3    1   29 1
     4    1   30 1
     5    2    3 2
     6    2    4 2
     7    2    5 1
     8    5   10 ar
     9    5    6 ar
    10    6    7 ar
    11    6   31 1
    12    7    8 ar
    13    7   32 1
    14    8    9 ar
    15    8   11 1
    16    9   10 ar
    17    9   33 1
    18   10   34 1
    19   11   15 1
    20   11   12 2
    21   12   13 1
    22   12   23 1
    23   13   14 2
    24   14   15 1
    25   14   16 1
    26   16   21 ar
    27   16   17 ar
    28   17   18 ar
    29   17   35 1
    30   18   19 ar
    31   18   36 1
    32   19   20 ar
    33   19   37 1
    34   20   21 ar
    35   20   38 1
    36   21   22 1
    37   23   27 2
    38   23   24 1
    39   24   25 2
    40   24   39 1
    41   25   26 1
    42   25   40 1
    43   26   27 1
    44   27   41 1
@<TRIPOS>MOLECULE
CHEMBL273420
   39    42     0     0     0
SMALL
USER_CHARGES

@<TRIPOS>ATOM
      1 C1         -0.3289    1.2153    0.7860 C.ar      1 <0>        -0.1114
      2 C2          0.8049    1.9875    0.9745 C.ar      1 <0>        -0.0834
      3 C3          2.0604    1.4162    0.9011 C.ar      1 <0>        -0.0874
      4 C4          2.1920    0.0591    0.6413 C.ar      1 <0>        -0.0632
      5 C5          1.0441   -0.7268    0.4610 C.ar      1 <0>        -0.0516
      6 C6         -0.2162   -0.1360    0.5292 C.ar      1 <0>        -0.0941
      7 C7          1.1783   -2.1763    0.2187 C.2       1 <0>         0.1504
      8 C8          2.2907   -2.9205    0.5117 C.2       1 <0>        -0.1836
      9 C9          2.0349   -4.2367    0.1425 C.2       1 <0>         0.0122
     10 N1          0.8237   -4.3022   -0.3554 N.2       1 <0>        -0.2106
     11 N2          0.2568   -3.0198   -0.3223 N.pl3     1 <0>        -0.3056
     12 C10        -1.0252   -2.6703   -0.7655 C.ar      1 <0>         0.1922
     13 C11        -1.2024   -1.5526   -1.5703 C.ar      1 <0>        -0.1301
     14 C12        -2.4677   -1.2106   -2.0057 C.ar      1 <0>        -0.0046
     15 C13        -3.5575   -1.9796   -1.6406 C.ar      1 <0>        -0.6715
     16 C14        -3.3843   -3.0932   -0.8393 C.ar      1 <0>         0.0033
     17 C15        -2.1207   -3.4440   -0.4057 C.ar      1 <0>        -0.1197
     18 S1         -5.1702   -1.5392   -2.1971 S.o2      1 <0>         2.7037
     19 O1         -6.0879   -2.1042   -1.2709 O.2       1 <0>        -0.9557
     20 O2         -5.1355   -0.1476   -2.4826 O.2       1 <0>        -0.9530
     21 N3         -5.4182   -2.3124   -3.6405 N.pl3     1 <0>        -1.2460
     22 C16         2.9897   -5.3933    0.2896 C.3       1 <0>         0.5592
     23 F1          2.8041   -5.9954    1.5387 F         1 <0>        -0.1607
     24 F2          2.7463   -6.3302   -0.7205 F         1 <0>        -0.1601
     25 F3          4.3051   -4.9281    0.1870 F         1 <0>        -0.1595
     26 C17         3.5517   -2.3665    1.1255 C.3       1 <0>        -0.0427
     27 S2          3.7933   -0.6674    0.5310 S.3       1 <0>        -0.0781
     28 H1         -1.3059    1.6717    0.8446 H         1 <0>         0.1370
     29 H2          0.7070    3.0432    1.1798 H         1 <0>         0.1386
     30 H3          2.9401    2.0259    1.0455 H         1 <0>         0.1417
     31 H4         -1.1030   -0.7346    0.3816 H         1 <0>         0.1318
     32 H5         -0.3518   -0.9512   -1.8552 H         1 <0>         0.1468
     33 H6         -2.6062   -0.3415   -2.6316 H         1 <0>         0.1597
     34 H7         -4.2374   -3.6916   -0.5556 H         1 <0>         0.1588
     35 H8         -1.9855   -4.3166    0.2161 H         1 <0>         0.1485
     36 H9         -6.3148   -2.5733   -3.9031 H         1 <0>         0.4245
     37 H10        -4.6669   -2.5043   -4.2232 H         1 <0>         0.4184
     38 H11         3.4591   -2.3646    2.2116 H         1 <0>         0.1088
     39 H12         4.4022   -2.9809    0.8303 H         1 <0>         0.1371
@<TRIPOS>BOND
     1    1    6 ar
     2    1    2 ar
     3    1   28 1
     4    2    3 ar
     5    2   29 1
     6    3    4 ar
     7    3   30 1
     8    4   27 1
     9    4    5 ar
    10    5    6 ar
    11    5    7 1
    12    6   31 1
    13    7   11 1
    14    7    8 2
    15    8    9 1
    16    8   26 1
    17    9   10 2
    18    9   22 1
    19   10   11 1
    20   11   12 1
    21   12   17 ar
    22   12   13 ar
    23   13   14 ar
    24   13   32 1
    25   14   15 ar
    26   14   33 1
    27   15   16 ar
    28   15   18 1
    29   16   17 ar
    30   16   34 1
    31   17   35 1
    32   18   19 2
    33   18   20 2
    34   18   21 1
    35   21   36 1
    36   21   37 1
    37   22   23 1
    38   22   24 1
    39   22   25 1
    40   26   27 1
    41   26   38 1
    42   26   39 1
@<TRIPOS>MOLECULE
CHEMBL296220
   41    43     0     0     0
SMALL
USER_CHARGES

@<TRIPOS>ATOM
      1 C1         -0.1148    1.9106   -0.1107 C.3       1 <0>        -0.6501
      2 S1         -0.0770    0.0975   -0.0682 S.o2      1 <0>         2.4991
      3 O1          0.7414   -0.3500    1.0038 O.2       1 <0>        -0.9355
      4 O2         -1.3870   -0.4237   -0.2459 O.2       1 <0>        -0.9356
      5 C2          0.7950   -0.3715   -1.5257 C.ar      1 <0>        -0.6552
      6 C3          0.1027   -0.5852   -2.7040 C.ar      1 <0>        -0.0207
      7 C4          0.7805   -0.9523   -3.8488 C.ar      1 <0>        -0.1242
      8 C5          2.1652   -1.1076   -3.8160 C.ar      1 <0>         0.0139
      9 C6          2.8575   -0.8911   -2.6259 C.ar      1 <0>        -0.1093
     10 C7          2.1698   -0.5192   -1.4886 C.ar      1 <0>        -0.0202
     11 C8          2.8992   -1.5024   -5.0429 C.ar      1 <0>        -0.1259
     12 C9          2.4767   -2.5946   -5.8021 C.ar      1 <0>         0.0242
     13 C10         3.1956   -2.9231   -6.9399 C.ar      1 <0>        -0.2724
     14 C11         4.2994   -2.1675   -7.2871 C.ar      1 <0>         0.2061
     15 N1          4.6795   -1.1390   -6.5532 N.ar      1 <0>        -0.5182
     16 C12         4.0240   -0.7824   -5.4621 C.ar      1 <0>         0.3643
     17 O3          4.4471    0.2854   -4.7412 O.3       1 <0>        -0.2321
     18 C13         5.5987    0.8974   -5.1233 C.ar      1 <0>         0.0794
     19 C14         5.6025    1.7497   -6.2182 C.ar      1 <0>        -0.1079
     20 C15         6.7745    2.3705   -6.6046 C.ar      1 <0>        -0.1061
     21 C16         7.9431    2.1431   -5.9014 C.ar      1 <0>        -0.1099
     22 C17         7.9420    1.2942   -4.8100 C.ar      1 <0>        -0.1064
     23 C18         6.7715    0.6754   -4.4159 C.ar      1 <0>        -0.1130
     24 C19         2.7779   -4.0944   -7.7913 C.3       1 <0>         0.5218
     25 F1          1.8781   -3.6614   -8.7711 F         1 <0>        -0.1720
     26 F2          3.9053   -4.6496   -8.4060 F         1 <0>        -0.1722
     27 F3          2.1625   -5.0596   -6.9869 F         1 <0>        -0.1731
     28 H1          0.9050    2.2954   -0.1118 H         1 <0>         0.1321
     29 H2         -0.6293    2.2422   -1.0127 H         1 <0>         0.1320
     30 H3         -0.6430    2.2837    0.7668 H         1 <0>         0.1343
     31 H4         -0.9703   -0.4649   -2.7282 H         1 <0>         0.1473
     32 H5          0.2390   -1.1192   -4.7682 H         1 <0>         0.1362
     33 H6          3.9304   -1.0103   -2.5948 H         1 <0>         0.1342
     34 H7          2.7057   -0.3471   -0.5668 H         1 <0>         0.1468
     35 H8          1.6107   -3.1699   -5.5095 H         1 <0>         0.1613
     36 H9          4.8604   -2.4232   -8.1738 H         1 <0>         0.1780
     37 H10         4.6901    1.9274   -6.7680 H         1 <0>         0.1258
     38 H11         6.7780    3.0338   -7.4570 H         1 <0>         0.1311
     39 H12         8.8584    2.6291   -6.2053 H         1 <0>         0.1299
     40 H13         8.8562    1.1180   -4.2626 H         1 <0>         0.1327
     41 H14         6.7702    0.0158   -3.5607 H         1 <0>         0.1298
@<TRIPOS>BOND
     1    1    2 1
     2    1   28 1
     3    1   29 1
     4    1   30 1
     5    2    3 2
     6    2    4 2
     7    2    5 1
     8    5   10 ar
     9    5    6 ar
    10    6    7 ar
    11    6   31 1
    12    7    8 ar
    13    7   32 1
    14    8    9 ar
    15    8   11 1
    16    9   10 ar
    17    9   33 1
    18   10   34 1
    19   11   16 ar
    20   11   12 ar
    21   12   13 ar
    22   12   35 1
    23   13   14 ar
    24   13   24 1
    25   14   15 ar
    26   14   36 1
    27   15   16 ar
    28   16   17 1
    29   17   18 1
    30   18   23 ar
    31   18   19 ar
    32   19   20 ar
    33   19   37 1
    34   20   21 ar
    35   20   38 1
    36   21   22 ar
    37   21   39 1
    38   22   23 ar
    39   22   40 1
    40   23   41 1
    41   24   25 1
    42   24   26 1
    43   24   27 1
@<TRIPOS>MOLECULE
CHEMBL368148
   56    59     0     0     0
SMALL
USER_CHARGES

@<TRIPOS>ATOM
      1 C1          1.6064    1.3750   -2.2573 C.3       1 <0>        -0.1198
      2 C2          1.4497   -0.1014   -1.9989 C.ar      1 <0>        -0.0698
      3 C3          0.7685   -0.8912   -2.9078 C.ar      1 <0>        -0.1194
      4 C4          0.6215   -2.2435   -2.6770 C.ar      1 <0>        -0.0816
      5 C5          1.1621   -2.8142   -1.5244 C.ar      1 <0>        -0.0498
      6 C6          1.8483   -2.0124   -0.6120 C.ar      1 <0>        -0.0983
      7 C7          1.9926   -0.6622   -0.8566 C.ar      1 <0>        -0.1175
      8 C8          1.0078   -4.2636   -1.2705 C.2       1 <0>         0.1351
      9 C9          0.8407   -5.2338   -2.2145 C.2       1 <0>        -0.2212
     10 C10         0.7359   -6.4684   -1.5480 C.2       1 <0>         0.1819
     11 N1          0.8363   -6.2486   -0.2513 N.2       1 <0>        -0.2553
     12 N2          1.0127   -4.8742   -0.0480 N.pl3     1 <0>        -0.3095
     13 C11         1.1644   -4.2372    1.1905 C.ar      1 <0>         0.1005
     14 C12         0.4784   -3.0587    1.4544 C.ar      1 <0>        -0.0692
     15 C13         0.6285   -2.4316    2.6750 C.ar      1 <0>        -0.1353
     16 C14         1.4647   -2.9780    3.6380 C.ar      1 <0>         0.1386
     17 C15         2.1507   -4.1551    3.3749 C.ar      1 <0>        -0.1954
     18 C16         1.9965   -4.7868    2.1572 C.ar      1 <0>        -0.0604
     19 O1          1.6123   -2.3597    4.8395 O.3       1 <0>        -0.3116
     20 C17         2.4889   -2.9777    5.7838 C.3       1 <0>         0.0237
     21 C18         0.5515   -7.7447   -2.1706 C.1       1 <0>        -0.0748
     22 C19         0.4003   -8.7910   -2.6810 C.1       1 <0>        -0.1474
     23 C20         0.2107  -10.1030   -3.3210 C.3       1 <0>         0.2587
     24 N3          0.1494  -11.1440   -2.2921 N.am      1 <0>        -0.4668
     25 C21        -0.9600  -11.2832   -1.5395 C.2       1 <0>         0.5514
     26 O2         -1.9423  -10.6067   -1.7740 O.2       1 <0>        -0.5043
     27 C22        -0.9822  -12.2588   -0.4289 C.ar      1 <0>        -0.1428
     28 C23         0.1457  -12.4316    0.3749 C.ar      1 <0>        -0.1077
     29 C24         0.1182  -13.3433    1.4100 C.ar      1 <0>        -0.1174
     30 C25        -1.0240  -14.0857    1.6518 C.ar      1 <0>        -0.0924
     31 C26        -2.1454  -13.9196    0.8585 C.ar      1 <0>        -0.1196
     32 C27        -2.1332  -13.0068   -0.1759 C.ar      1 <0>        -0.0603
     33 O3          1.2558  -12.0039   -2.0881 O.3       1 <0>        -0.3270
     34 H1          2.5204    1.5495   -2.8250 H         1 <0>         0.0742
     35 H2          0.7503    1.7372   -2.8265 H         1 <0>         0.0695
     36 H3          1.6620    1.9063   -1.3071 H         1 <0>         0.0690
     37 H4          0.3505   -0.4482   -3.7997 H         1 <0>         0.1299
     38 H5          0.0889   -2.8589   -3.3870 H         1 <0>         0.1314
     39 H6          2.2688   -2.4483    0.2823 H         1 <0>         0.1275
     40 H7          2.5268   -0.0411   -0.1529 H         1 <0>         0.1275
     41 H8          0.7962   -5.0815   -3.2828 H         1 <0>         0.1617
     42 H9         -0.1719   -2.6329    0.7046 H         1 <0>         0.1394
     43 H10         0.0951   -1.5152    2.8803 H         1 <0>         0.1442
     44 H11         2.8020   -4.5795    4.1247 H         1 <0>         0.1399
     45 H12         2.5265   -5.7058    1.9544 H         1 <0>         0.1362
     46 H13         2.5159   -2.3837    6.6974 H         1 <0>         0.1044
     47 H14         2.1278   -3.9803    6.0128 H         1 <0>         0.0586
     48 H15         3.4919   -3.0404    5.3616 H         1 <0>         0.0586
     49 H16        -0.7193  -10.0989   -3.8896 H         1 <0>         0.1245
     50 H17         1.0458  -10.3040   -3.9920 H         1 <0>         0.1258
     51 H18         1.0381  -11.8532    0.1867 H         1 <0>         0.1371
     52 H19         0.9902  -13.4780    2.0327 H         1 <0>         0.1337
     53 H20        -1.0403  -14.7984    2.4631 H         1 <0>         0.1313
     54 H21        -3.0337  -14.5024    1.0523 H         1 <0>         0.1342
     55 H22        -3.0107  -12.8745   -0.7914 H         1 <0>         0.1354
     56 H23         1.0919  -12.7108   -1.4490 H         1 <0>         0.3909
@<TRIPOS>BOND
     1    1    2 1
     2    1   34 1
     3    1   35 1
     4    1   36 1
     5    2    7 ar
     6    2    3 ar
     7    3    4 ar
     8    3   37 1
     9    4    5 ar
    10    4   38 1
    11    5    6 ar
    12    5    8 1
    13    6    7 ar
    14    6   39 1
    15    7   40 1
    16    8   12 1
    17    8    9 2
    18    9   10 1
    19    9   41 1
    20   10   11 2
    21   10   21 1
    22   11   12 1
    23   12   13 1
    24   13   18 ar
    25   13   14 ar
    26   14   15 ar
    27   14   42 1
    28   15   16 ar
    29   15   43 1
    30   16   17 ar
    31   16   19 1
    32   17   18 ar
    33   17   44 1
    34   18   45 1
    35   19   20 1
    36   20   46 1
    37   20   47 1
    38   20   48 1
    39   21   22 3
    40   22   23 1
    41   23   24 1
    42   23   49 1
    43   23   50 1
    44   24   25 am
    45   24   33 1
    46   25   26 2
    47   25   27 1
    48   27   32 ar
    49   27   28 ar
    50   28   29 ar
    51   28   51 1
    52   29   30 ar
    53   29   52 1
    54   30   31 ar
    55   30   53 1
    56   31   32 ar
    57   31   54 1
    58   32   55 1
    59   33   56 1
@<TRIPOS>MOLECULE
CHEMBL271173
   45    47     0     0     0
SMALL
USER_CHARGES

@<TRIPOS>ATOM
      1 C1         -0.0187    1.5258    0.0104 C.3       1 <0>        -0.1550
      2 C2          0.0021   -0.0041    0.0020 C.3       1 <0>         0.0638
      3 O1         -1.3386   -0.4987    0.0122 O.3       1 <0>        -0.2978
      4 C3         -1.4979   -1.8448    0.0065 C.ar      1 <0>         0.3991
      5 C4         -2.7711   -2.4028    0.0099 C.ar      1 <0>        -0.3146
      6 C5         -2.8873   -3.7911    0.0038 C.ar      1 <0>         0.4678
      7 N1         -1.7833   -4.5327   -0.0050 N.ar      1 <0>        -0.5800
      8 C6         -0.5856   -3.9651   -0.0080 C.ar      1 <0>         0.4302
      9 N2         -0.4393   -2.6474   -0.0080 N.ar      1 <0>        -0.5979
     10 C7          0.6220   -4.8261   -0.0174 C.ar      1 <0>         0.0090
     11 C8          0.4916   -6.2137   -0.0287 C.ar      1 <0>        -0.0884
     12 C9          1.6188   -7.0100   -0.0379 C.ar      1 <0>        -0.0342
     13 C10         2.8762   -6.4334   -0.0358 C.ar      1 <0>        -0.6436
     14 C11         3.0116   -5.0568   -0.0245 C.ar      1 <0>        -0.0343
     15 C12         1.8914   -4.2506   -0.0206 C.ar      1 <0>        -0.0896
     16 S1          4.3108   -7.4563   -0.0469 S.o2      1 <0>         2.4989
     17 O2          5.3240   -6.6664    0.5603 O.2       1 <0>        -0.9353
     18 O3          3.8904   -8.6769    0.5470 O.2       1 <0>        -0.9352
     19 C13         4.6868   -7.7128   -1.8029 C.3       1 <0>        -0.6498
     20 N3         -4.1367   -4.3915    0.0073 N.pl3     1 <0>        -0.7044
     21 C14        -5.3464   -3.5652    0.0175 C.3       1 <0>         0.2135
     22 C15        -6.5626   -4.4551    0.0195 C.2       1 <0>        -0.1836
     23 C16        -7.2494   -4.9597    1.0735 C.2       1 <0>        -0.1228
     24 C17        -8.3488   -5.7628    0.8348 C.2       1 <0>        -0.1657
     25 C18        -8.7077   -6.0219   -0.4464 C.2       1 <0>        -0.1577
     26 S2         -7.4774   -5.1119   -1.3658 S.3       1 <0>         0.0580
     27 H1          1.0039    1.9031    0.0027 H         1 <0>         0.0824
     28 H2         -0.5459    1.8868   -0.8726 H         1 <0>         0.0661
     29 H3         -0.5289    1.8773    0.9072 H         1 <0>         0.0663
     30 H4          0.5123   -0.3556   -0.8948 H         1 <0>         0.0699
     31 H5          0.5293   -0.3651    0.8851 H         1 <0>         0.0702
     32 H6         -3.6497   -1.7747    0.0174 H         1 <0>         0.1501
     33 H7         -0.4896   -6.6649   -0.0300 H         1 <0>         0.1480
     34 H8          1.5190   -8.0853   -0.0463 H         1 <0>         0.1482
     35 H9          3.9957   -4.6120   -0.0229 H         1 <0>         0.1482
     36 H10         1.9982   -3.1759   -0.0160 H         1 <0>         0.1465
     37 H11         4.8742   -6.7503   -2.2787 H         1 <0>         0.1322
     38 H12         5.5713   -8.3429   -1.8968 H         1 <0>         0.1340
     39 H13         3.8408   -8.1995   -2.2883 H         1 <0>         0.1323
     40 H14        -4.2101   -5.3587    0.0031 H         1 <0>         0.4137
     41 H15        -5.3520   -2.9403    0.9105 H         1 <0>         0.0927
     42 H16        -5.3612   -2.9317   -0.8694 H         1 <0>         0.0852
     43 H17        -6.9419   -4.7380    2.0848 H         1 <0>         0.1364
     44 H18        -8.9132   -6.1778    1.6567 H         1 <0>         0.1381
     45 H19        -9.5276   -6.6203   -0.8152 H         1 <0>         0.1892
@<TRIPOS>BOND
     1    1    2 1
     2    1   27 1
     3    1   28 1
     4    1   29 1
     5    2    3 1
     6    2   30 1
     7    2   31 1
     8    3    4 1
     9    4    9 ar
    10    4    5 ar
    11    5    6 ar
    12    5   32 1
    13    6    7 ar
    14    6   20 1
    15    7    8 ar
    16    8    9 ar
    17    8   10 1
    18   10   15 ar
    19   10   11 ar
    20   11   12 ar
    21   11   33 1
    22   12   13 ar
    23   12   34 1
    24   13   14 ar
    25   13   16 1
    26   14   15 ar
    27   14   35 1
    28   15   36 1
    29   16   17 2
    30   16   18 2
    31   16   19 1
    32   19   37 1
    33   19   38 1
    34   19   39 1
    35   20   21 1
    36   20   40 1
    37   21   22 1
    38   21   41 1
    39   21   42 1
    40   22   26 1
    41   22   23 2
    42   23   24 1
    43   23   43 1
    44   24   25 2
    45   24   44 1
    46   25   26 1
    47   25   45 1
@<TRIPOS>MOLECULE
CHEMBL157623
   37    40     0     0     0
SMALL
USER_CHARGES

@<TRIPOS>ATOM
      1 C1          0.9083    1.3573    0.6851 C.3       1 <0>        -0.6490
      2 S1          1.1418   -0.4405    0.6210 S.o2      1 <0>         2.4967
      3 O1          2.2238   -0.8237    1.4586 O.2       1 <0>        -0.9325
      4 O2         -0.1134   -1.1006    0.7116 O.2       1 <0>        -0.9327
      5 C2          1.7039   -0.7660   -1.0169 C.ar      1 <0>        -0.6468
      6 C3          0.7871   -1.0222   -2.0213 C.ar      1 <0>        -0.0185
      7 C4          1.2198   -1.2774   -3.3058 C.ar      1 <0>        -0.1185
      8 C5          2.5874   -1.2769   -3.5916 C.ar      1 <0>         0.0046
      9 C6          3.5071   -1.0174   -2.5725 C.ar      1 <0>        -0.1011
     10 C7          3.0597   -0.7587   -1.2938 C.ar      1 <0>        -0.0175
     11 C8          3.0581   -1.5495   -4.9634 C.2       1 <0>         0.0916
     12 C9          3.6887   -0.5744   -5.6751 C.2       1 <0>        -0.0768
     13 S2          4.0356   -1.4084   -7.2158 S.3       1 <0>         0.1878
     14 C10         3.3227   -2.9821   -6.8062 C.2       1 <0>         0.1327
     15 N1          2.8656   -2.7945   -5.5258 N.pl3     1 <0>        -0.4419
     16 C11         2.3127   -4.0178   -5.1938 C.2       1 <0>         0.1815
     17 N2          2.4603   -4.8151   -6.2127 N.2       1 <0>        -0.2533
     18 N3          3.0536   -4.1987   -7.1745 N.2       1 <0>        -0.2378
     19 C12         4.0033    0.8127   -5.2764 C.ar      1 <0>        -0.0208
     20 C13         5.2758    1.3380   -5.5101 C.ar      1 <0>        -0.0896
     21 C14         5.5627    2.6343   -5.1357 C.ar      1 <0>        -0.1147
     22 C15         4.5931    3.4134   -4.5295 C.ar      1 <0>        -0.0979
     23 C16         3.3302    2.8991   -4.2949 C.ar      1 <0>        -0.1169
     24 C17         3.0279    1.6064   -4.6695 C.ar      1 <0>        -0.0835
     25 H1          1.8559    1.8543    0.4777 H         1 <0>         0.1330
     26 H2          0.1712    1.6547   -0.0608 H         1 <0>         0.1327
     27 H3          0.5575    1.6430    1.6767 H         1 <0>         0.1359
     28 H4         -0.2697   -1.0227   -1.7988 H         1 <0>         0.1508
     29 H5          0.5033   -1.4776   -4.0887 H         1 <0>         0.1360
     30 H6          4.5657   -1.0154   -2.7864 H         1 <0>         0.1382
     31 H7          3.7694   -0.5539   -0.5059 H         1 <0>         0.1509
     32 H8          1.8417   -4.2679   -4.2546 H         1 <0>         0.2275
     33 H9          6.0337    0.7308   -5.9826 H         1 <0>         0.1307
     34 H10         6.5465    3.0419   -5.3158 H         1 <0>         0.1329
     35 H11         4.8233    4.4274   -4.2377 H         1 <0>         0.1298
     36 H12         2.5781    3.5125   -3.8210 H         1 <0>         0.1308
     37 H13         2.0404    1.2076   -4.4899 H         1 <0>         0.1255
@<TRIPOS>BOND
     1    1    2 1
     2    1   25 1
     3    1   26 1
     4    1   27 1
     5    2    3 2
     6    2    4 2
     7    2    5 1
     8    5   10 ar
     9    5    6 ar
    10    6    7 ar
    11    6   28 1
    12    7    8 ar
    13    7   29 1
    14    8    9 ar
    15    8   11 1
    16    9   10 ar
    17    9   30 1
    18   10   31 1
    19   11   15 1
    20   11   12 2
    21   12   13 1
    22   12   19 1
    23   13   14 1
    24   14   18 2
    25   14   15 1
    26   15   16 1
    27   16   17 2
    28   16   32 1
    29   17   18 1
    30   19   24 ar
    31   19   20 ar
    32   20   21 ar
    33   20   33 1
    34   21   22 ar
    35   21   34 1
    36   22   23 ar
    37   22   35 1
    38   23   24 ar
    39   23   36 1
    40   24   37 1
@<TRIPOS>MOLECULE
CHEMBL583020
   45    48     0     0     0
SMALL
USER_CHARGES

@<TRIPOS>ATOM
      1 C1         -0.0343    1.7137    0.0605 C.3       1 <0>        -0.6517
      2 S1         -0.0099   -0.0997    0.0224 S.o2      1 <0>         2.5023
      3 O1          0.8212   -0.5999    1.0609 O.2       1 <0>        -0.9397
      4 O2         -1.3264   -0.6032   -0.1579 O.2       1 <0>        -0.9413
      5 C2          0.8364   -0.5100   -1.4676 C.ar      1 <0>        -0.6618
      6 C3          0.1246   -0.6665   -2.6435 C.ar      1 <0>        -0.0315
      7 C4          0.7820   -0.9882   -3.8134 C.ar      1 <0>        -0.1055
      8 C5          2.1660   -1.1551   -3.8089 C.ar      1 <0>         0.0244
      9 C6          2.8780   -0.9957   -2.6211 C.ar      1 <0>        -0.1223
     10 C7          2.2105   -0.6688   -1.4582 C.ar      1 <0>        -0.0255
     11 C8          2.8780   -1.5014   -5.0627 C.ar      1 <0>         0.1697
     12 C9          4.2712   -1.6686   -5.0257 C.ar      1 <0>        -0.1471
     13 C10         4.9493   -1.9930   -6.1937 C.ar      1 <0>        -0.0599
     14 C11         4.1509   -2.1426   -7.4113 C.ar      1 <0>        -0.0769
     15 C12         4.7379   -2.4673   -8.6383 C.ar      1 <0>        -0.0788
     16 C13         3.9523   -2.5911   -9.7411 C.ar      1 <0>        -0.1384
     17 C14         2.5641   -2.4047   -9.6792 C.ar      1 <0>        -0.0676
     18 C15         1.9646   -2.0963   -8.5031 C.ar      1 <0>        -0.0684
     19 C16         2.7506   -1.9526   -7.3359 C.ar      1 <0>         0.1230
     20 N1          2.1806   -1.6461   -6.1691 N.ar      1 <0>        -0.4711
     21 C17         0.4770   -1.9038   -8.3675 C.3       1 <0>        -0.0645
     22 C18        -0.1643   -1.6650   -9.7326 C.3       1 <0>        -0.1199
     23 C19         0.3076   -2.7712  -10.6841 C.3       1 <0>        -0.1197
     24 C20         1.7929   -2.5582  -10.9660 C.3       1 <0>        -0.0767
     25 C21         6.4140   -2.1787   -6.2066 C.2       1 <0>         0.5261
     26 O3          7.0691   -1.9424   -5.2014 O.co2     1 <0>        -0.6693
     27 O4          6.9719   -2.5688   -7.2224 O.co2     1 <0>        -0.6671
     28 H1          0.9884    2.0909    0.0606 H         1 <0>         0.1320
     29 H2         -0.5597    2.0885   -0.8179 H         1 <0>         0.1310
     30 H3         -0.5462    2.0513    0.9616 H         1 <0>         0.1300
     31 H4         -0.9476   -0.5370   -2.6458 H         1 <0>         0.1417
     32 H5          0.2253   -1.1109   -4.7307 H         1 <0>         0.1443
     33 H6          3.9503   -1.1238   -2.6117 H         1 <0>         0.1438
     34 H7          2.7616   -0.5411   -0.5382 H         1 <0>         0.1445
     35 H8          4.8106   -1.5458   -4.0981 H         1 <0>         0.1446
     36 H9          5.8050   -2.6178   -8.7093 H         1 <0>         0.1749
     37 H10         4.4089   -2.8388  -10.6880 H         1 <0>         0.1203
     38 H11         0.0396   -2.7944   -7.9164 H         1 <0>         0.0709
     39 H12         0.2834   -1.0449   -7.7249 H         1 <0>         0.0778
     40 H13        -1.2499   -1.6983   -9.6397 H         1 <0>         0.0644
     41 H14         0.1426   -0.6927  -10.1180 H         1 <0>         0.0630
     42 H15         0.1578   -3.7453  -10.2184 H         1 <0>         0.0646
     43 H16        -0.2547   -2.7186  -11.6164 H         1 <0>         0.0641
     44 H17         1.9184   -1.6590  -11.5691 H         1 <0>         0.0741
     45 H18         2.1802   -3.4156  -11.5164 H         1 <0>         0.0732
@<TRIPOS>BOND
     1    1    2 1
     2    1   28 1
     3    1   29 1
     4    1   30 1
     5    2    3 2
     6    2    4 2
     7    2    5 1
     8    5   10 ar
     9    5    6 ar
    10    6    7 ar
    11    6   31 1
    12    7    8 ar
    13    7   32 1
    14    8    9 ar
    15    8   11 1
    16    9   10 ar
    17    9   33 1
    18   10   34 1
    19   11   20 ar
    20   11   12 ar
    21   12   13 ar
    22   12   35 1
    23   13   14 ar
    24   13   25 1
    25   14   19 ar
    26   14   15 ar
    27   15   16 ar
    28   15   36 1
    29   16   17 ar
    30   16   37 1
    31   17   24 1
    32   17   18 ar
    33   18   19 ar
    34   18   21 1
    35   19   20 ar
    36   21   22 1
    37   21   38 1
    38   21   39 1
    39   22   23 1
    40   22   40 1
    41   22   41 1
    42   23   24 1
    43   23   42 1
    44   23   43 1
    45   24   44 1
    46   24   45 1
    47   25   26 2
    48   25   27 1
@<TRIPOS>MOLECULE
CHEMBL568433
   41    44     0     0     0
SMALL
USER_CHARGES

@<TRIPOS>ATOM
      1 C1          0.0932    2.7639   -0.5817 C.3       1 <0>        -0.6516
      2 S1          0.1233    0.9722   -0.2998 S.o2      1 <0>         2.5025
      3 O1          0.9790    0.6628    0.7916 O.2       1 <0>        -0.9394
      4 O2         -1.1951    0.4453   -0.3587 O.2       1 <0>        -0.9407
      5 C2          0.9376    0.3051   -1.7128 C.ar      1 <0>        -0.6617
      6 C3          0.2005   -0.0562   -2.8262 C.ar      1 <0>        -0.0302
      7 C4          0.8327   -0.5796   -3.9356 C.ar      1 <0>        -0.1057
      8 C5          2.2171   -0.7436   -3.9328 C.ar      1 <0>         0.0264
      9 C6          2.9548   -0.3773   -2.8081 C.ar      1 <0>        -0.1229
     10 C7          2.3122    0.1499   -1.7065 C.ar      1 <0>        -0.0247
     11 C8          2.9023   -1.3059   -5.1215 C.ar      1 <0>         0.1582
     12 C9          4.2925   -1.4682   -5.0977 C.ar      1 <0>        -0.1417
     13 C10         4.9376   -1.9954   -6.2113 C.ar      1 <0>        -0.0480
     14 C11         4.1461   -2.3482   -7.3333 C.ar      1 <0>        -0.0753
     15 C12         4.7340   -2.8876   -8.4938 C.ar      1 <0>        -0.0608
     16 C13         3.9896   -3.2276   -9.5686 C.ar      1 <0>        -0.1311
     17 C14         2.5862   -3.0559   -9.5738 C.ar      1 <0>        -0.0291
     18 C15         1.8202   -3.4114  -10.6934 C.ar      1 <0>        -0.1131
     19 C16         0.4675   -3.2354  -10.6716 C.ar      1 <0>        -0.1132
     20 C17        -0.1657   -2.7069   -9.5531 C.ar      1 <0>        -0.1329
     21 C18         0.5527   -2.3509   -8.4468 C.ar      1 <0>        -0.0776
     22 C19         1.9382   -2.5195   -8.4387 C.ar      1 <0>        -0.0379
     23 C20         2.7475   -2.1502   -7.2708 C.ar      1 <0>         0.1538
     24 N1          2.1868   -1.6479   -6.1785 N.ar      1 <0>        -0.4727
     25 C21         6.4017   -2.1813   -6.2248 C.2       1 <0>         0.5267
     26 O3          6.9445   -2.8254   -5.3382 O.co2     1 <0>        -0.6694
     27 O4          7.0721   -1.6913   -7.1225 O.co2     1 <0>        -0.6685
     28 H1          1.1142    3.1348   -0.6712 H         1 <0>         0.1319
     29 H2         -0.4530    2.9780   -1.5004 H         1 <0>         0.1312
     30 H3         -0.3998    3.2555    0.2570 H         1 <0>         0.1303
     31 H4         -0.8720    0.0713   -2.8272 H         1 <0>         0.1425
     32 H5          0.2562   -0.8620   -4.8040 H         1 <0>         0.1443
     33 H6          4.0275   -0.5024   -2.8003 H         1 <0>         0.1421
     34 H7          2.8831    0.4381   -0.8362 H         1 <0>         0.1450
     35 H8          4.8590   -1.1863   -4.2225 H         1 <0>         0.1401
     36 H9          5.8038   -3.0324   -8.5253 H         1 <0>         0.1438
     37 H10         4.4760   -3.6382  -10.4411 H         1 <0>         0.1285
     38 H11         2.2993   -3.8226  -11.5697 H         1 <0>         0.1270
     39 H12        -0.1193   -3.5103  -11.5356 H         1 <0>         0.1204
     40 H13        -1.2377   -2.5757   -9.5585 H         1 <0>         0.1214
     41 H14         0.0509   -1.9407   -7.5829 H         1 <0>         0.1323
@<TRIPOS>BOND
     1    1    2 1
     2    1   28 1
     3    1   29 1
     4    1   30 1
     5    2    3 2
     6    2    4 2
     7    2    5 1
     8    5   10 ar
     9    5    6 ar
    10    6    7 ar
    11    6   31 1
    12    7    8 ar
    13    7   32 1
    14    8    9 ar
    15    8   11 1
    16    9   10 ar
    17    9   33 1
    18   10   34 1
    19   11   24 ar
    20   11   12 ar
    21   12   13 ar
    22   12   35 1
    23   13   14 ar
    24   13   25 1
    25   14   23 ar
    26   14   15 ar
    27   15   16 ar
    28   15   36 1
    29   16   17 ar
    30   16   37 1
    31   17   22 ar
    32   17   18 ar
    33   18   19 ar
    34   18   38 1
    35   19   20 ar
    36   19   39 1
    37   20   21 ar
    38   20   40 1
    39   21   22 ar
    40   21   41 1
    41   22   23 ar
    42   23   24 ar
    43   25   26 2
    44   25   27 1
@<TRIPOS>MOLECULE
CHEMBL97219
   73    77     0     0     0
SMALL
USER_CHARGES

@<TRIPOS>ATOM
      1 C1         -1.2245    1.3778    0.0331 C.3       1 <0>        -0.1239
      2 C2         -0.5706    0.0204    0.0028 C.ar      1 <0>        -0.0251
      3 C3         -0.6756   -0.7696   -1.1212 C.ar      1 <0>        -0.1000
      4 C4         -0.0743   -2.0219   -1.1523 C.ar      1 <0>         0.1632
      5 C5          0.6388   -2.4840   -0.0451 C.ar      1 <0>         0.0879
      6 C6          0.7474   -1.6961    1.0837 C.ar      1 <0>        -0.1515
      7 C7          0.1465   -0.4342    1.1121 C.ar      1 <0>        -0.1265
      8 C8          0.2650    0.4140    2.3139 C.2       1 <0>         0.5635
      9 O1         -0.3195    1.4790    2.3664 O.2       1 <0>        -0.5065
     10 N1          1.0210    0.0082    3.3533 N.am      1 <0>        -0.6714
     11 C9          1.2101    0.8524    4.4520 C.ar      1 <0>         0.1423
     12 C10         2.4276    0.8625    5.1205 C.ar      1 <0>        -0.1454
     13 C11         2.6113    1.6977    6.2049 C.ar      1 <0>        -0.1018
     14 C12         1.5848    2.5234    6.6253 C.ar      1 <0>        -0.1335
     15 C13         0.3714    2.5158    5.9620 C.ar      1 <0>        -0.1019
     16 C14         0.1829    1.6868    4.8736 C.ar      1 <0>        -0.1195
     17 O2          1.2260   -3.7101   -0.0777 O.3       1 <0>        -0.3148
     18 C15         1.9397   -4.1189    1.0909 C.3       1 <0>         0.0257
     19 N2         -0.1841   -2.8194   -2.2931 N.am      1 <0>        -0.6681
     20 C16        -0.2319   -2.2480   -3.5128 C.2       1 <0>         0.5134
     21 O3         -0.0900   -1.0489   -3.6267 O.2       1 <0>        -0.5016
     22 C17        -0.4618   -3.0991   -4.7350 C.3       1 <0>        -0.0625
     23 C18        -0.4716   -2.2240   -5.9619 C.2       1 <0>        -0.1454
     24 C19        -1.5406   -1.6212   -6.5008 C.2       1 <0>         0.1232
     25 N3         -1.1642   -0.9072   -7.6125 N.am      1 <0>        -0.5041
     26 C20         0.1985   -1.0431   -7.8145 C.ar      1 <0>         0.0757
     27 C21         0.6882   -1.8672   -6.7864 C.ar      1 <0>        -0.0345
     28 C22         2.0471   -2.1779   -6.7292 C.ar      1 <0>        -0.1105
     29 C23         2.9050   -1.6680   -7.6852 C.ar      1 <0>         0.1133
     30 C24         2.4174   -0.8492   -8.6991 C.ar      1 <0>        -0.1753
     31 C25         1.0751   -0.5436   -8.7691 C.ar      1 <0>        -0.0835
     32 O4          4.2304   -1.9673   -7.6347 O.3       1 <0>        -0.3165
     33 C26         5.0612   -1.4074   -8.6536 C.3       1 <0>         0.0270
     34 C27        -1.9956   -0.1843   -8.3887 C.2       1 <0>         0.6026
     35 O5         -2.6126   -0.7241   -9.2856 O.2       1 <0>        -0.4278
     36 C28        -2.1567    1.2639   -8.1493 C.ar      1 <0>        -0.1663
     37 C29        -1.3687    1.9085   -7.1930 C.ar      1 <0>        -0.0420
     38 C30        -1.5239    3.2609   -6.9740 C.ar      1 <0>        -0.1203
     39 C31        -2.4589    3.9802   -7.7001 C.ar      1 <0>         0.0043
     40 C32        -3.2438    3.3466   -8.6495 C.ar      1 <0>        -0.1233
     41 C33        -3.0937    1.9958   -8.8821 C.ar      1 <0>        -0.0380
     42 Cl1        -2.6484    5.6827   -7.4185 Cl        1 <0>        -0.0517
     43 C34        -2.9468   -1.7136   -5.9669 C.3       1 <0>        -0.1047
     44 H1         -0.4858    2.1424   -0.2075 H         1 <0>         0.0746
     45 H2         -2.0313    1.4090   -0.6991 H         1 <0>         0.0597
     46 H3         -1.6292    1.5640    1.0279 H         1 <0>         0.1018
     47 H4         -1.2267   -0.4149   -1.9796 H         1 <0>         0.1507
     48 H5          1.2985   -2.0524    1.9414 H         1 <0>         0.1336
     49 H6          1.4339   -0.8695    3.3392 H         1 <0>         0.4073
     50 H7          3.2296    0.2176    4.7928 H         1 <0>         0.1241
     51 H8          3.5576    1.7058    6.7253 H         1 <0>         0.1264
     52 H9          1.7309    3.1754    7.4739 H         1 <0>         0.1236
     53 H10        -0.4284    3.1616    6.2931 H         1 <0>         0.1262
     54 H11        -0.7635    1.6843    4.3534 H         1 <0>         0.1396
     55 H12         2.3577   -5.1129    0.9322 H         1 <0>         0.1049
     56 H13         2.7463   -3.4130    1.2894 H         1 <0>         0.0568
     57 H14         1.2597   -4.1424    1.9424 H         1 <0>         0.0570
     58 H15        -0.2259   -3.7848   -2.2077 H         1 <0>         0.4168
     59 H16         0.3371   -3.8356   -4.8205 H         1 <0>         0.1099
     60 H17        -1.4200   -3.6111   -4.6463 H         1 <0>         0.1085
     61 H18         2.4265   -2.8128   -5.9422 H         1 <0>         0.1323
     62 H19         3.0955   -0.4551   -9.4416 H         1 <0>         0.1355
     63 H20         0.7070    0.0942   -9.5591 H         1 <0>         0.1226
     64 H21         5.0047   -0.3196   -8.6115 H         1 <0>         0.0553
     65 H22         6.0923   -1.7240   -8.4965 H         1 <0>         0.1005
     66 H23         4.7203   -1.7513   -9.6301 H         1 <0>         0.0554
     67 H24        -0.6396    1.3486   -6.6261 H         1 <0>         0.1437
     68 H25        -0.9154    3.7604   -6.2346 H         1 <0>         0.1452
     69 H26        -3.9716    3.9127   -9.2119 H         1 <0>         0.1464
     70 H27        -3.7029    1.5039   -9.6260 H         1 <0>         0.1476
     71 H28        -3.1168   -0.9103   -5.2500 H         1 <0>         0.0865
     72 H29        -3.6549   -1.6215   -6.7904 H         1 <0>         0.0709
     73 H30        -3.0858   -2.6758   -5.4740 H         1 <0>         0.0923
@<TRIPOS>BOND
     1    1    2 1
     2    1   44 1
     3    1   45 1
     4    1   46 1
     5    2    7 ar
     6    2    3 ar
     7    3    4 ar
     8    3   47 1
     9    4    5 ar
    10    4   19 1
    11    5    6 ar
    12    5   17 1
    13    6    7 ar
    14    6   48 1
    15    7    8 1
    16    8    9 2
    17    8   10 am
    18   10   11 1
    19   10   49 1
    20   11   16 ar
    21   11   12 ar
    22   12   13 ar
    23   12   50 1
    24   13   14 ar
    25   13   51 1
    26   14   15 ar
    27   14   52 1
    28   15   16 ar
    29   15   53 1
    30   16   54 1
    31   17   18 1
    32   18   55 1
    33   18   56 1
    34   18   57 1
    35   19   20 am
    36   19   58 1
    37   20   21 2
    38   20   22 1
    39   22   23 1
    40   22   59 1
    41   22   60 1
    42   23   27 1
    43   23   24 2
    44   24   25 1
    45   24   43 1
    46   25   26 1
    47   25   34 am
    48   26   31 ar
    49   26   27 ar
    50   27   28 ar
    51   28   29 ar
    52   28   61 1
    53   29   30 ar
    54   29   32 1
    55   30   31 ar
    56   30   62 1
    57   31   63 1
    58   32   33 1
    59   33   64 1
    60   33   65 1
    61   33   66 1
    62   34   35 2
    63   34   36 1
    64   36   41 ar
    65   36   37 ar
    66   37   38 ar
    67   37   67 1
    68   38   39 ar
    69   38   68 1
    70   39   40 ar
    71   39   42 1
    72   40   41 ar
    73   40   69 1
    74   41   70 1
    75   43   71 1
    76   43   72 1
    77   43   73 1
@<TRIPOS>MOLECULE
CHEMBL559613
   47    49     0     0     0
SMALL
USER_CHARGES

@<TRIPOS>ATOM
      1 C1         -0.0127    1.5028    0.0122 C.3       1 <0>        -0.1175
      2 C2          0.0057   -0.0040    0.0031 C.ar      1 <0>        -0.0790
      3 C3         -1.0461   -0.7102    0.5576 C.ar      1 <0>        -0.1092
      4 C4         -1.0321   -2.0911    0.5513 C.ar      1 <0>        -0.0902
      5 C5          0.0397   -2.7707   -0.0133 C.ar      1 <0>         0.1376
      6 C6          1.0943   -2.0584   -0.5698 C.ar      1 <0>        -0.1111
      7 C7          1.0716   -0.6775   -0.5648 C.ar      1 <0>        -0.1109
      8 N1          0.0572   -4.1687   -0.0209 N.pl3     1 <0>        -0.5358
      9 C8         -0.0510   -4.8957   -1.2882 C.3       1 <0>         0.1017
     10 C9          0.1768   -4.8665    1.1699 C.ar      1 <0>         0.5814
     11 N2          0.2980   -6.1843    1.1358 N.ar      1 <0>        -0.5331
     12 C10         0.4148   -6.8835    2.2622 C.ar      1 <0>         0.2639
     13 C11         0.4078   -6.2052    3.4841 C.ar      1 <0>        -0.2296
     14 C12         0.2790   -4.8278    3.4725 C.ar      1 <0>         0.1419
     15 N3          0.1725   -4.1971    2.3136 N.ar      1 <0>        -0.5182
     16 C13         0.2658   -4.0532    4.7651 C.3       1 <0>         0.5257
     17 F1          1.5736   -3.6913    5.1054 F         1 <0>        -0.1633
     18 F2         -0.5117   -2.9005    4.6100 F         1 <0>        -0.1575
     19 F3         -0.2770   -4.8487    5.7799 F         1 <0>        -0.1644
     20 C14         0.5499   -8.3598    2.2213 C.ar      1 <0>        -0.0088
     21 C15         0.6660   -9.0847    3.4062 C.ar      1 <0>        -0.1076
     22 C16         0.7915  -10.4583    3.3621 C.ar      1 <0>        -0.0263
     23 C17         0.8022  -11.1158    2.1451 C.ar      1 <0>        -0.6427
     24 C18         0.6877  -10.4016    0.9661 C.ar      1 <0>        -0.0290
     25 C19         0.5555   -9.0282    0.9983 C.ar      1 <0>        -0.0884
     26 S1          0.9628  -12.8698    2.0966 S.o2      1 <0>         2.4984
     27 O1          1.5419  -13.1460    0.8288 O.2       1 <0>        -0.9335
     28 O2          1.6492  -13.2044    3.2950 O.2       1 <0>        -0.9334
     29 C20        -0.7389  -13.4955    2.1559 C.3       1 <0>        -0.6493
     30 H1         -0.5005    1.8657   -0.8925 H         1 <0>         0.0728
     31 H2         -0.5607    1.8542    0.8864 H         1 <0>         0.0686
     32 H3          1.0099    1.8785    0.0492 H         1 <0>         0.0681
     33 H4         -1.8791   -0.1811    0.9964 H         1 <0>         0.1273
     34 H5         -1.8535   -2.6420    0.9851 H         1 <0>         0.1203
     35 H6          1.9292   -2.5838   -1.0095 H         1 <0>         0.1238
     36 H7          1.8894   -0.1231   -1.0009 H         1 <0>         0.1278
     37 H8          0.9453   -5.0627   -1.6975 H         1 <0>         0.0617
     38 H9         -0.5387   -5.8553   -1.1161 H         1 <0>         0.0849
     39 H10        -0.6403   -4.3101   -1.9938 H         1 <0>         0.0779
     40 H11         0.5004   -6.7437    4.4157 H         1 <0>         0.1632
     41 H12         0.6582   -8.5723    4.3569 H         1 <0>         0.1422
     42 H13         0.8820  -11.0210    4.2795 H         1 <0>         0.1516
     43 H14         0.6970  -10.9201    0.0187 H         1 <0>         0.1500
     44 H15         0.4613   -8.4720    0.0773 H         1 <0>         0.1475
     45 H16        -1.2950  -13.1177    1.2979 H         1 <0>         0.1325
     46 H17        -0.7265  -14.5852    2.1295 H         1 <0>         0.1352
     47 H18        -1.2177  -13.1598    3.0757 H         1 <0>         0.1327
@<TRIPOS>BOND
     1    1    2 1
     2    1   30 1
     3    1   31 1
     4    1   32 1
     5    2    7 ar
     6    2    3 ar
     7    3    4 ar
     8    3   33 1
     9    4    5 ar
    10    4   34 1
    11    5    6 ar
    12    5    8 1
    13    6    7 ar
    14    6   35 1
    15    7   36 1
    16    8    9 1
    17    8   10 1
    18    9   37 1
    19    9   38 1
    20    9   39 1
    21   10   15 ar
    22   10   11 ar
    23   11   12 ar
    24   12   13 ar
    25   12   20 1
    26   13   14 ar
    27   13   40 1
    28   14   15 ar
    29   14   16 1
    30   16   17 1
    31   16   18 1
    32   16   19 1
    33   20   25 ar
    34   20   21 ar
    35   21   22 ar
    36   21   41 1
    37   22   23 ar
    38   22   42 1
    39   23   24 ar
    40   23   26 1
    41   24   25 ar
    42   24   43 1
    43   25   44 1
    44   26   27 2
    45   26   28 2
    46   26   29 1
    47   29   45 1
    48   29   46 1
    49   29   47 1
@<TRIPOS>MOLECULE
CHEMBL56563
   35    36     0     0     0
SMALL
USER_CHARGES

@<TRIPOS>ATOM
      1 C1         -0.0184    1.5028    0.0103 C.3       1 <0>        -0.1098
      2 C2          0.0021   -0.0041    0.0020 C.ar      1 <0>        -0.1030
      3 C3          0.0057   -0.6888   -1.1978 C.ar      1 <0>        -0.1092
      4 C4          0.0244   -2.0713   -1.2061 C.ar      1 <0>        -0.0825
      5 C5          0.0395   -2.7720   -0.0142 C.ar      1 <0>        -0.1092
      6 C6          0.0359   -2.0919    1.1883 C.ar      1 <0>        -0.1031
      7 C7          0.0230   -0.7047    1.1992 C.ar      1 <0>         0.0958
      8 O1          0.0255   -0.0333    2.3808 O.3       1 <0>        -0.4922
      9 C8          0.0523   -2.8562    2.4870 C.3       1 <0>        -0.1097
     10 C9          0.0279   -2.8157   -2.5164 C.3       1 <0>        -0.0738
     11 C10         1.4714   -3.0481   -2.9671 C.3       1 <0>        -0.0743
     12 C11         1.4748   -3.7925   -4.2774 C.ar      1 <0>        -0.0930
     13 C12         1.4878   -5.1749   -4.2864 C.ar      1 <0>        -0.0876
     14 C13         1.4905   -5.8586   -5.4874 C.ar      1 <0>        -0.1511
     15 C14         1.4803   -5.1586   -6.6819 C.ar      1 <0>         0.0934
     16 C15         1.4673   -3.7741   -6.6717 C.ar      1 <0>        -0.1511
     17 C16         1.4593   -3.0926   -5.4695 C.ar      1 <0>        -0.0876
     18 F1          1.4834   -5.8260   -7.8566 F         1 <0>        -0.1401
     19 H1          1.0042    1.8801    0.0026 H         1 <0>         0.0723
     20 H2         -0.5455    1.8639   -0.8728 H         1 <0>         0.0660
     21 H3         -0.5286    1.8543    0.9071 H         1 <0>         0.0673
     22 H4         -0.0064   -0.1438   -2.1301 H         1 <0>         0.1253
     23 H5          0.0538   -3.8518   -0.0233 H         1 <0>         0.1253
     24 H6         -0.8570    0.1493    2.7313 H         1 <0>         0.3857
     25 H7          1.0838   -3.0266    2.7953 H         1 <0>         0.0723
     26 H8         -0.4658   -2.2805    3.2539 H         1 <0>         0.0672
     27 H9         -0.4492   -3.8144    2.3510 H         1 <0>         0.0660
     28 H10        -0.4723   -3.7759   -2.3901 H         1 <0>         0.0754
     29 H11        -0.4978   -2.2284   -3.2693 H         1 <0>         0.0754
     30 H12         1.9716   -2.0879   -3.0934 H         1 <0>         0.0768
     31 H13         1.9971   -3.6354   -2.2142 H         1 <0>         0.0768
     32 H14         1.4961   -5.7207   -3.3545 H         1 <0>         0.1326
     33 H15         1.5009   -6.9385   -5.4941 H         1 <0>         0.1356
     34 H16         1.4597   -3.2270   -7.6029 H         1 <0>         0.1356
     35 H17         1.4447   -2.0127   -5.4612 H         1 <0>         0.1325
@<TRIPOS>BOND
     1    1    2 1
     2    1   19 1
     3    1   20 1
     4    1   21 1
     5    2    7 ar
     6    2    3 ar
     7    3    4 ar
     8    3   22 1
     9    4    5 ar
    10    4   10 1
    11    5    6 ar
    12    5   23 1
    13    6    7 ar
    14    6    9 1
    15    7    8 1
    16    8   24 1
    17    9   25 1
    18    9   26 1
    19    9   27 1
    20   10   11 1
    21   10   28 1
    22   10   29 1
    23   11   12 1
    24   11   30 1
    25   11   31 1
    26   12   17 ar
    27   12   13 ar
    28   13   14 ar
    29   13   32 1
    30   14   15 ar
    31   14   33 1
    32   15   16 ar
    33   15   18 1
    34   16   17 ar
    35   16   34 1
    36   17   35 1
@<TRIPOS>MOLECULE
CHEMBL143776
   41    45     0     0     0
SMALL
USER_CHARGES

@<TRIPOS>ATOM
      1 C1         -0.0169    1.3920    0.0097 C.ar      1 <0>        -0.0850
      2 C2          1.1695    2.0951    0.0021 C.ar      1 <0>        -0.1494
      3 C3          2.3789    1.4186   -0.0135 C.ar      1 <0>         0.1011
      4 C4          2.4037    0.0330   -0.0216 C.ar      1 <0>        -0.1486
      5 C5          1.2234   -0.6804   -0.0142 C.ar      1 <0>        -0.0665
      6 C6          0.0021   -0.0041    0.0020 C.ar      1 <0>        -0.0296
      7 C7         -1.2658   -0.7630    0.0105 C.2       1 <0>         0.0844
      8 C8         -1.5439   -1.8384    0.7877 C.2       1 <0>        -0.1585
      9 C9         -2.8536   -2.2560    0.4853 C.2       1 <0>        -0.1585
     10 C10        -3.3399   -1.4246   -0.4687 C.2       1 <0>         0.0845
     11 N1         -2.3696   -0.4974   -0.7636 N.pl3     1 <0>        -0.5512
     12 H1         -2.4495    0.2214   -1.4100 H         1 <0>         0.4181
     13 C11        -4.6826   -1.4991   -1.0812 C.ar      1 <0>        -0.0296
     14 C12        -5.2001   -2.7306   -1.4873 C.ar      1 <0>        -0.0665
     15 C13        -6.4541   -2.7942   -2.0579 C.ar      1 <0>        -0.1486
     16 C14        -7.2001   -1.6388   -2.2284 C.ar      1 <0>         0.1010
     17 C15        -6.6913   -0.4137   -1.8275 C.ar      1 <0>        -0.1494
     18 C16        -5.4409   -0.3390   -1.2505 C.ar      1 <0>        -0.0851
     19 F1         -8.4279   -1.7070   -2.7879 F         1 <0>        -0.1374
     20 C17        -3.1545   -3.4673    1.3676 C.3       1 <0>        -0.0213
     21 C18        -3.2670   -2.8779    2.8093 C.3       1 <0>        -0.1162
     22 C19        -1.8270   -2.4189    3.1417 C.3       1 <0>        -0.1170
     23 C20        -1.0076   -2.7828    1.8632 C.3       1 <0>        -0.0214
     24 C21        -1.7242   -4.1176    1.4403 C.3       1 <0>        -0.1167
     25 F2          3.5381    2.1124   -0.0213 F         1 <0>        -0.1374
     26 H2         -0.9587    1.9202    0.0260 H         1 <0>         0.1299
     27 H3          1.1561    3.1750    0.0081 H         1 <0>         0.1383
     28 H4          3.3490   -0.4891   -0.0342 H         1 <0>         0.1404
     29 H5          1.2439   -1.7602   -0.0213 H         1 <0>         0.1378
     30 H6         -4.6194   -3.6315   -1.3553 H         1 <0>         0.1378
     31 H7         -6.8552   -3.7462   -2.3728 H         1 <0>         0.1404
     32 H8         -7.2768    0.4836   -1.9631 H         1 <0>         0.1383
     33 H9         -5.0472    0.6156   -0.9340 H         1 <0>         0.1298
     34 H10        -3.9670   -4.1139    1.0360 H         1 <0>         0.0979
     35 H11        -3.9509   -2.0294    2.8227 H         1 <0>         0.0638
     36 H12        -3.5948   -3.6450    3.5109 H         1 <0>         0.0684
     37 H13        -1.8004   -1.3438    3.3192 H         1 <0>         0.0638
     38 H14        -1.4442   -2.9594    4.0073 H         1 <0>         0.0685
     39 H15         0.0757   -2.8141    1.9792 H         1 <0>         0.0978
     40 H16        -1.6571   -4.8859    2.2106 H         1 <0>         0.0790
     41 H17        -1.3845   -4.4809    0.4704 H         1 <0>         0.0731
@<TRIPOS>BOND
     1    1    6 ar
     2    1    2 ar
     3    1   26 1
     4    2    3 ar
     5    2   27 1
     6    3    4 ar
     7    3   25 1
     8    4    5 ar
     9    4   28 1
    10    5    6 ar
    11    5   29 1
    12    6    7 1
    13    7   11 1
    14    7    8 2
    15    8   23 1
    16    8    9 1
    17    9   10 2
    18    9   20 1
    19   10   11 1
    20   10   13 1
    21   11   12 1
    22   13   18 ar
    23   13   14 ar
    24   14   15 ar
    25   14   30 1
    26   15   16 ar
    27   15   31 1
    28   16   17 ar
    29   16   19 1
    30   17   18 ar
    31   17   32 1
    32   18   33 1
    33   20   24 1
    34   20   21 1
    35   20   34 1
    36   21   22 1
    37   21   35 1
    38   21   36 1
    39   22   23 1
    40   22   37 1
    41   22   38 1
    42   23   24 1
    43   23   39 1
    44   24   40 1
    45   24   41 1
@<TRIPOS>MOLECULE
CHEMBL108917
   49    52     0     0     0
SMALL
USER_CHARGES

@<TRIPOS>ATOM
      1 C1         -0.0940    1.3049    0.4020 C.3       1 <0>        -0.1541
      2 C2          0.0420   -0.2019    0.1738 C.3       1 <0>         0.1369
      3 C3          0.7944   -0.4657   -1.1095 C.2       1 <0>        -0.0631
      4 C4          1.9076   -1.1557   -0.7681 C.2       1 <0>         0.0105
      5 C5          1.9108   -1.3518    0.6833 C.2       1 <0>         0.5014
      6 O1          2.7758   -1.9362    1.3067 O.2       1 <0>        -0.4264
      7 O2          0.8146   -0.7896    1.2247 O.3       1 <0>        -0.2972
      8 O3          2.8636   -1.5940   -1.6292 O.3       1 <0>        -0.2096
      9 C6          4.1040   -1.0535   -1.5324 C.ar      1 <0>         0.3021
     10 C7          5.0871   -1.4191   -2.4437 C.ar      1 <0>        -0.1700
     11 C8          6.3482   -0.8605   -2.3338 C.ar      1 <0>        -0.0354
     12 C9          6.5829    0.0488   -1.3112 C.ar      1 <0>        -0.1268
     13 C10         5.5589    0.3660   -0.4412 C.ar      1 <0>         0.1405
     14 N1          4.3647   -0.1793   -0.5745 N.ar      1 <0>        -0.5203
     15 C11         7.9410    0.6823   -1.1523 C.3       1 <0>        -0.1142
     16 C12         8.0432    1.9191   -0.2574 C.3       1 <0>        -0.1743
     17 C13         8.6117    0.5809    0.2191 C.3       1 <0>        -0.1681
     18 C14         0.3949   -0.0541   -2.4644 C.ar      1 <0>         0.0138
     19 C15         0.3664    1.3015   -2.8076 C.ar      1 <0>        -0.1178
     20 C16        -0.0091    1.6791   -4.0794 C.ar      1 <0>        -0.0196
     21 C17        -0.3576    0.7208   -5.0152 C.ar      1 <0>        -0.6520
     22 C18        -0.3319   -0.6226   -4.6834 C.ar      1 <0>        -0.0190
     23 C19         0.0473   -1.0167   -3.4177 C.ar      1 <0>        -0.1095
     24 S1         -0.8372    1.2138   -6.6375 S.o2      1 <0>         2.4983
     25 O4         -1.7677    0.2250   -7.0567 O.2       1 <0>        -0.9332
     26 O5         -1.2347    2.5713   -6.5013 O.2       1 <0>        -0.9344
     27 C20         0.6799    1.1032   -7.6259 C.3       1 <0>        -0.6499
     28 C21        -1.3425   -0.8503    0.1145 C.3       1 <0>        -0.1529
     29 H1          0.8969    1.7571    0.4426 H         1 <0>         0.0731
     30 H2         -0.6617    1.7466   -0.4169 H         1 <0>         0.0878
     31 H3         -0.6141    1.4843    1.3430 H         1 <0>         0.0877
     32 H4          4.8699   -2.1301   -3.2272 H         1 <0>         0.1472
     33 H5          7.1322   -1.1259   -3.0276 H         1 <0>         0.1478
     34 H6          5.7364    1.0727    0.3560 H         1 <0>         0.1606
     35 H7          8.5842    0.6422   -2.0314 H         1 <0>         0.1175
     36 H8          8.7537    2.6930   -0.5476 H         1 <0>         0.1025
     37 H9          7.1282    2.2745    0.2165 H         1 <0>         0.0979
     38 H10         8.0707    0.0559    1.0064 H         1 <0>         0.0975
     39 H11         9.6963    0.4745    0.2422 H         1 <0>         0.1020
     40 H12         0.6374    2.0504   -2.0782 H         1 <0>         0.1395
     41 H13        -0.0317    2.7255   -4.3459 H         1 <0>         0.1511
     42 H14        -0.6056   -1.3644   -5.4191 H         1 <0>         0.1487
     43 H15         0.0712   -2.0657   -3.1616 H         1 <0>         0.1393
     44 H16         1.0021    0.0634   -7.6818 H         1 <0>         0.1327
     45 H17         0.4869    1.4783   -8.6309 H         1 <0>         0.1353
     46 H18         1.4623    1.7014   -7.1588 H         1 <0>         0.1319
     47 H19        -1.9088   -0.4228   -0.7129 H         1 <0>         0.0871
     48 H20        -1.2345   -1.9245   -0.0358 H         1 <0>         0.0715
     49 H21        -1.8706   -0.6656    1.0500 H         1 <0>         0.0858
@<TRIPOS>BOND
     1    1    2 1
     2    1   29 1
     3    1   30 1
     4    1   31 1
     5    2    7 1
     6    2    3 1
     7    2   28 1
     8    3    4 2
     9    3   18 1
    10    4    5 1
    11    4    8 1
    12    5    6 2
    13    5    7 1
    14    8    9 1
    15    9   14 ar
    16    9   10 ar
    17   10   11 ar
    18   10   32 1
    19   11   12 ar
    20   11   33 1
    21   12   13 ar
    22   12   15 1
    23   13   14 ar
    24   13   34 1
    25   15   17 1
    26   15   16 1
    27   15   35 1
    28   16   17 1
    29   16   36 1
    30   16   37 1
    31   17   38 1
    32   17   39 1
    33   18   23 ar
    34   18   19 ar
    35   19   20 ar
    36   19   40 1
    37   20   21 ar
    38   20   41 1
    39   21   22 ar
    40   21   24 1
    41   22   23 ar
    42   22   42 1
    43   23   43 1
    44   24   25 2
    45   24   26 2
    46   24   27 1
    47   27   44 1
    48   27   45 1
    49   27   46 1
    50   28   47 1
    51   28   48 1
    52   28   49 1
@<TRIPOS>MOLECULE
CHEMBL362093
   36    38     0     0     0
SMALL
USER_CHARGES

@<TRIPOS>ATOM
      1 C1         -0.0184    1.5028    0.0103 C.3       1 <0>        -0.1031
      2 C2          0.0021   -0.0041    0.0020 C.2       1 <0>         0.1170
      3 C3          0.0074   -0.7716   -1.1026 C.2       1 <0>        -0.0246
      4 C4          0.0294   -2.1680   -0.6537 C.ar      1 <0>        -0.0619
      5 C5          0.0431   -3.3978   -1.3143 C.ar      1 <0>        -0.0815
      6 C6          0.0626   -4.5565   -0.5907 C.ar      1 <0>        -0.0576
      7 C7          0.0689   -4.5211    0.7973 C.ar      1 <0>        -0.6364
      8 C8          0.0552   -3.3190    1.4693 C.ar      1 <0>        -0.0158
      9 C9          0.0357   -2.1264    0.7524 C.ar      1 <0>         0.0814
     10 N1          0.0240   -0.8004    1.1219 N.pl3     1 <0>        -0.5783
     11 H1          0.0285   -0.4764    2.0362 H         1 <0>         0.4267
     12 S1          0.0942   -6.0293    1.7081 S.o2      1 <0>         2.5031
     13 O1         -0.5070   -5.7097    2.9553 O.2       1 <0>        -0.9383
     14 O2         -0.4998   -6.9861    0.8416 O.2       1 <0>        -0.9329
     15 C10         1.8538   -6.4041    1.9404 C.3       1 <0>        -0.6502
     16 O3         -0.0055   -0.3352   -2.3926 O.3       1 <0>        -0.2160
     17 C11         1.1883   -0.1140   -3.0033 C.ar      1 <0>         0.1071
     18 C12         2.3723   -0.3383   -2.3156 C.ar      1 <0>        -0.1630
     19 C13         3.5849   -0.1134   -2.9379 C.ar      1 <0>        -0.1159
     20 C14         3.6192    0.3357   -4.2472 C.ar      1 <0>         0.0647
     21 C15         2.4385    0.5605   -4.9347 C.ar      1 <0>        -0.1144
     22 C16         1.2244    0.3310   -4.3170 C.ar      1 <0>        -0.1166
     23 F1          4.8059    0.5551   -4.8545 F         1 <0>        -0.1393
     24 H2          1.0042    1.8801    0.0026 H         1 <0>         0.0871
     25 H3         -0.5455    1.8639   -0.8728 H         1 <0>         0.0948
     26 H4         -0.5286    1.8543    0.9071 H         1 <0>         0.0802
     27 H5          0.0379   -3.4332   -2.3938 H         1 <0>         0.1345
     28 H6          0.0728   -5.5075   -1.1024 H         1 <0>         0.1455
     29 H7          0.0596   -3.3019    2.5492 H         1 <0>         0.1458
     30 H8          2.3285   -5.5923    2.4914 H         1 <0>         0.1307
     31 H9          1.9563   -7.3329    2.5016 H         1 <0>         0.1340
     32 H10         2.3337   -6.5124    0.9677 H         1 <0>         0.1330
     33 H11         2.3459   -0.6883   -1.2942 H         1 <0>         0.1345
     34 H12         4.5067   -0.2877   -2.4028 H         1 <0>         0.1375
     35 H13         2.4669    0.9111   -5.9558 H         1 <0>         0.1448
     36 H14         0.3036    0.5023   -4.8550 H         1 <0>         0.1439
@<TRIPOS>BOND
     1    1    2 1
     2    1   24 1
     3    1   25 1
     4    1   26 1
     5    2   10 1
     6    2    3 2
     7    3    4 1
     8    3   16 1
     9    4    9 ar
    10    4    5 ar
    11    5    6 ar
    12    5   27 1
    13    6    7 ar
    14    6   28 1
    15    7    8 ar
    16    7   12 1
    17    8    9 ar
    18    8   29 1
    19    9   10 1
    20   10   11 1
    21   12   13 2
    22   12   14 2
    23   12   15 1
    24   15   30 1
    25   15   31 1
    26   15   32 1
    27   16   17 1
    28   17   22 ar
    29   17   18 ar
    30   18   19 ar
    31   18   33 1
    32   19   20 ar
    33   19   34 1
    34   20   21 ar
    35   20   23 1
    36   21   22 ar
    37   21   35 1
    38   22   36 1
@<TRIPOS>MOLECULE
CHEMBL320273
   41    43     0     0     0
SMALL
USER_CHARGES

@<TRIPOS>ATOM
      1 C1         -0.0670    1.0260    0.8505 C.3       1 <0>        -0.1544
      2 C2          0.0703   -0.4427    0.4442 C.3       1 <0>         0.1353
      3 C3          0.7975   -0.5492   -0.8758 C.2       1 <0>        -0.0506
      4 C4          1.9202   -1.2675   -0.6398 C.2       1 <0>        -0.0009
      5 C5          1.9536   -1.6326    0.7782 C.2       1 <0>         0.5018
      6 O1          2.8335   -2.2804    1.3115 O.2       1 <0>        -0.4299
      7 O2          0.8663   -1.1448    1.4034 O.3       1 <0>        -0.2945
      8 O3          2.8601   -1.5959   -1.5652 O.3       1 <0>        -0.2008
      9 C6          4.1030   -1.0710   -1.4244 C.ar      1 <0>         0.2615
     10 C7          5.1263   -1.4619   -2.2824 C.ar      1 <0>         0.0583
     11 N1          6.3341   -0.9489   -2.1428 N.ar      1 <0>        -0.3997
     12 C8          6.5721   -0.0645   -1.1889 C.ar      1 <0>         0.0190
     13 C9          5.5579    0.3254   -0.3349 C.ar      1 <0>         0.0976
     14 N2          4.3441   -0.1806   -0.4727 N.ar      1 <0>        -0.4846
     15 C10         0.3691    0.0160   -2.1648 C.ar      1 <0>         0.0090
     16 C11         0.3263    1.4024   -2.3450 C.ar      1 <0>        -0.1170
     17 C12        -0.0763    1.9243   -3.5561 C.ar      1 <0>        -0.0201
     18 C13        -0.4381    1.0804   -4.5916 C.ar      1 <0>        -0.6509
     19 C14        -0.3985   -0.2926   -4.4212 C.ar      1 <0>        -0.0183
     20 C15         0.0079   -0.8302   -3.2182 C.ar      1 <0>        -0.1086
     21 S1         -0.9524    1.7573   -6.1349 S.o2      1 <0>         2.4984
     22 O4         -1.7946    0.7642   -6.7039 O.2       1 <0>        -0.9330
     23 O5         -1.4637    3.0438   -5.8142 O.2       1 <0>        -0.9336
     24 C16         0.5718    1.9151   -7.1058 C.3       1 <0>        -0.6497
     25 C17        -1.3125   -1.0884    0.3363 C.3       1 <0>        -0.1533
     26 H1          0.9227    1.4766    0.9245 H         1 <0>         0.0737
     27 H2         -0.6530    1.5572    0.1005 H         1 <0>         0.0888
     28 H3         -0.5687    1.0904    1.8161 H         1 <0>         0.0888
     29 H4          4.9324   -2.1845   -3.0613 H         1 <0>         0.1811
     30 H5          7.5615    0.3539   -1.0768 H         1 <0>         0.1796
     31 H6          5.7559    1.0477    0.4433 H         1 <0>         0.1782
     32 H7          0.6077    2.0622   -1.5377 H         1 <0>         0.1399
     33 H8         -0.1099    2.9946   -3.6968 H         1 <0>         0.1503
     34 H9         -0.6827   -0.9446   -5.2339 H         1 <0>         0.1511
     35 H10         0.0425   -1.9018   -3.0882 H         1 <0>         0.1403
     36 H11         1.0278    0.9327   -7.2284 H         1 <0>         0.1327
     37 H12         0.3371    2.3315   -8.0855 H         1 <0>         0.1358
     38 H13         1.2663    2.5759   -6.5871 H         1 <0>         0.1319
     39 H14        -1.8972   -0.5703   -0.4238 H         1 <0>         0.0880
     40 H15        -1.2033   -2.1368    0.0587 H         1 <0>         0.0722
     41 H16        -1.8223   -1.0182    1.2973 H         1 <0>         0.0869
@<TRIPOS>BOND
     1    1    2 1
     2    1   26 1
     3    1   27 1
     4    1   28 1
     5    2    7 1
     6    2    3 1
     7    2   25 1
     8    3    4 2
     9    3   15 1
    10    4    5 1
    11    4    8 1
    12    5    6 2
    13    5    7 1
    14    8    9 1
    15    9   14 ar
    16    9   10 ar
    17   10   11 ar
    18   10   29 1
    19   11   12 ar
    20   12   13 ar
    21   12   30 1
    22   13   14 ar
    23   13   31 1
    24   15   20 ar
    25   15   16 ar
    26   16   17 ar
    27   16   32 1
    28   17   18 ar
    29   17   33 1
    30   18   19 ar
    31   18   21 1
    32   19   20 ar
    33   19   34 1
    34   20   35 1
    35   21   22 2
    36   21   23 2
    37   21   24 1
    38   24   36 1
    39   24   37 1
    40   24   38 1
    41   25   39 1
    42   25   40 1
    43   25   41 1
@<TRIPOS>MOLECULE
CHEMBL108512
   46    49     0     0     0
SMALL
USER_CHARGES

@<TRIPOS>ATOM
      1 C1         -0.0686    0.8753    0.8210 C.3       1 <0>        -0.1555
      2 C2          0.0874   -0.5834    0.3866 C.3       1 <0>         0.1330
      3 C3          0.8104   -0.6551   -0.9379 C.2       1 <0>        -0.0555
      4 C4          1.9439   -1.3621   -0.7199 C.2       1 <0>        -0.0108
      5 C5          1.9883   -1.7531    0.6910 C.2       1 <0>         0.4870
      6 O1          2.8794   -2.3982    1.2088 O.2       1 <0>        -0.4231
      7 O2          0.8970   -1.2923    1.3294 O.3       1 <0>        -0.2942
      8 O3          2.8843   -1.6600   -1.6548 O.3       1 <0>        -0.2148
      9 C6          4.1179   -1.1051   -1.5185 C.ar      1 <0>         0.1148
     10 C7          4.3410   -0.1750   -0.5054 C.ar      1 <0>        -0.1595
     11 C8          5.5921    0.3893   -0.3654 C.ar      1 <0>        -0.0335
     12 C9          6.6058    0.0280   -1.2271 C.ar      1 <0>        -0.1394
     13 C10         6.4150   -0.9103   -2.2638 C.ar      1 <0>        -0.0509
     14 C11         5.1228   -1.4762   -2.3791 C.ar      1 <0>        -0.0992
     15 C12         7.5963   -1.1682   -3.0743 C.2       1 <0>        -0.1463
     16 C13         8.7385   -0.5243   -2.7937 C.2       1 <0>        -0.1387
     17 S1          8.3093    0.4953   -1.3960 S.3       1 <0>         0.0358
     18 C14         0.3690   -0.0716   -2.2144 C.ar      1 <0>         0.0103
     19 C15         0.3079    1.3172   -2.3686 C.ar      1 <0>        -0.1176
     20 C16        -0.1064    1.8564   -3.5681 C.ar      1 <0>        -0.0202
     21 C17        -0.4613    1.0272   -4.6179 C.ar      1 <0>        -0.6504
     22 C18        -0.4036   -0.3481   -4.4732 C.ar      1 <0>        -0.0180
     23 C19         0.0137   -0.9027   -3.2817 C.ar      1 <0>        -0.1068
     24 S2         -0.9900    1.7260   -6.1465 S.o2      1 <0>         2.4982
     25 O4         -1.7513    0.7008   -6.7699 O.2       1 <0>        -0.9337
     26 O5         -1.5938    2.9621   -5.7905 O.2       1 <0>        -0.9334
     27 C20         0.5387    2.0225   -7.0770 C.3       1 <0>        -0.6498
     28 C21        -1.2869   -1.2461    0.2721 C.3       1 <0>        -0.1531
     29 H1          0.9151    1.3382    0.8996 H         1 <0>         0.0719
     30 H2         -0.6650    1.4123    0.0834 H         1 <0>         0.0908
     31 H3         -0.5670    0.9147    1.7896 H         1 <0>         0.0899
     32 H4          3.5407    0.1023    0.1648 H         1 <0>         0.1287
     33 H5          5.7767    1.1116    0.4161 H         1 <0>         0.1395
     34 H6          4.9238   -2.2030   -3.1528 H         1 <0>         0.1395
     35 H7          7.5533   -1.8712   -3.8931 H         1 <0>         0.1423
     36 H8          9.6916   -0.6041   -3.2954 H         1 <0>         0.1937
     37 H9          0.5842    1.9655   -1.5502 H         1 <0>         0.1401
     38 H10        -0.1544    2.9285   -3.6887 H         1 <0>         0.1494
     39 H11        -0.6822   -0.9885   -5.2970 H         1 <0>         0.1515
     40 H12         0.0625   -1.9759   -3.1718 H         1 <0>         0.1396
     41 H13         1.0291    1.0711   -7.2829 H         1 <0>         0.1329
     42 H14         0.3010    2.5198   -8.0174 H         1 <0>         0.1356
     43 H15         1.2046    2.6549   -6.4898 H         1 <0>         0.1320
     44 H16        -1.8818   -0.7221   -0.4758 H         1 <0>         0.0885
     45 H17        -1.1644   -2.2875   -0.0255 H         1 <0>         0.0725
     46 H18        -1.7935   -1.2010    1.2362 H         1 <0>         0.0869
@<TRIPOS>BOND
     1    1    2 1
     2    1   29 1
     3    1   30 1
     4    1   31 1
     5    2    7 1
     6    2    3 1
     7    2   28 1
     8    3    4 2
     9    3   18 1
    10    4    5 1
    11    4    8 1
    12    5    6 2
    13    5    7 1
    14    8    9 1
    15    9   14 ar
    16    9   10 ar
    17   10   11 ar
    18   10   32 1
    19   11   12 ar
    20   11   33 1
    21   12   17 1
    22   12   13 ar
    23   13   14 ar
    24   13   15 1
    25   14   34 1
    26   15   16 2
    27   15   35 1
    28   16   17 1
    29   16   36 1
    30   18   23 ar
    31   18   19 ar
    32   19   20 ar
    33   19   37 1
    34   20   21 ar
    35   20   38 1
    36   21   22 ar
    37   21   24 1
    38   22   23 ar
    39   22   39 1
    40   23   40 1
    41   24   25 2
    42   24   26 2
    43   24   27 1
    44   27   41 1
    45   27   42 1
    46   27   43 1
    47   28   44 1
    48   28   45 1
    49   28   46 1
@<TRIPOS>MOLECULE
CHEMBL341320
   44    46     0     0     0
SMALL
USER_CHARGES

@<TRIPOS>ATOM
      1 C1          4.6967   -4.9353    3.2072 C.3       1 <0>        -0.1129
      2 C2          3.4802   -4.7210    2.3439 C.ar      1 <0>        -0.0846
      3 C3          3.4405   -5.2457    1.0652 C.ar      1 <0>        -0.0915
      4 C4          2.3270   -5.0513    0.2707 C.ar      1 <0>        -0.1526
      5 C5          1.2470   -4.3291    0.7563 C.ar      1 <0>         0.0837
      6 C6          1.2882   -3.8028    2.0416 C.ar      1 <0>         0.0871
      7 C7          2.4038   -4.0049    2.8340 C.ar      1 <0>        -0.1196
      8 F1          0.2385   -3.0984    2.5182 F         1 <0>        -0.1288
      9 O1          0.1507   -4.1362   -0.0236 O.3       1 <0>        -0.2154
     10 C8          0.1066   -4.7635   -1.2290 C.2       1 <0>        -0.0747
     11 C9          0.0116   -6.1777   -1.3048 C.2       1 <0>         0.3831
     12 O2         -0.0328   -6.8587   -0.2911 O.2       1 <0>        -0.4598
     13 C10        -0.0309   -6.7793   -2.5884 C.2       1 <0>        -0.3005
     14 C11         0.0198   -5.9967   -3.6842 C.2       1 <0>         0.1401
     15 O3          0.1093   -4.6651   -3.5814 O.3       1 <0>        -0.1943
     16 C12         0.1472   -4.0442   -2.3894 C.2       1 <0>         0.1658
     17 C13         0.2398   -2.5716   -2.3342 C.ar      1 <0>        -0.0152
     18 C14         1.1634   -1.8964   -3.1352 C.ar      1 <0>        -0.0991
     19 C15         1.2445   -0.5206   -3.0786 C.ar      1 <0>        -0.0271
     20 C16         0.4137    0.1904   -2.2307 C.ar      1 <0>        -0.6398
     21 C17        -0.5033   -0.4722   -1.4340 C.ar      1 <0>        -0.0241
     22 C18        -0.5996   -1.8473   -1.4851 C.ar      1 <0>        -0.0838
     23 S1          0.5242    1.9477   -2.1649 S.o2      1 <0>         2.4971
     24 O4          0.1724    2.2834   -0.8297 O.2       1 <0>        -0.9303
     25 O5          1.8176    2.2488   -2.6707 O.2       1 <0>        -0.9329
     26 C19        -0.7492    2.5383   -3.3139 C.3       1 <0>        -0.6488
     27 C20        -0.0246   -6.6322   -5.0499 C.3       1 <0>        -0.1099
     28 H1          4.5411   -5.8058    3.8445 H         1 <0>         0.0752
     29 H2          5.5678   -5.1004    2.5731 H         1 <0>         0.0703
     30 H3          4.8610   -4.0549    3.8284 H         1 <0>         0.0713
     31 H4          4.2813   -5.8081    0.6868 H         1 <0>         0.1342
     32 H5          2.2977   -5.4612   -0.7281 H         1 <0>         0.1264
     33 H6          2.4356   -3.5999    3.8347 H         1 <0>         0.1464
     34 H7         -0.1027   -7.8524   -2.6865 H         1 <0>         0.1679
     35 H8          1.8127   -2.4501   -3.7971 H         1 <0>         0.1424
     36 H9          1.9585    0.0029   -3.6972 H         1 <0>         0.1541
     37 H10        -1.1485    0.0889   -0.7743 H         1 <0>         0.1527
     38 H11        -1.3193   -2.3628   -0.8665 H         1 <0>         0.1459
     39 H12        -1.7265    2.1833   -2.9869 H         1 <0>         0.1330
     40 H13        -0.7456    3.6282   -3.3312 H         1 <0>         0.1360
     41 H14        -0.5405    2.1584   -4.3140 H         1 <0>         0.1330
     42 H15        -1.0606   -6.7169   -5.3777 H         1 <0>         0.1020
     43 H16         0.5306   -6.0148   -5.7561 H         1 <0>         0.0922
     44 H17         0.4242   -7.6244   -5.0037 H         1 <0>         0.1058
@<TRIPOS>BOND
     1    1    2 1
     2    1   28 1
     3    1   29 1
     4    1   30 1
     5    2    7 ar
     6    2    3 ar
     7    3    4 ar
     8    3   31 1
     9    4    5 ar
    10    4   32 1
    11    5    6 ar
    12    5    9 1
    13    6    7 ar
    14    6    8 1
    15    7   33 1
    16    9   10 1
    17   10   16 2
    18   10   11 1
    19   11   12 2
    20   11   13 1
    21   13   14 2
    22   13   34 1
    23   14   15 1
    24   14   27 1
    25   15   16 1
    26   16   17 1
    27   17   22 ar
    28   17   18 ar
    29   18   19 ar
    30   18   35 1
    31   19   20 ar
    32   19   36 1
    33   20   21 ar
    34   20   23 1
    35   21   22 ar
    36   21   37 1
    37   22   38 1
    38   23   24 2
    39   23   25 2
    40   23   26 1
    41   26   39 1
    42   26   40 1
    43   26   41 1
    44   27   42 1
    45   27   43 1
    46   27   44 1
@<TRIPOS>MOLECULE
CHEMBL110331
   39    41     0     0     0
SMALL
USER_CHARGES

@<TRIPOS>ATOM
      1 C1         -0.0184    1.5028    0.0103 C.3       1 <0>        -0.1086
      2 C2          0.0021   -0.0041    0.0020 C.ar      1 <0>         0.1350
      3 C3          0.0055   -0.6796   -1.2053 C.ar      1 <0>        -0.1547
      4 C4          0.0244   -2.0671   -1.2094 C.ar      1 <0>        -0.0664
      5 C5          0.0392   -2.7316    0.0046 C.ar      1 <0>        -0.1238
      6 C6          0.0346   -1.9872    1.1843 C.ar      1 <0>         0.1877
      7 N1          0.0218   -0.6595    1.1440 N.ar      1 <0>        -0.4768
      8 C7          0.0503   -2.6813    2.4897 C.2       1 <0>         0.2761
      9 N2          0.0745   -3.9836    2.6692 N.2       1 <0>        -0.4189
     10 C8          0.0823   -4.2489    3.9793 C.2       1 <0>        -0.0830
     11 C9          0.0624   -3.0787    4.6520 C.2       1 <0>         0.0413
     12 N3          0.0479   -2.0791    3.7167 N.pl3     1 <0>        -0.3969
     13 C10         0.0311   -0.7009    3.9693 C.ar      1 <0>         0.1686
     14 C11         0.9341    0.1352    3.3265 C.ar      1 <0>        -0.0663
     15 C12         0.9151    1.4933    3.5775 C.ar      1 <0>        -0.0116
     16 C13        -0.0022    2.0204    4.4680 C.ar      1 <0>        -0.6645
     17 C14        -0.9028    1.1903    5.1097 C.ar      1 <0>        -0.0095
     18 C15        -0.8925   -0.1678    4.8585 C.ar      1 <0>        -0.1284
     19 S1         -0.0230    3.7533    4.7860 S.o2      1 <0>         2.7012
     20 O1         -0.6137    3.9241    6.0671 O.2       1 <0>        -0.9586
     21 O2          1.2758    4.2389    4.4752 O.2       1 <0>        -0.9578
     22 N4         -1.0592    4.4396    3.6917 N.pl3     1 <0>        -1.2486
     23 C16         0.1084   -5.6218    4.6002 C.3       1 <0>         0.5575
     24 F1          0.2390   -6.5858    3.5948 F         1 <0>        -0.1623
     25 F2          1.1924   -5.7154    5.4796 F         1 <0>        -0.1703
     26 F3         -1.0819   -5.8387    5.3025 F         1 <0>        -0.1705
     27 H1          1.0042    1.8801    0.0026 H         1 <0>         0.0840
     28 H2         -0.5455    1.8639   -0.8728 H         1 <0>         0.0817
     29 H3         -0.5286    1.8543    0.9071 H         1 <0>         0.0761
     30 H4         -0.0067   -0.1320   -2.1361 H         1 <0>         0.1426
     31 H5          0.0270   -2.6164   -2.1393 H         1 <0>         0.1463
     32 H6          0.0536   -3.8109    0.0381 H         1 <0>         0.1510
     33 H7          0.0620   -2.9546    5.7248 H         1 <0>         0.2007
     34 H8          1.6510   -0.2759    2.6312 H         1 <0>         0.1389
     35 H9          1.6175    2.1441    3.0781 H         1 <0>         0.1526
     36 H10        -1.6178    1.6048    5.8049 H         1 <0>         0.1542
     37 H11        -1.5993   -0.8151    5.3564 H         1 <0>         0.1420
     38 H12        -1.5151    3.8835    3.0407 H         1 <0>         0.4170
     39 H13        -1.2104    5.3977    3.7017 H         1 <0>         0.4231
@<TRIPOS>BOND
     1    1    2 1
     2    1   27 1
     3    1   28 1
     4    1   29 1
     5    2    7 ar
     6    2    3 ar
     7    3    4 ar
     8    3   30 1
     9    4    5 ar
    10    4   31 1
    11    5    6 ar
    12    5   32 1
    13    6    7 ar
    14    6    8 1
    15    8   12 1
    16    8    9 2
    17    9   10 1
    18   10   11 2
    19   10   23 1
    20   11   12 1
    21   11   33 1
    22   12   13 1
    23   13   18 ar
    24   13   14 ar
    25   14   15 ar
    26   14   34 1
    27   15   16 ar
    28   15   35 1
    29   16   17 ar
    30   16   19 1
    31   17   18 ar
    32   17   36 1
    33   18   37 1
    34   19   20 2
    35   19   21 2
    36   19   22 1
    37   22   38 1
    38   22   39 1
    39   23   24 1
    40   23   25 1
    41   23   26 1
@<TRIPOS>MOLECULE
CHEMBL1224098
   38    41     0     0     0
SMALL
USER_CHARGES

@<TRIPOS>ATOM
      1 C1          0.9127    0.6864   -0.2599 C.3       1 <0>         0.0940
      2 N1         -0.4323    0.3569    0.2182 N.am      1 <0>        -0.5480
      3 C2         -1.0939   -0.8582    0.0453 C.ar      1 <0>         0.0893
      4 C3         -0.7447   -2.0495   -0.5751 C.ar      1 <0>        -0.0955
      5 C4         -1.6299   -3.1058   -0.5869 C.ar      1 <0>        -0.0597
      6 C5         -2.8790   -2.9784    0.0252 C.ar      1 <0>        -0.0351
      7 C6         -3.2314   -1.7822    0.6488 C.ar      1 <0>        -0.0639
      8 C7         -2.3403   -0.7238    0.6594 C.ar      1 <0>         0.0413
      9 O1         -2.4025    0.5293    1.1735 O.3       1 <0>        -0.2311
     10 C8         -1.2533    1.1710    0.9105 C.2       1 <0>         0.6358
     11 O2         -0.9943    2.3116    1.2427 O.2       1 <0>        -0.4765
     12 C9         -3.8283   -4.1126    0.0113 C.2       1 <0>         0.1416
     13 C10        -3.5068   -5.4371   -0.0914 C.2       1 <0>        -0.1973
     14 C11        -4.6944   -6.1689   -0.0656 C.2       1 <0>        -0.0095
     15 N2         -5.6976   -5.3349    0.0476 N.2       1 <0>        -0.2133
     16 N3         -5.1883   -4.0312    0.1048 N.pl3     1 <0>        -0.3032
     17 C12        -5.9393   -2.8552    0.2315 C.ar      1 <0>         0.1317
     18 C13        -5.6627   -1.7626   -0.5796 C.ar      1 <0>        -0.0986
     19 C14        -6.4048   -0.6048   -0.4531 C.ar      1 <0>        -0.0926
     20 C15        -7.4229   -0.5327    0.4815 C.ar      1 <0>        -0.0232
     21 C16        -7.7003   -1.6201    1.2913 C.ar      1 <0>        -0.0931
     22 C17        -6.9652   -2.7823    1.1645 C.ar      1 <0>        -0.0845
     23 Cl1        -8.3535    0.9244    0.6385 Cl        1 <0>        -0.0496
     24 C18        -4.8044   -7.6692   -0.1541 C.3       1 <0>         0.5578
     25 F1         -4.7584   -8.2169    1.1325 F         1 <0>        -0.1644
     26 F2         -6.0155   -8.0129   -0.7642 F         1 <0>        -0.1640
     27 F3         -3.7413   -8.1708   -0.9126 F         1 <0>        -0.1617
     28 H1          1.1613    1.7073    0.0298 H         1 <0>         0.1006
     29 H2          1.6337   -0.0021    0.1807 H         1 <0>         0.0826
     30 H3          0.9437    0.5991   -1.3460 H         1 <0>         0.0827
     31 H4          0.2207   -2.1488   -1.0489 H         1 <0>         0.1475
     32 H5         -1.3577   -4.0325   -1.0701 H         1 <0>         0.1525
     33 H6         -4.1970   -1.6820    1.1219 H         1 <0>         0.1451
     34 H7         -2.5104   -5.8447   -0.1777 H         1 <0>         0.1744
     35 H8         -4.8678   -1.8181   -1.3086 H         1 <0>         0.1432
     36 H9         -6.1901    0.2453   -1.0837 H         1 <0>         0.1487
     37 H10        -8.4949   -1.5611    2.0204 H         1 <0>         0.1495
     38 H11        -7.1850   -3.6322    1.7936 H         1 <0>         0.1466
@<TRIPOS>BOND
     1    1    2 1
     2    1   28 1
     3    1   29 1
     4    1   30 1
     5    2   10 am
     6    2    3 1
     7    3    8 ar
     8    3    4 ar
     9    4    5 ar
    10    4   31 1
    11    5    6 ar
    12    5   32 1
    13    6    7 ar
    14    6   12 1
    15    7    8 ar
    16    7   33 1
    17    8    9 1
    18    9   10 1
    19   10   11 2
    20   12   16 1
    21   12   13 2
    22   13   14 1
    23   13   34 1
    24   14   15 2
    25   14   24 1
    26   15   16 1
    27   16   17 1
    28   17   22 ar
    29   17   18 ar
    30   18   19 ar
    31   18   35 1
    32   19   20 ar
    33   19   36 1
    34   20   21 ar
    35   20   23 1
    36   21   22 ar
    37   21   37 1
    38   22   38 1
    39   24   25 1
    40   24   26 1
    41   24   27 1
@<TRIPOS>MOLECULE
CHEMBL16819
   49    50     0     0     0
SMALL
USER_CHARGES

@<TRIPOS>ATOM
      1 C1         -0.0187    1.5258    0.0104 C.3       1 <0>        -0.1395
      2 C2          0.0021   -0.0041    0.0020 C.3       1 <0>        -0.1152
      3 S1         -1.6997   -0.6320    0.0149 S.3       1 <0>         0.0554
      4 C3         -1.5080   -2.3834    0.0037 C.2       1 <0>         0.1360
      5 N1         -0.3716   -3.0404   -0.0050 N.2       1 <0>        -0.2847
      6 N2         -0.6080   -4.3050   -0.0108 N.2       1 <0>        -0.2656
      7 C4         -1.9033   -4.5063   -0.0061 C.2       1 <0>         0.2178
      8 O1         -2.5005   -3.2940    0.0082 O.3       1 <0>        -0.2004
      9 C5         -2.5847   -5.8170   -0.0108 C.ar      1 <0>        -0.0319
     10 C6         -3.9797   -5.8808   -0.0112 C.ar      1 <0>        -0.0756
     11 C7         -4.6115   -7.1058   -0.0162 C.ar      1 <0>        -0.0933
     12 C8         -3.8629   -8.2755   -0.0208 C.ar      1 <0>         0.1467
     13 C9         -2.4754   -8.2164   -0.0199 C.ar      1 <0>        -0.0932
     14 C10        -1.8356   -6.9955   -0.0208 C.ar      1 <0>        -0.0588
     15 C11        -1.6681   -9.4889   -0.0239 C.3       1 <0>        -0.0201
     16 C12        -0.1768   -9.1468   -0.0221 C.3       1 <0>        -0.1502
     17 C13        -2.0045  -10.3102    1.2223 C.3       1 <0>        -0.1427
     18 C14        -2.0033  -10.3017   -1.2761 C.3       1 <0>        -0.1430
     19 O2         -4.4896   -9.4809   -0.0256 O.3       1 <0>        -0.4821
     20 C15        -6.1169   -7.1760   -0.0161 C.3       1 <0>        -0.0205
     21 C16        -6.6935   -5.7588   -0.0101 C.3       1 <0>        -0.1495
     22 C17        -6.5931   -7.9150   -1.2683 C.3       1 <0>        -0.1430
     23 C18        -6.5925   -7.9254    1.2301 C.3       1 <0>        -0.1428
     24 H1          1.0039    1.9031    0.0027 H         1 <0>         0.0881
     25 H2         -0.5459    1.8868   -0.8726 H         1 <0>         0.0703
     26 H3         -0.5289    1.8773    0.9072 H         1 <0>         0.0703
     27 H4          0.5123   -0.3556   -0.8948 H         1 <0>         0.1010
     28 H5          0.5293   -0.3651    0.8851 H         1 <0>         0.1011
     29 H6         -4.5627   -4.9717   -0.0073 H         1 <0>         0.1397
     30 H7         -0.7566   -6.9504   -0.0247 H         1 <0>         0.1479
     31 H8          0.0620   -8.5678    0.8700 H         1 <0>         0.0607
     32 H9          0.4071  -10.0672   -0.0250 H         1 <0>         0.0627
     33 H10         0.0628   -8.5617   -0.9100 H         1 <0>         0.0600
     34 H11        -3.0669  -10.5539    1.2210 H         1 <0>         0.0755
     35 H12        -1.4206  -11.2306    1.2195 H         1 <0>         0.0571
     36 H13        -1.7656   -9.7312    2.1144 H         1 <0>         0.0524
     37 H14        -1.7637   -9.7166   -2.1640 H         1 <0>         0.0557
     38 H15        -1.4194  -11.2221   -1.2790 H         1 <0>         0.0637
     39 H16        -3.0657  -10.5454   -1.2774 H         1 <0>         0.0583
     40 H17        -4.6709   -9.8264   -0.9104 H         1 <0>         0.3877
     41 H18        -6.3547   -5.2249   -0.8979 H         1 <0>         0.0585
     42 H19        -7.7824   -5.8096   -0.0100 H         1 <0>         0.0632
     43 H20        -6.3543   -5.2324    0.8820 H         1 <0>         0.0592
     44 H21        -6.1823   -8.9246   -1.2726 H         1 <0>         0.0589
     45 H22        -7.6819   -7.9658   -1.2683 H         1 <0>         0.0635
     46 H23        -6.2543   -7.3811   -2.1562 H         1 <0>         0.0554
     47 H24        -6.2532   -7.3989    2.1222 H         1 <0>         0.0521
     48 H25        -7.6813   -7.9762    1.2302 H         1 <0>         0.0570
     49 H26        -6.1817   -8.9350    1.2258 H         1 <0>         0.0761
@<TRIPOS>BOND
     1    1    2 1
     2    1   24 1
     3    1   25 1
     4    1   26 1
     5    2    3 1
     6    2   27 1
     7    2   28 1
     8    3    4 1
     9    4    8 1
    10    4    5 2
    11    5    6 1
    12    6    7 2
    13    7    8 1
    14    7    9 1
    15    9   14 ar
    16    9   10 ar
    17   10   11 ar
    18   10   29 1
    19   11   12 ar
    20   11   20 1
    21   12   13 ar
    22   12   19 1
    23   13   14 ar
    24   13   15 1
    25   14   30 1
    26   15   16 1
    27   15   17 1
    28   15   18 1
    29   16   31 1
    30   16   32 1
    31   16   33 1
    32   17   34 1
    33   17   35 1
    34   17   36 1
    35   18   37 1
    36   18   38 1
    37   18   39 1
    38   19   40 1
    39   20   21 1
    40   20   22 1
    41   20   23 1
    42   21   41 1
    43   21   42 1
    44   21   43 1
    45   22   44 1
    46   22   45 1
    47   22   46 1
    48   23   47 1
    49   23   48 1
    50   23   49 1
@<TRIPOS>MOLECULE
CHEMBL156482
   40    43     0     0     0
SMALL
USER_CHARGES

@<TRIPOS>ATOM
      1 C1          0.8546    0.7098    0.9288 C.3       1 <0>        -0.6495
      2 S1         -0.0026   -0.6916    0.1595 S.o2      1 <0>         2.4973
      3 O1          0.2231   -1.8760    0.9115 O.2       1 <0>        -0.9327
      4 O2         -1.3193   -0.3128   -0.2174 O.2       1 <0>        -0.9326
      5 C2          0.8420   -0.9582   -1.3637 C.ar      1 <0>        -0.6465
      6 C3          0.4259   -0.2984   -2.5065 C.ar      1 <0>        -0.0183
      7 C4          1.0825   -0.5025   -3.7023 C.ar      1 <0>        -0.1134
      8 C5          2.1694   -1.3774   -3.7578 C.ar      1 <0>         0.0458
      9 C6          2.5839   -2.0400   -2.6007 C.ar      1 <0>        -0.1006
     10 C7          1.9217   -1.8222   -1.4103 C.ar      1 <0>        -0.0178
     11 C8          2.8771   -1.6013   -5.0348 C.2       1 <0>        -0.1143
     12 C9          4.2166   -1.6051   -5.2875 C.2       1 <0>         0.1520
     13 N1          4.6722   -1.8388   -6.5672 N.pl3     1 <0>        -0.3270
     14 C10         3.7416   -2.0585   -7.5340 C.2       1 <0>         0.2230
     15 S2          2.2032   -1.9460   -6.6525 S.3       1 <0>         0.2350
     16 N2          4.3372   -2.2604   -8.6777 N.2       1 <0>        -0.4515
     17 C11         5.6554   -2.1820   -8.5072 C.2       1 <0>         0.1725
     18 N3          5.9125   -1.9294   -7.2522 N.2       1 <0>        -0.2273
     19 C12         6.6874   -2.3573   -9.5913 C.3       1 <0>         0.5812
     20 F1          6.0680   -2.2732  -10.8428 F         1 <0>        -0.1448
     21 F2          7.6546   -1.3525   -9.4811 F         1 <0>        -0.1531
     22 F3          7.2978   -3.6089   -9.4561 F         1 <0>        -0.1541
     23 C13         5.1767   -1.3591   -4.1936 C.ar      1 <0>        -0.0612
     24 C14         5.2189   -0.1129   -3.5640 C.ar      1 <0>        -0.0804
     25 C15         6.1183    0.1098   -2.5423 C.ar      1 <0>        -0.1172
     26 C16         6.9775   -0.8978   -2.1406 C.ar      1 <0>        -0.0956
     27 C17         6.9412   -2.1348   -2.7598 C.ar      1 <0>        -0.1153
     28 C18         6.0434   -2.3733   -3.7793 C.ar      1 <0>        -0.0814
     29 H1          1.9017    0.4522    1.0880 H         1 <0>         0.1327
     30 H2          0.7898    1.5790    0.2743 H         1 <0>         0.1328
     31 H3          0.3875    0.9403    1.8862 H         1 <0>         0.1355
     32 H4         -0.4151    0.3777   -2.4623 H         1 <0>         0.1524
     33 H5          0.7565    0.0129   -4.5937 H         1 <0>         0.1420
     34 H6          3.4238   -2.7180   -2.6367 H         1 <0>         0.1386
     35 H7          2.2440   -2.3307   -0.5137 H         1 <0>         0.1512
     36 H8          4.5492    0.6745   -3.8768 H         1 <0>         0.1261
     37 H9          6.1523    1.0729   -2.0549 H         1 <0>         0.1316
     38 H10         7.6800   -0.7179   -1.3402 H         1 <0>         0.1302
     39 H11         7.6147   -2.9167   -2.4412 H         1 <0>         0.1318
     40 H12         6.0133   -3.3405   -4.2590 H         1 <0>         0.1229
@<TRIPOS>BOND
     1    1    2 1
     2    1   29 1
     3    1   30 1
     4    1   31 1
     5    2    3 2
     6    2    4 2
     7    2    5 1
     8    5   10 ar
     9    5    6 ar
    10    6    7 ar
    11    6   32 1
    12    7    8 ar
    13    7   33 1
    14    8    9 ar
    15    8   11 1
    16    9   10 ar
    17    9   34 1
    18   10   35 1
    19   11   15 1
    20   11   12 2
    21   12   13 1
    22   12   23 1
    23   13   18 1
    24   13   14 1
    25   14   15 1
    26   14   16 2
    27   16   17 1
    28   17   18 2
    29   17   19 1
    30   19   20 1
    31   19   21 1
    32   19   22 1
    33   23   28 ar
    34   23   24 ar
    35   24   25 ar
    36   24   36 1
    37   25   26 ar
    38   25   37 1
    39   26   27 ar
    40   26   38 1
    41   27   28 ar
    42   27   39 1
    43   28   40 1
@<TRIPOS>MOLECULE
CHEMBL23378
   41    44     0     0     0
SMALL
USER_CHARGES

@<TRIPOS>ATOM
      1 C1         -0.0225    1.8097    0.0120 C.3       1 <0>        -0.6503
      2 S1          0.0021   -0.0041    0.0020 S.o2      1 <0>         2.4980
      3 O1          0.8352   -0.4880    1.0465 O.2       1 <0>        -0.9350
      4 O2         -1.3147   -0.5105   -0.1678 O.2       1 <0>        -0.9343
      5 C2          0.8454   -0.4373   -1.4831 C.ar      1 <0>        -0.6517
      6 C3          0.1294   -0.6119   -2.6552 C.ar      1 <0>        -0.0183
      7 C4          0.7809   -0.9509   -3.8215 C.ar      1 <0>        -0.1068
      8 C5          2.1716   -1.1186   -3.8186 C.ar      1 <0>        -0.0067
      9 C6          2.8880   -0.9400   -2.6282 C.ar      1 <0>        -0.1142
     10 C7          2.2208   -0.5956   -1.4724 C.ar      1 <0>        -0.0221
     11 C8          2.8737   -1.4798   -5.0550 C.2       1 <0>         0.0173
     12 C9          2.9622   -0.6888   -6.1689 C.2       1 <0>        -0.1320
     13 C10         3.7303   -1.3395   -7.2273 C.2       1 <0>         0.4004
     14 O3          3.9715   -0.8768   -8.3230 O.2       1 <0>        -0.4287
     15 C11         4.1717   -2.6918   -6.7148 C.3       1 <0>        -0.1739
     16 C12         3.6110   -2.7750   -5.2859 C.3       1 <0>        -0.0963
     17 C13         2.3569    0.6523   -6.2859 C.2       1 <0>        -0.0781
     18 C14         2.9826    1.8470   -6.4315 C.2       1 <0>        -0.1140
     19 C15         2.1817    3.0543   -6.5282 C.ar      1 <0>        -0.0889
     20 C16         2.6166    4.3940   -6.6817 C.ar      1 <0>        -0.0731
     21 C17         1.7186    5.4116   -6.7549 C.ar      1 <0>        -0.1216
     22 C18         0.3512    5.1799   -6.6827 C.ar      1 <0>        -0.0926
     23 C19        -0.1136    3.8880   -6.5331 C.ar      1 <0>        -0.0793
     24 C20         0.7858    2.8465   -6.4575 C.ar      1 <0>        -0.1136
     25 S2          0.6285    1.0885   -6.2774 S.3       1 <0>         0.0408
     26 H1          1.0001    2.1870    0.0043 H         1 <0>         0.1319
     27 H2         -0.5497    2.1708   -0.8711 H         1 <0>         0.1323
     28 H3         -0.5327    2.1613    0.9088 H         1 <0>         0.1349
     29 H4         -0.9428   -0.4825   -2.6555 H         1 <0>         0.1483
     30 H5          0.2208   -1.0870   -4.7348 H         1 <0>         0.1354
     31 H6          3.9603   -1.0677   -2.6170 H         1 <0>         0.1388
     32 H7          2.7720   -0.4531   -0.5546 H         1 <0>         0.1482
     33 H8          3.7571   -3.4863   -7.3354 H         1 <0>         0.1161
     34 H9          5.2598   -2.7533   -6.6956 H         1 <0>         0.1157
     35 H10         4.4235   -2.8782   -4.5666 H         1 <0>         0.1061
     36 H11         2.9250   -3.6179   -5.2021 H         1 <0>         0.1062
     37 H12         4.0605    1.8994   -6.4746 H         1 <0>         0.1372
     38 H13         3.6734    4.6090   -6.7408 H         1 <0>         0.1262
     39 H14         2.0767    6.4238   -6.8715 H         1 <0>         0.1292
     40 H15        -0.3439    6.0043   -6.7428 H         1 <0>         0.1359
     41 H16        -1.1748    3.6952   -6.4761 H         1 <0>         0.1323
@<TRIPOS>BOND
     1    1    2 1
     2    1   26 1
     3    1   27 1
     4    1   28 1
     5    2    3 2
     6    2    4 2
     7    2    5 1
     8    5   10 ar
     9    5    6 ar
    10    6    7 ar
    11    6   29 1
    12    7    8 ar
    13    7   30 1
    14    8    9 ar
    15    8   11 1
    16    9   10 ar
    17    9   31 1
    18   10   32 1
    19   11   16 1
    20   11   12 2
    21   12   13 1
    22   12   17 1
    23   13   14 2
    24   13   15 1
    25   15   16 1
    26   15   33 1
    27   15   34 1
    28   16   35 1
    29   16   36 1
    30   17   25 1
    31   17   18 2
    32   18   19 1
    33   18   37 1
    34   19   24 ar
    35   19   20 ar
    36   20   21 ar
    37   20   38 1
    38   21   22 ar
    39   21   39 1
    40   22   23 ar
    41   22   40 1
    42   23   24 ar
    43   23   41 1
    44   24   25 1
@<TRIPOS>MOLECULE
CHEMBL118839
   42    44     0     0     0
SMALL
USER_CHARGES

@<TRIPOS>ATOM
      1 C1         -0.0187    1.5258    0.0104 C.3       1 <0>        -0.1375
      2 C2          0.0021   -0.0041    0.0020 C.3       1 <0>        -0.0519
      3 C3          0.8776   -0.5388   -1.1559 C.3       1 <0>         0.0551
      4 O1          1.4952   -1.7011   -0.5782 O.3       1 <0>        -0.2937
      5 C4          1.5941   -1.5352    0.7700 C.ar      1 <0>         0.1247
      6 C5          0.7293   -0.5431    1.2190 C.ar      1 <0>        -0.1565
      7 C6          0.6571   -0.2195    2.5529 C.ar      1 <0>        -0.0560
      8 C7          1.4664   -0.8871    3.4754 C.ar      1 <0>        -0.0359
      9 C8          2.3419   -1.8783    3.0296 C.ar      1 <0>        -0.0655
     10 C9          2.4037   -2.1971    1.6916 C.ar      1 <0>        -0.0842
     11 C10         3.3528   -3.2687    1.2205 C.3       1 <0>        -0.0220
     12 C11         4.1194   -3.8335    2.4181 C.3       1 <0>        -0.1473
     13 C12         2.5608   -4.3910    0.5466 C.3       1 <0>        -0.1406
     14 C13         4.3417   -2.6696    0.2185 C.3       1 <0>        -0.1409
     15 C14         1.3963   -0.5459    4.9122 C.2       1 <0>        -0.0940
     16 C15         2.1019   -1.0742    5.9597 C.2       1 <0>        -0.1569
     17 C16         1.8644   -0.5918    7.2287 C.2       1 <0>        -0.1514
     18 C17         0.9418    0.3887    7.4015 C.2       1 <0>        -0.1778
     19 S1          0.3752    0.6679    5.7318 S.3       1 <0>         0.0485
     20 C18        -1.4182   -0.5671   -0.0802 C.3       1 <0>        -0.1356
     21 H1          1.0039    1.9031    0.0027 H         1 <0>         0.0609
     22 H2         -0.5459    1.8868   -0.8726 H         1 <0>         0.0650
     23 H3         -0.5289    1.8773    0.9072 H         1 <0>         0.0637
     24 H4          0.2604   -0.8144   -2.0110 H         1 <0>         0.1079
     25 H5          1.6299    0.1961   -1.4422 H         1 <0>         0.0795
     26 H6         -0.0237    0.5494    2.8871 H         1 <0>         0.1244
     27 H7          2.9731   -2.3965    3.7363 H         1 <0>         0.1396
     28 H8          3.4149   -4.2603    3.1320 H         1 <0>         0.0590
     29 H9          4.8058   -4.6086    2.0774 H         1 <0>         0.0614
     30 H10         4.6836   -3.0339    2.8982 H         1 <0>         0.0589
     31 H11         2.0147   -3.9887   -0.3066 H         1 <0>         0.0650
     32 H12         3.2473   -5.1661    0.2059 H         1 <0>         0.0584
     33 H13         1.8563   -4.8178    1.2605 H         1 <0>         0.0536
     34 H14         4.9059   -1.8701    0.6986 H         1 <0>         0.0534
     35 H15         5.0281   -3.4448   -0.1223 H         1 <0>         0.0587
     36 H16         3.7956   -2.2673   -0.6347 H         1 <0>         0.0639
     37 H17         2.8304   -1.8543    5.7949 H         1 <0>         0.1339
     38 H18         2.4051   -0.9891    8.0749 H         1 <0>         0.1357
     39 H19         0.6327    0.8769    8.3139 H         1 <0>         0.1869
     40 H20        -1.8995   -0.2074   -0.9896 H         1 <0>         0.0653
     41 H21        -1.3769   -1.6562   -0.0973 H         1 <0>         0.0608
     42 H22        -1.9900   -0.2388    0.7878 H         1 <0>         0.0633
@<TRIPOS>BOND
     1    1    2 1
     2    1   21 1
     3    1   22 1
     4    1   23 1
     5    2    6 1
     6    2    3 1
     7    2   20 1
     8    3    4 1
     9    3   24 1
    10    3   25 1
    11    4    5 1
    12    5   10 ar
    13    5    6 ar
    14    6    7 ar
    15    7    8 ar
    16    7   26 1
    17    8    9 ar
    18    8   15 1
    19    9   10 ar
    20    9   27 1
    21   10   11 1
    22   11   12 1
    23   11   13 1
    24   11   14 1
    25   12   28 1
    26   12   29 1
    27   12   30 1
    28   13   31 1
    29   13   32 1
    30   13   33 1
    31   14   34 1
    32   14   35 1
    33   14   36 1
    34   15   19 1
    35   15   16 2
    36   16   17 1
    37   16   37 1
    38   17   18 2
    39   17   38 1
    40   18   19 1
    41   18   39 1
    42   20   40 1
    43   20   41 1
    44   20   42 1
@<TRIPOS>MOLECULE
CHEMBL418665
   39    43     0     0     0
SMALL
USER_CHARGES

@<TRIPOS>ATOM
      1 C1         -0.0184    1.5028    0.0103 C.3       1 <0>        -0.0894
      2 C2          0.0021   -0.0041    0.0020 C.2       1 <0>         0.0829
      3 C3         -1.0762   -0.8076    0.0026 C.2       1 <0>        -0.2892
      4 C4         -0.6254   -2.1466   -0.0073 C.2       1 <0>         0.3307
      5 N1          0.6829   -2.1299   -0.0135 N.2       1 <0>        -0.3459
      6 O1          1.0997   -0.7765   -0.0131 O.3       1 <0>        -0.0666
      7 N2         -1.4321   -3.2847   -0.0099 N.am      1 <0>        -0.6264
      8 C5         -2.7740   -3.1595   -0.0028 C.2       1 <0>         0.5496
      9 O2         -3.2802   -2.0574    0.0060 O.2       1 <0>        -0.4758
     10 C6         -3.6455   -4.3889   -0.0057 C.3       1 <0>        -0.0862
     11 C7         -5.1006   -4.0039    0.0927 C.ar      1 <0>        -0.0768
     12 C8         -5.9951   -3.2721   -0.6589 C.ar      1 <0>        -0.0609
     13 C9         -7.3033   -3.1404   -0.2179 C.ar      1 <0>        -0.0939
     14 C10        -7.7324   -3.7282    0.9629 C.ar      1 <0>        -0.0953
     15 C11        -6.8357   -4.4640    1.7203 C.ar      1 <0>         0.1090
     16 C12        -5.5389   -4.5799    1.2591 C.ar      1 <0>         0.0436
     17 N3         -4.5482   -5.2878    1.9272 N.am      1 <0>        -0.4904
     18 C13        -3.3916   -5.2231    1.2393 C.2       1 <0>         0.5417
     19 O3         -2.3392   -5.7368    1.5560 O.2       1 <0>        -0.4710
     20 C14        -4.9265   -5.9059    3.1352 C.ar      1 <0>         0.0865
     21 C15        -4.0025   -6.6299    3.8679 C.ar      1 <0>        -0.1040
     22 C16        -4.3826   -7.2341    5.0529 C.ar      1 <0>        -0.1128
     23 C17        -5.6842   -7.1135    5.5030 C.ar      1 <0>        -0.0930
     24 C18        -6.6106   -6.3907    4.7754 C.ar      1 <0>        -0.1104
     25 C19        -6.2405   -5.7806    3.5854 C.ar      1 <0>         0.0991
     26 O4         -7.1718   -5.0719    2.8861 O.3       1 <0>        -0.2386
     27 H1          1.0042    1.8801    0.0026 H         1 <0>         0.0870
     28 H2         -0.5455    1.8639   -0.8728 H         1 <0>         0.0986
     29 H3         -0.5286    1.8543    0.9071 H         1 <0>         0.0979
     30 H4         -2.1071   -0.4855    0.0097 H         1 <0>         0.1824
     31 H5         -1.0273   -4.1661   -0.0170 H         1 <0>         0.4296
     32 H6         -3.4658   -4.9802   -0.9036 H         1 <0>         0.1696
     33 H7         -5.6803   -2.8061   -1.5809 H         1 <0>         0.1436
     34 H8         -8.0036   -2.5669   -0.8070 H         1 <0>         0.1477
     35 H9         -8.7556   -3.6130    1.2888 H         1 <0>         0.1507
     36 H10        -2.9859   -6.7228    3.5153 H         1 <0>         0.1469
     37 H11        -3.6630   -7.7999    5.6260 H         1 <0>         0.1399
     38 H12        -5.9785   -7.5864    6.4283 H         1 <0>         0.1426
     39 H13        -7.6255   -6.3011    5.1337 H         1 <0>         0.1472
@<TRIPOS>BOND
     1    1    2 1
     2    1   27 1
     3    1   28 1
     4    1   29 1
     5    2    6 1
     6    2    3 2
     7    3    4 1
     8    3   30 1
     9    4    5 2
    10    4    7 1
    11    5    6 1
    12    7    8 am
    13    7   31 1
    14    8    9 2
    15    8   10 1
    16   10   18 1
    17   10   11 1
    18   10   32 1
    19   11   16 ar
    20   11   12 ar
    21   12   13 ar
    22   12   33 1
    23   13   14 ar
    24   13   34 1
    25   14   15 ar
    26   14   35 1
    27   15   26 1
    28   15   16 ar
    29   16   17 1
    30   17   18 am
    31   17   20 1
    32   18   19 2
    33   20   25 ar
    34   20   21 ar
    35   21   22 ar
    36   21   36 1
    37   22   23 ar
    38   22   37 1
    39   23   24 ar
    40   23   38 1
    41   24   25 ar
    42   24   39 1
    43   25   26 1
@<TRIPOS>MOLECULE
CHEMBL418665__1
   38    42     0     0     0
SMALL
USER_CHARGES

@<TRIPOS>ATOM
      1 C1         -0.0184    1.5028    0.0103 C.3       1 <0>        -0.0817
      2 C2          0.0021   -0.0041    0.0020 C.2       1 <0>         0.0602
      3 C3         -1.0762   -0.8074    0.0026 C.2       1 <0>        -0.2779
      4 C4         -0.6253   -2.1467   -0.0067 C.2       1 <0>         0.3431
      5 N1          0.6832   -2.1300   -0.0127 N.2       1 <0>        -0.3689
      6 O1          1.0997   -0.7764   -0.0131 O.3       1 <0>        -0.0848
      7 N2         -1.4315   -3.2839   -0.0088 N.am      1 <0>        -0.6294
      8 C5         -2.7734   -3.1587   -0.0015 C.2       1 <0>         0.6579
      9 O2         -3.2816   -2.0523    0.0069 O.2       1 <0>        -0.5227
     10 C6         -3.6188   -4.3514   -0.0036 C.2       1 <0>        -0.4446
     11 C7         -4.1267   -5.0721    1.1756 C.ar      1 <0>         0.0450
     12 C8         -4.0516   -4.9717    2.5647 C.ar      1 <0>        -0.1465
     13 C9         -4.7112   -5.9046    3.3417 C.ar      1 <0>        -0.0924
     14 C10        -5.4501   -6.9437    2.7837 C.ar      1 <0>        -0.1743
     15 C11        -5.5331   -7.0553    1.4071 C.ar      1 <0>         0.1193
     16 C12        -4.8689   -6.1165    0.6484 C.ar      1 <0>        -0.0277
     17 N3         -4.8524   -6.0886   -0.7276 N.pl3     1 <0>        -0.4607
     18 C13        -4.1070   -5.0254   -1.1235 C.2       1 <0>         0.4964
     19 O3         -3.8709   -4.6748   -2.4077 O.3       1 <0>        -0.6723
     20 C14        -5.5767   -7.1080   -1.3717 C.ar      1 <0>         0.1213
     21 C15        -5.6224   -7.1697   -2.7532 C.ar      1 <0>        -0.1129
     22 C16        -6.3379   -8.1760   -3.3764 C.ar      1 <0>        -0.1190
     23 C17        -7.0064   -9.1191   -2.6181 C.ar      1 <0>        -0.1190
     24 C18        -6.9644   -9.0626   -1.2382 C.ar      1 <0>        -0.1199
     25 C19        -6.2494   -8.0581   -0.6014 C.ar      1 <0>         0.0851
     26 O4         -6.2260   -8.0284    0.7631 O.3       1 <0>        -0.2500
     27 H1          1.0042    1.8801    0.0026 H         1 <0>         0.0805
     28 H2         -0.5455    1.8639   -0.8728 H         1 <0>         0.0926
     29 H3         -0.5286    1.8543    0.9071 H         1 <0>         0.0924
     30 H4         -2.1070   -0.4853    0.0094 H         1 <0>         0.1816
     31 H5         -1.0266   -4.1654   -0.0155 H         1 <0>         0.4196
     32 H6         -3.4856   -4.1762    3.0265 H         1 <0>         0.1173
     33 H7         -4.6513   -5.8250    4.4171 H         1 <0>         0.1209
     34 H8         -5.9538   -7.6567    3.4196 H         1 <0>         0.1263
     35 H9         -5.0999   -6.4323   -3.3445 H         1 <0>         0.1503
     36 H10        -6.3746   -8.2248   -4.4547 H         1 <0>         0.1290
     37 H11        -7.5648   -9.9038   -3.1069 H         1 <0>         0.1303
     38 H12        -7.4898   -9.8029   -0.6531 H         1 <0>         0.1356
@<TRIPOS>BOND
     1    1    2 1
     2    1   27 1
     3    1   28 1
     4    1   29 1
     5    2    6 1
     6    2    3 2
     7    3    4 1
     8    3   30 1
     9    4    5 2
    10    4    7 1
    11    5    6 1
    12    7    8 am
    13    7   31 1
    14    8    9 2
    15    8   10 1
    16   10   18 2
    17   10   11 1
    18   11   16 ar
    19   11   12 ar
    20   12   13 ar
    21   12   32 1
    22   13   14 ar
    23   13   33 1
    24   14   15 ar
    25   14   34 1
    26   15   26 1
    27   15   16 ar
    28   16   17 1
    29   17   18 1
    30   17   20 1
    31   18   19 1
    32   20   25 ar
    33   20   21 ar
    34   21   22 ar
    35   21   35 1
    36   22   23 ar
    37   22   36 1
    38   23   24 ar
    39   23   37 1
    40   24   25 ar
    41   24   38 1
    42   25   26 1
@<TRIPOS>MOLECULE
CHEMBL418665__2
   39    43     0     0     0
SMALL
USER_CHARGES

@<TRIPOS>ATOM
      1 C1         -0.0184    1.5028    0.0103 C.3       1 <0>        -0.0894
      2 C2          0.0021   -0.0041    0.0020 C.2       1 <0>         0.0829
      3 C3         -1.0762   -0.8076    0.0026 C.2       1 <0>        -0.2892
      4 C4         -0.6254   -2.1466   -0.0073 C.2       1 <0>         0.3307
      5 N1          0.6829   -2.1299   -0.0135 N.2       1 <0>        -0.3459
      6 O1          1.0997   -0.7765   -0.0131 O.3       1 <0>        -0.0666
      7 N2         -1.4321   -3.2847   -0.0099 N.am      1 <0>        -0.6264
      8 C5         -2.7740   -3.1595   -0.0028 C.2       1 <0>         0.5496
      9 O2         -3.2802   -2.0574    0.0060 O.2       1 <0>        -0.4758
     10 C6         -3.6455   -4.3889   -0.0057 C.3       1 <0>        -0.0862
     11 C7         -5.1015   -4.0029   -0.0856 C.ar      1 <0>        -0.0768
     12 C8         -5.9893   -3.2821    0.6843 C.ar      1 <0>        -0.0610
     13 C9         -7.3016   -3.1451    0.2573 C.ar      1 <0>        -0.0939
     14 C10        -7.7415   -3.7173   -0.9272 C.ar      1 <0>        -0.0953
     15 C11        -6.8515   -4.4422   -1.7028 C.ar      1 <0>         0.1089
     16 C12        -5.5504   -4.5638   -1.2553 C.ar      1 <0>         0.0436
     17 N3         -4.5667   -5.2651   -1.9402 N.am      1 <0>        -0.4903
     18 C13        -3.4036   -5.2087   -1.2625 C.2       1 <0>         0.5417
     19 O3         -2.3544   -5.7191   -1.5949 O.2       1 <0>        -0.4710
     20 C14        -4.9567   -5.8697   -3.1513 C.ar      1 <0>         0.0865
     21 C15        -4.0413   -6.5902   -3.8982 C.ar      1 <0>        -0.1040
     22 C16        -4.4327   -7.1803   -5.0866 C.ar      1 <0>        -0.1127
     23 C17        -5.7369   -7.0494   -5.5259 C.ar      1 <0>        -0.0930
     24 C18        -6.6550   -6.3308   -4.7837 C.ar      1 <0>        -0.1104
     25 C19        -6.2737   -5.7354   -3.5897 C.ar      1 <0>         0.0990
     26 O4         -7.1979   -5.0336   -2.8741 O.3       1 <0>        -0.2386
     27 H1          1.0042    1.8801    0.0026 H         1 <0>         0.0870
     28 H2         -0.5455    1.8639   -0.8728 H         1 <0>         0.0979
     29 H3         -0.5286    1.8543    0.9071 H         1 <0>         0.0986
     30 H4         -2.1071   -0.4855    0.0097 H         1 <0>         0.1824
     31 H5         -1.0273   -4.1661   -0.0170 H         1 <0>         0.4295
     32 H6         -3.4572   -4.9904    0.8836 H         1 <0>         0.1696
     33 H7         -5.6665   -2.8294    1.6101 H         1 <0>         0.1436
     34 H8         -7.9968   -2.5805    0.8608 H         1 <0>         0.1477
     35 H9         -8.7680   -3.5991   -1.2416 H         1 <0>         0.1507
     36 H10        -3.0228   -6.6921   -3.5535 H         1 <0>         0.1469
     37 H11        -3.7198   -7.7433   -5.6707 H         1 <0>         0.1399
     38 H12        -6.0399   -7.5107   -6.4542 H         1 <0>         0.1426
     39 H13        -7.6719   -6.2326   -5.1338 H         1 <0>         0.1471
@<TRIPOS>BOND
     1    1    2 1
     2    1   27 1
     3    1   28 1
     4    1   29 1
     5    2    6 1
     6    2    3 2
     7    3    4 1
     8    3   30 1
     9    4    5 2
    10    4    7 1
    11    5    6 1
    12    7    8 am
    13    7   31 1
    14    8    9 2
    15    8   10 1
    16   10   18 1
    17   10   11 1
    18   10   32 1
    19   11   16 ar
    20   11   12 ar
    21   12   13 ar
    22   12   33 1
    23   13   14 ar
    24   13   34 1
    25   14   15 ar
    26   14   35 1
    27   15   26 1
    28   15   16 ar
    29   16   17 1
    30   17   18 am
    31   17   20 1
    32   18   19 2
    33   20   25 ar
    34   20   21 ar
    35   21   22 ar
    36   21   36 1
    37   22   23 ar
    38   22   37 1
    39   23   24 ar
    40   23   38 1
    41   24   25 ar
    42   24   39 1
    43   25   26 1
@<TRIPOS>MOLECULE
CHEMBL550473
   50    52     0     0     0
SMALL
USER_CHARGES

@<TRIPOS>ATOM
      1 C1         -0.0225    1.8097    0.0120 C.3       1 <0>        -0.6494
      2 S1          0.0021   -0.0041    0.0020 S.o2      1 <0>         2.4985
      3 O1          0.8352   -0.4880    1.0465 O.2       1 <0>        -0.9335
      4 O2         -1.3147   -0.5105   -0.1678 O.2       1 <0>        -0.9336
      5 C2          0.8454   -0.4373   -1.4831 C.ar      1 <0>        -0.6427
      6 C3          0.1315   -0.6121   -2.6550 C.ar      1 <0>        -0.0296
      7 C4          0.7868   -0.9510   -3.8213 C.ar      1 <0>        -0.0882
      8 C5          2.1707   -1.1172   -3.8169 C.ar      1 <0>        -0.0094
      9 C6          2.8848   -0.9398   -2.6332 C.ar      1 <0>        -0.1075
     10 C7          2.2196   -0.5958   -1.4740 C.ar      1 <0>        -0.0267
     11 C8          2.8805   -1.4819   -5.0670 C.ar      1 <0>         0.2668
     12 C9          4.2671   -1.6561   -5.0705 C.ar      1 <0>        -0.2343
     13 C10         4.8856   -1.9960   -6.2603 C.ar      1 <0>         0.1440
     14 N1          4.1519   -2.1451   -7.3520 N.ar      1 <0>        -0.5299
     15 C11         2.8384   -1.9736   -7.3196 C.ar      1 <0>         0.5822
     16 N2          2.2061   -1.6535   -6.2015 N.ar      1 <0>        -0.5406
     17 N3          2.1079   -2.1385   -8.4837 N.pl3     1 <0>        -0.6865
     18 C12         2.7880   -2.4982   -9.7305 C.3       1 <0>         0.1359
     19 C13         1.7592   -2.6174  -10.8566 C.3       1 <0>        -0.0994
     20 C14         0.8125   -3.7825  -10.5613 C.3       1 <0>        -0.1159
     21 C15        -0.2163   -3.9018  -11.6874 C.3       1 <0>        -0.1201
     22 C16         0.5052   -4.1542  -13.0128 C.3       1 <0>        -0.1220
     23 C17         1.4518   -2.9891  -13.3081 C.3       1 <0>        -0.1190
     24 C18         2.4807   -2.8699  -12.1820 C.3       1 <0>        -0.1109
     25 C19         6.3786   -2.1940   -6.3131 C.3       1 <0>         0.5255
     26 F1          6.6811   -3.5338   -6.0472 F         1 <0>        -0.1637
     27 F2          6.8494   -1.8534   -7.5857 F         1 <0>        -0.1586
     28 F3          6.9913   -1.3786   -5.3556 F         1 <0>        -0.1643
     29 H1          1.0001    2.1870    0.0043 H         1 <0>         0.1327
     30 H2         -0.5497    2.1708   -0.8711 H         1 <0>         0.1324
     31 H3         -0.5327    2.1613    0.9088 H         1 <0>         0.1352
     32 H4         -0.9408   -0.4834   -2.6571 H         1 <0>         0.1497
     33 H5          0.2284   -1.0875   -4.7356 H         1 <0>         0.1478
     34 H6          3.9572   -1.0677   -2.6240 H         1 <0>         0.1424
     35 H7          2.7724   -0.4538   -0.5572 H         1 <0>         0.1514
     36 H8          4.8424   -1.5281   -4.1655 H         1 <0>         0.1622
     37 H9          1.1457   -2.0160   -8.4741 H         1 <0>         0.4185
     38 H10         3.5155   -1.7268   -9.9831 H         1 <0>         0.0727
     39 H11         3.2995   -3.4522   -9.6032 H         1 <0>         0.0723
     40 H12         1.1866   -1.6924  -10.9251 H         1 <0>         0.0787
     41 H13         1.3851   -4.7075  -10.4928 H         1 <0>         0.0657
     42 H14         0.2985   -3.6027   -9.6171 H         1 <0>         0.0607
     43 H15        -0.8907   -4.7318  -11.4770 H         1 <0>         0.0630
     44 H16        -0.7889   -2.9768  -11.7559 H         1 <0>         0.0621
     45 H17         1.0778   -5.0792  -12.9443 H         1 <0>         0.0623
     46 H18        -0.2278   -4.2392  -13.8150 H         1 <0>         0.0622
     47 H19         1.9659   -3.1690  -14.2523 H         1 <0>         0.0648
     48 H20         0.8793   -2.0641  -13.3766 H         1 <0>         0.0623
     49 H21         3.1551   -2.0398  -12.3924 H         1 <0>         0.0666
     50 H22         3.0533   -3.7948  -12.1135 H         1 <0>         0.0672
@<TRIPOS>BOND
     1    1    2 1
     2    1   29 1
     3    1   30 1
     4    1   31 1
     5    2    3 2
     6    2    4 2
     7    2    5 1
     8    5   10 ar
     9    5    6 ar
    10    6    7 ar
    11    6   32 1
    12    7    8 ar
    13    7   33 1
    14    8    9 ar
    15    8   11 1
    16    9   10 ar
    17    9   34 1
    18   10   35 1
    19   11   16 ar
    20   11   12 ar
    21   12   13 ar
    22   12   36 1
    23   13   14 ar
    24   13   25 1
    25   14   15 ar
    26   15   16 ar
    27   15   17 1
    28   17   18 1
    29   17   37 1
    30   18   19 1
    31   18   38 1
    32   18   39 1
    33   19   24 1
    34   19   20 1
    35   19   40 1
    36   20   21 1
    37   20   41 1
    38   20   42 1
    39   21   22 1
    40   21   43 1
    41   21   44 1
    42   22   23 1
    43   22   45 1
    44   22   46 1
    45   23   24 1
    46   23   47 1
    47   23   48 1
    48   24   49 1
    49   24   50 1
    50   25   26 1
    51   25   27 1
    52   25   28 1
@<TRIPOS>MOLECULE
CHEMBL421608
   49    51     0     0     0
SMALL
USER_CHARGES

@<TRIPOS>ATOM
      1 C1         -0.0187    1.5258    0.0104 C.3       1 <0>        -0.1601
      2 C2          0.0021   -0.0041    0.0020 C.3       1 <0>         0.0642
      3 C3          0.8512   -0.5399   -1.1753 C.3       1 <0>        -0.1428
      4 C4          2.2131   -0.7366   -0.5369 C.2       1 <0>         0.1321
      5 N1          2.0665   -0.7086    0.7459 N.2       1 <0>        -0.2894
      6 O1          0.7226   -0.5167    1.1411 O.3       1 <0>        -0.1877
      7 C5          3.4862   -0.9275   -1.2576 C.ar      1 <0>        -0.0732
      8 C6          4.6779   -1.1046   -0.5482 C.ar      1 <0>        -0.0290
      9 C7          5.8581   -1.2829   -1.2277 C.ar      1 <0>        -0.1649
     10 C8          5.8875   -1.2967   -2.6188 C.ar      1 <0>         0.1399
     11 C9          4.6985   -1.1150   -3.3246 C.ar      1 <0>        -0.0919
     12 C10         3.5100   -0.9385   -2.6541 C.ar      1 <0>        -0.0537
     13 C11         4.7145   -1.1178   -4.8315 C.3       1 <0>        -0.0217
     14 C12         3.2941   -0.9006   -5.3571 C.3       1 <0>        -0.1478
     15 C13         5.6217    0.0071   -5.3339 C.3       1 <0>        -0.1414
     16 C14         5.2440   -2.4626   -5.3334 C.3       1 <0>        -0.1414
     17 O2          7.1498   -1.5092   -3.0813 O.3       1 <0>        -0.2922
     18 C15         8.0935   -1.2059   -2.0402 C.3       1 <0>         0.0545
     19 C16         7.2841   -1.4842   -0.7516 C.3       1 <0>        -0.0512
     20 C17         7.6410   -0.4798    0.3459 C.3       1 <0>        -0.1381
     21 C18         7.5018   -2.9194   -0.2684 C.3       1 <0>        -0.1363
     22 C19        -1.4194   -0.5679   -0.0458 C.3       1 <0>        -0.1408
     23 H1          1.0039    1.9031    0.0027 H         1 <0>         0.0600
     24 H2         -0.5459    1.8868   -0.8726 H         1 <0>         0.0739
     25 H3         -0.5289    1.8773    0.9072 H         1 <0>         0.0718
     26 H4          0.4539   -1.4875   -1.5391 H         1 <0>         0.1053
     27 H5          0.9033    0.1934   -1.9800 H         1 <0>         0.1035
     28 H6          4.6704   -1.1009    0.5318 H         1 <0>         0.1330
     29 H7          2.5934   -0.8039   -3.2092 H         1 <0>         0.1416
     30 H8          2.9169    0.0575   -4.9995 H         1 <0>         0.0590
     31 H9          3.3057   -0.9026   -6.4470 H         1 <0>         0.0623
     32 H10         2.6478   -1.7020   -4.9991 H         1 <0>         0.0593
     33 H11         6.6337   -0.1475   -4.9595 H         1 <0>         0.0638
     34 H12         5.6333    0.0051   -6.4239 H         1 <0>         0.0594
     35 H13         5.2445    0.9652   -4.9764 H         1 <0>         0.0538
     36 H14         4.5977   -3.2640   -4.9755 H         1 <0>         0.0540
     37 H15         5.2556   -2.4646   -6.4233 H         1 <0>         0.0590
     38 H16         6.2559   -2.6173   -4.9590 H         1 <0>         0.0652
     39 H17         8.9604   -1.8638   -2.1013 H         1 <0>         0.1094
     40 H18         8.3972   -0.1601   -2.0871 H         1 <0>         0.0808
     41 H19         6.9674   -0.6121    1.1926 H         1 <0>         0.0652
     42 H20         8.6685   -0.6454    0.6698 H         1 <0>         0.0654
     43 H21         7.5415    0.5337   -0.0427 H         1 <0>         0.0608
     44 H22         7.3048   -3.6121   -1.0867 H         1 <0>         0.0609
     45 H23         8.5320   -3.0374    0.0675 H         1 <0>         0.0659
     46 H24         6.8236   -3.1313    0.5581 H         1 <0>         0.0642
     47 H25        -1.9143   -0.2290   -0.9560 H         1 <0>         0.0767
     48 H26        -1.3787   -1.6571   -0.0384 H         1 <0>         0.0670
     49 H27        -1.9780   -0.2193    0.8228 H         1 <0>         0.0719
@<TRIPOS>BOND
     1    1    2 1
     2    1   23 1
     3    1   24 1
     4    1   25 1
     5    2    6 1
     6    2    3 1
     7    2   22 1
     8    3    4 1
     9    3   26 1
    10    3   27 1
    11    4    5 2
    12    4    7 1
    13    5    6 1
    14    7   12 ar
    15    7    8 ar
    16    8    9 ar
    17    8   28 1
    18    9   19 1
    19    9   10 ar
    20   10   11 ar
    21   10   17 1
    22   11   12 ar
    23   11   13 1
    24   12   29 1
    25   13   14 1
    26   13   15 1
    27   13   16 1
    28   14   30 1
    29   14   31 1
    30   14   32 1
    31   15   33 1
    32   15   34 1
    33   15   35 1
    34   16   36 1
    35   16   37 1
    36   16   38 1
    37   17   18 1
    38   18   19 1
    39   18   39 1
    40   18   40 1
    41   19   20 1
    42   19   21 1
    43   20   41 1
    44   20   42 1
    45   20   43 1
    46   21   44 1
    47   21   45 1
    48   21   46 1
    49   22   47 1
    50   22   48 1
    51   22   49 1
@<TRIPOS>MOLECULE
CHEMBL80405
   42    45     0     0     0
SMALL
USER_CHARGES

@<TRIPOS>ATOM
      1 C1         -0.0167    1.3802    0.0096 C.ar      1 <0>        -0.1085
      2 C2          1.1707    2.0908    0.0021 C.ar      1 <0>        -0.1197
      3 C3          2.3792    1.4272   -0.0135 C.ar      1 <0>        -0.0899
      4 C4          2.4072    0.0298   -0.0213 C.ar      1 <0>        -0.0674
      5 C5          1.2034   -0.6761   -0.0131 C.ar      1 <0>        -0.0926
      6 C6          0.0021   -0.0041    0.0020 C.ar      1 <0>        -0.1006
      7 C7          1.5571   -2.1432   -0.0245 C.3       1 <0>        -0.0498
      8 C8          3.0666   -2.2004   -0.0398 C.2       1 <0>        -0.0919
      9 C9          3.5299   -0.9297   -0.0376 C.2       1 <0>        -0.0222
     10 C10         4.9609   -0.5535   -0.0498 C.ar      1 <0>        -0.0522
     11 C11         5.7800   -0.8803    1.0319 C.ar      1 <0>        -0.0711
     12 C12         7.1131   -0.5273    1.0155 C.ar      1 <0>        -0.1515
     13 C13         7.6395    0.1511   -0.0724 C.ar      1 <0>         0.1036
     14 C14         6.8304    0.4781   -1.1490 C.ar      1 <0>        -0.1509
     15 C15         5.4974    0.1243   -1.1455 C.ar      1 <0>        -0.0734
     16 F1          8.9459    0.4954   -0.0831 F         1 <0>        -0.1372
     17 C16         3.8868   -3.4210   -0.0536 C.ar      1 <0>         0.0338
     18 C17         4.6970   -3.7113   -1.1564 C.ar      1 <0>        -0.1207
     19 C18         5.4630   -4.8578   -1.1616 C.ar      1 <0>        -0.0141
     20 C19         5.4317   -5.7203   -0.0796 C.ar      1 <0>        -0.6750
     21 C20         4.6328   -5.4402    1.0154 C.ar      1 <0>        -0.0149
     22 C21         3.8653   -4.2949    1.0385 C.ar      1 <0>        -0.1271
     23 S1          6.4139   -7.1830   -0.0964 S.o2      1 <0>         2.7001
     24 O1          5.7942   -8.0986    0.7963 O.2       1 <0>        -0.9620
     25 O2          6.6548   -7.4949   -1.4616 O.2       1 <0>        -0.9620
     26 N1          7.8811   -6.7953    0.5665 N.pl3     1 <0>        -1.2497
     27 H1         -0.9597    1.9064    0.0260 H         1 <0>         0.1284
     28 H2          1.1507    3.1706    0.0081 H         1 <0>         0.1272
     29 H3          3.3031    1.9866   -0.0200 H         1 <0>         0.1224
     30 H4         -0.9258   -0.5567    0.0079 H         1 <0>         0.1260
     31 H5          1.1711   -2.6304    0.8709 H         1 <0>         0.1074
     32 H6          1.1534   -2.6207   -0.9173 H         1 <0>         0.1077
     33 H7          5.3706   -1.4084    1.8804 H         1 <0>         0.1320
     34 H8          7.7479   -0.7797    1.8520 H         1 <0>         0.1385
     35 H9          7.2455    1.0068   -1.9943 H         1 <0>         0.1392
     36 H10         4.8687    0.3755   -1.9869 H         1 <0>         0.1346
     37 H11         4.7222   -3.0395   -2.0016 H         1 <0>         0.1351
     38 H12         6.0887   -5.0836   -2.0124 H         1 <0>         0.1458
     39 H13         4.6139   -6.1182    1.8558 H         1 <0>         0.1466
     40 H14         3.2458   -4.0755    1.8955 H         1 <0>         0.1374
     41 H15         8.0509   -5.8908    0.8731 H         1 <0>         0.4168
     42 H16         8.5706   -7.4726    0.6482 H         1 <0>         0.4219
@<TRIPOS>BOND
     1    1    6 ar
     2    1    2 ar
     3    1   27 1
     4    2    3 ar
     5    2   28 1
     6    3    4 ar
     7    3   29 1
     8    4    9 1
     9    4    5 ar
    10    5    6 ar
    11    5    7 1
    12    6   30 1
    13    7    8 1
    14    7   31 1
    15    7   32 1
    16    8    9 2
    17    8   17 1
    18    9   10 1
    19   10   15 ar
    20   10   11 ar
    21   11   12 ar
    22   11   33 1
    23   12   13 ar
    24   12   34 1
    25   13   14 ar
    26   13   16 1
    27   14   15 ar
    28   14   35 1
    29   15   36 1
    30   17   22 ar
    31   17   18 ar
    32   18   19 ar
    33   18   37 1
    34   19   20 ar
    35   19   38 1
    36   20   21 ar
    37   20   23 1
    38   21   22 ar
    39   21   39 1
    40   22   40 1
    41   23   24 2
    42   23   25 2
    43   23   26 1
    44   26   41 1
    45   26   42 1
@<TRIPOS>MOLECULE
CHEMBL62101
   40    44     0     0     0
SMALL
USER_CHARGES

@<TRIPOS>ATOM
      1 C1         -0.0360    1.3920    0.0608 C.ar      1 <0>        -0.0928
      2 C2          1.1357    2.1261    0.0617 C.ar      1 <0>        -0.1079
      3 C3          2.3563    1.4663    0.0444 C.ar      1 <0>        -0.0638
      4 C4          2.3736    0.0924    0.0273 C.ar      1 <0>        -0.0997
      5 C5          1.2036   -0.6689    0.0265 C.ar      1 <0>         0.1303
      6 C6         -0.0124    0.0113    0.0431 C.ar      1 <0>        -0.1342
      7 N1          1.1721   -2.0805    0.0118 N.am      1 <0>        -0.4934
      8 C7          2.2606   -2.9284    0.0038 C.ar      1 <0>         0.1181
      9 C8          1.9224   -4.2675   -0.0018 C.ar      1 <0>        -0.0957
     10 C9          2.9122   -5.2258   -0.0070 C.ar      1 <0>        -0.0390
     11 C10         4.2488   -4.8588   -0.0090 C.ar      1 <0>        -0.1101
     12 C11         4.6027   -3.5135   -0.0058 C.ar      1 <0>        -0.0454
     13 C12         3.6064   -2.5724    0.0005 C.ar      1 <0>        -0.1018
     14 S1          3.9032   -0.8197    0.0061 S.3       1 <0>        -0.0186
     15 C13         0.4146   -4.2880   -0.0022 C.3       1 <0>        -0.0938
     16 C14         0.0235   -2.8272    0.0041 C.2       1 <0>         0.5382
     17 O1         -1.1092   -2.3925    0.0031 O.2       1 <0>        -0.4601
     18 C15        -0.1039   -4.9780    1.2332 C.2       1 <0>         0.5410
     19 O2          0.6738   -5.4202    2.0523 O.2       1 <0>        -0.4874
     20 N2         -1.4315   -5.1038    1.4278 N.am      1 <0>        -0.6604
     21 C16        -1.9132   -5.8261    2.5280 C.ar      1 <0>         0.1018
     22 C17        -1.2230   -5.8012    3.7318 C.ar      1 <0>        -0.0648
     23 C18        -1.6991   -6.5138    4.8153 C.ar      1 <0>        -0.1412
     24 C19        -2.8644   -7.2533    4.7020 C.ar      1 <0>         0.1212
     25 C20        -3.5555   -7.2810    3.5026 C.ar      1 <0>        -0.1718
     26 C21        -3.0861   -6.5642    2.4169 C.ar      1 <0>         0.1100
     27 F1         -3.7634   -6.5861    1.2481 F         1 <0>        -0.1255
     28 F2         -3.3275   -7.9491    5.7634 F         1 <0>        -0.1276
     29 H1         -0.9852    1.9068    0.0788 H         1 <0>         0.1363
     30 H2          1.1011    3.2054    0.0753 H         1 <0>         0.1407
     31 H3          3.2804    2.0253    0.0441 H         1 <0>         0.1454
     32 H4         -0.9393   -0.5430    0.0426 H         1 <0>         0.1620
     33 H5          2.6444   -6.2721   -0.0093 H         1 <0>         0.1400
     34 H6          5.0166   -5.6183   -0.0126 H         1 <0>         0.1468
     35 H7          5.6411   -3.2168   -0.0079 H         1 <0>         0.1492
     36 H8          0.0400   -4.7792   -0.9003 H         1 <0>         0.1662
     37 H9         -2.0538   -4.6944    0.8064 H         1 <0>         0.4227
     38 H10        -0.3138   -5.2252    3.8214 H         1 <0>         0.1590
     39 H11        -1.1615   -6.4945    5.7518 H         1 <0>         0.1499
     40 H12        -4.4640   -7.8586    3.4163 H         1 <0>         0.1560
@<TRIPOS>BOND
     1    1    6 ar
     2    1    2 ar
     3    1   29 1
     4    2    3 ar
     5    2   30 1
     6    3    4 ar
     7    3   31 1
     8    4   14 1
     9    4    5 ar
    10    5    6 ar
    11    5    7 1
    12    6   32 1
    13    7   16 am
    14    7    8 1
    15    8   13 ar
    16    8    9 ar
    17    9   10 ar
    18    9   15 1
    19   10   11 ar
    20   10   33 1
    21   11   12 ar
    22   11   34 1
    23   12   13 ar
    24   12   35 1
    25   13   14 1
    26   15   16 1
    27   15   18 1
    28   15   36 1
    29   16   17 2
    30   18   19 2
    31   18   20 am
    32   20   21 1
    33   20   37 1
    34   21   26 ar
    35   21   22 ar
    36   22   23 ar
    37   22   38 1
    38   23   24 ar
    39   23   39 1
    40   24   25 ar
    41   24   28 1
    42   25   26 ar
    43   25   40 1
    44   26   27 1
@<TRIPOS>MOLECULE
CHEMBL62101__1
   39    43     0     0     0
SMALL
USER_CHARGES

@<TRIPOS>ATOM
      1 C1         -0.0772    1.3843    0.0077 C.ar      1 <0>        -0.0993
      2 C2          1.0912    2.1234    0.0016 C.ar      1 <0>        -0.1356
      3 C3          2.3145    1.4693   -0.0104 C.ar      1 <0>        -0.0726
      4 C4          2.3393    0.0953   -0.0163 C.ar      1 <0>        -0.1118
      5 C5          1.1710   -0.6716   -0.0125 C.ar      1 <0>         0.1653
      6 C6         -0.0473    0.0037    0.0007 C.ar      1 <0>        -0.1396
      7 N1          1.1501   -2.0816   -0.0211 N.pl3     1 <0>        -0.4625
      8 C7          2.2400   -2.9067   -0.0271 C.ar      1 <0>         0.0454
      9 C8          1.8662   -4.2491   -0.0324 C.ar      1 <0>         0.0214
     10 C9          2.8635   -5.2229   -0.0367 C.ar      1 <0>        -0.1144
     11 C10         4.1954   -4.8579   -0.0364 C.ar      1 <0>        -0.1143
     12 C11         4.5678   -3.5124   -0.0330 C.ar      1 <0>        -0.1152
     13 C12         3.5854   -2.5605   -0.0293 C.ar      1 <0>        -0.0772
     14 S1          3.8764   -0.8067   -0.0288 S.3       1 <0>        -0.0647
     15 C13         0.3946   -4.2207   -0.0319 C.2       1 <0>        -0.4361
     16 C14         0.0271   -2.8833   -0.0250 C.2       1 <0>         0.4765
     17 O1         -1.2472   -2.4307   -0.0228 O.3       1 <0>        -0.6672
     18 C15        -0.5030   -5.3748   -0.0383 C.2       1 <0>         0.6496
     19 O2         -0.8765   -5.8615    1.0137 O.2       1 <0>        -0.5342
     20 N2         -0.9170   -5.9001   -1.2084 N.am      1 <0>        -0.6686
     21 C16        -1.7006   -7.0615   -1.2167 C.ar      1 <0>         0.1281
     22 C17        -2.6239   -7.2843   -0.2046 C.ar      1 <0>        -0.0716
     23 C18        -3.3957   -8.4300   -0.2143 C.ar      1 <0>        -0.1401
     24 C19        -3.2495   -9.3569   -1.2327 C.ar      1 <0>         0.0964
     25 C20        -2.3295   -9.1383   -2.2440 C.ar      1 <0>        -0.1720
     26 C21        -1.5585   -7.9900   -2.2418 C.ar      1 <0>         0.0901
     27 F1         -0.6647   -7.7735   -3.2315 F         1 <0>        -0.1300
     28 F2         -4.0054  -10.4766   -1.2391 F         1 <0>        -0.1378
     29 H1         -1.0287    1.8949    0.0226 H         1 <0>         0.1250
     30 H2          1.0518    3.2027    0.0057 H         1 <0>         0.1278
     31 H3          3.2358    2.0329   -0.0153 H         1 <0>         0.1334
     32 H4         -0.9718   -0.5545    0.0056 H         1 <0>         0.1752
     33 H5          2.5932   -6.2685   -0.0398 H         1 <0>         0.1154
     34 H6          4.9582   -5.6225   -0.0384 H         1 <0>         0.1215
     35 H7          5.6099   -3.2289   -0.0329 H         1 <0>         0.1267
     36 H8         -0.6724   -5.4741   -2.0448 H         1 <0>         0.4140
     37 H9         -2.7387   -6.5624    0.5904 H         1 <0>         0.1625
     38 H10        -4.1138   -8.6032    0.5736 H         1 <0>         0.1432
     39 H11        -2.2170   -9.8624   -3.0373 H         1 <0>         0.1474
@<TRIPOS>BOND
     1    1    6 ar
     2    1    2 ar
     3    1   29 1
     4    2    3 ar
     5    2   30 1
     6    3    4 ar
     7    3   31 1
     8    4   14 1
     9    4    5 ar
    10    5    6 ar
    11    5    7 1
    12    6   32 1
    13    7   16 1
    14    7    8 1
    15    8   13 ar
    16    8    9 ar
    17    9   10 ar
    18    9   15 1
    19   10   11 ar
    20   10   33 1
    21   11   12 ar
    22   11   34 1
    23   12   13 ar
    24   12   35 1
    25   13   14 1
    26   15   16 2
    27   15   18 1
    28   16   17 1
    29   18   19 2
    30   18   20 am
    31   20   21 1
    32   20   36 1
    33   21   26 ar
    34   21   22 ar
    35   22   23 ar
    36   22   37 1
    37   23   24 ar
    38   23   38 1
    39   24   25 ar
    40   24   28 1
    41   25   26 ar
    42   25   39 1
    43   26   27 1
@<TRIPOS>MOLECULE
CHEMBL62101__2
   40    44     0     0     0
SMALL
USER_CHARGES

@<TRIPOS>ATOM
      1 C1          0.0079    1.3605    0.0578 C.ar      1 <0>        -0.0926
      2 C2          1.1851    2.0855    0.0577 C.ar      1 <0>        -0.1081
      3 C3          2.4006    1.4165    0.0398 C.ar      1 <0>        -0.0638
      4 C4          2.4075    0.0425    0.0231 C.ar      1 <0>        -0.1001
      5 C5          1.2316   -0.7099    0.0233 C.ar      1 <0>         0.1306
      6 C6          0.0209   -0.0204    0.0405 C.ar      1 <0>        -0.1342
      7 N1          1.1894   -2.1212    0.0091 N.am      1 <0>        -0.4941
      8 C7          2.2713   -2.9774    0.0007 C.ar      1 <0>         0.1190
      9 C8          1.9229   -4.3139   -0.0043 C.ar      1 <0>        -0.0966
     10 C9          2.9053   -5.2797   -0.0099 C.ar      1 <0>        -0.0392
     11 C10         4.2447   -4.9229   -0.0128 C.ar      1 <0>        -0.1107
     12 C11         4.6088   -3.5804   -0.0103 C.ar      1 <0>        -0.0455
     13 C12         3.6198   -2.6318   -0.0036 C.ar      1 <0>        -0.1019
     14 S1          3.9299   -0.8813    0.0012 S.3       1 <0>        -0.0189
     15 C13         0.4149   -4.3228   -0.0037 C.3       1 <0>        -0.0934
     16 C14         0.0351   -2.8591    0.0024 C.2       1 <0>         0.5377
     17 O1         -1.0943   -2.4158    0.0021 O.2       1 <0>        -0.4569
     18 C15        -0.1089   -4.9984   -1.2447 C.2       1 <0>         0.5407
     19 O2          0.6652   -5.4396   -2.0677 O.2       1 <0>        -0.4876
     20 N2         -1.4375   -5.1125   -1.4402 N.am      1 <0>        -0.6595
     21 C16        -1.9258   -5.6561   -2.6361 C.ar      1 <0>         0.0999
     22 C17        -1.2290   -6.6738   -3.2724 C.ar      1 <0>        -0.0644
     23 C18        -1.7117   -7.2086   -4.4512 C.ar      1 <0>        -0.1424
     24 C19        -2.8902   -6.7305   -4.9991 C.ar      1 <0>         0.1211
     25 C20        -3.5880   -5.7150   -4.3674 C.ar      1 <0>        -0.1730
     26 C21        -3.1120   -5.1807   -3.1838 C.ar      1 <0>         0.1103
     27 F1         -3.7956   -4.1940   -2.5640 F         1 <0>        -0.1238
     28 F2         -3.3597   -7.2555   -6.1520 F         1 <0>        -0.1278
     29 H1         -0.9374    1.8825    0.0763 H         1 <0>         0.1363
     30 H2          1.1588    3.1651    0.0710 H         1 <0>         0.1407
     31 H3          3.3290    1.9683    0.0387 H         1 <0>         0.1453
     32 H4         -0.9103   -0.5676    0.0408 H         1 <0>         0.1621
     33 H5          2.6295   -6.3239   -0.0116 H         1 <0>         0.1401
     34 H6          5.0066   -5.6883   -0.0167 H         1 <0>         0.1467
     35 H7          5.6495   -3.2917   -0.0132 H         1 <0>         0.1491
     36 H8          0.0368   -4.8188    0.8902 H         1 <0>         0.1659
     37 H9         -2.0558   -4.8182   -0.7531 H         1 <0>         0.4221
     38 H10        -0.3096   -7.0474   -2.8464 H         1 <0>         0.1614
     39 H11        -1.1690   -8.0003   -4.9463 H         1 <0>         0.1502
     40 H12        -4.5067   -5.3434   -4.7965 H         1 <0>         0.1555
@<TRIPOS>BOND
     1    1    6 ar
     2    1    2 ar
     3    1   29 1
     4    2    3 ar
     5    2   30 1
     6    3    4 ar
     7    3   31 1
     8    4   14 1
     9    4    5 ar
    10    5    6 ar
    11    5    7 1
    12    6   32 1
    13    7   16 am
    14    7    8 1
    15    8   13 ar
    16    8    9 ar
    17    9   10 ar
    18    9   15 1
    19   10   11 ar
    20   10   33 1
    21   11   12 ar
    22   11   34 1
    23   12   13 ar
    24   12   35 1
    25   13   14 1
    26   15   16 1
    27   15   18 1
    28   15   36 1
    29   16   17 2
    30   18   19 2
    31   18   20 am
    32   20   21 1
    33   20   37 1
    34   21   26 ar
    35   21   22 ar
    36   22   23 ar
    37   22   38 1
    38   23   24 ar
    39   23   39 1
    40   24   25 ar
    41   24   28 1
    42   25   26 ar
    43   25   40 1
    44   26   27 1
@<TRIPOS>MOLECULE
CHEMBL28155
   57    62     0     0     0
SMALL
USER_CHARGES

@<TRIPOS>ATOM
      1 C1         -0.0182    1.5027    0.0102 C.3       1 <0>        -0.1085
      2 C2          0.0021   -0.0042    0.0020 C.2       1 <0>         0.1159
      3 C3          0.0074   -0.7679   -1.0995 C.2       1 <0>        -0.1577
      4 C4          0.0293   -2.1662   -0.6567 C.ar      1 <0>        -0.0376
      5 C5          0.0428   -3.3917   -1.3243 C.ar      1 <0>        -0.1033
      6 C6          0.0625   -4.5656   -0.5961 C.ar      1 <0>         0.1139
      7 C7          0.0688   -4.5275    0.7953 C.ar      1 <0>        -0.1733
      8 C8          0.0551   -3.3226    1.4635 C.ar      1 <0>        -0.0850
      9 C9          0.0357   -2.1316    0.7482 C.ar      1 <0>         0.0752
     10 N1          0.0240   -0.7990    1.1223 N.am      1 <0>        -0.5040
     11 C10         0.0297   -0.3494    2.3928 C.2       1 <0>         0.6014
     12 O1         -1.0174   -0.0751    2.9450 O.2       1 <0>        -0.4254
     13 C11         1.3084   -0.1902    3.1139 C.ar      1 <0>        -0.1644
     14 C12         2.5190   -0.3985    2.4491 C.ar      1 <0>        -0.0444
     15 C13         3.7097   -0.2483    3.1279 C.ar      1 <0>        -0.1207
     16 C14         3.7070    0.1084    4.4664 C.ar      1 <0>         0.0043
     17 C15         2.5096    0.3160    5.1314 C.ar      1 <0>        -0.1216
     18 C16         1.3125    0.1750    4.4621 C.ar      1 <0>        -0.0373
     19 Cl1         5.2103    0.2955    5.3141 Cl        1 <0>        -0.0505
     20 O2          0.0753   -5.7626   -1.2410 O.3       1 <0>        -0.3137
     21 C17         0.0954   -6.9375   -0.4278 C.3       1 <0>         0.0271
     22 C18        -0.0069   -0.2812   -2.5257 C.3       1 <0>         0.0429
     23 C19         1.4090   -0.0991   -3.0085 C.2       1 <0>         0.0743
     24 N2          2.1801   -0.9716   -3.6047 N.2       1 <0>        -0.4997
     25 C20         3.4146   -0.6620   -3.9739 C.2       1 <0>         0.1235
     26 C21         3.8333    0.6120   -3.6984 C.2       1 <0>        -0.2281
     27 S1          2.3727    1.2772   -2.9161 S.3       1 <0>         0.1121
     28 C22         4.2968   -1.6445   -4.6500 C.2       1 <0>        -0.0326
     29 C23         5.5546   -1.3045   -5.0110 C.2       1 <0>        -0.1488
     30 S2          6.1875   -2.7899   -5.7656 S.3       1 <0>         0.0419
     31 C24         4.7603   -3.8275   -5.5816 C.ar      1 <0>        -0.1155
     32 C25         3.8226   -2.9985   -4.9317 C.ar      1 <0>        -0.0750
     33 C26         2.5629   -3.5703   -4.6437 C.ar      1 <0>        -0.0584
     34 C27         2.2906   -4.8598   -4.9803 C.ar      1 <0>        -0.1269
     35 C28         3.2323   -5.6575   -5.6154 C.ar      1 <0>        -0.0913
     36 C29         4.4718   -5.1318   -5.9231 C.ar      1 <0>        -0.0865
     37 H1          1.0044    1.8799    0.0025 H         1 <0>         0.0869
     38 H2         -0.5453    1.8638   -0.8729 H         1 <0>         0.0953
     39 H3         -0.5284    1.8543    0.9070 H         1 <0>         0.0737
     40 H4          0.0376   -3.4222   -2.4038 H         1 <0>         0.1361
     41 H5          0.0842   -5.4504    1.3560 H         1 <0>         0.1354
     42 H6          0.0595   -3.3039    2.5434 H         1 <0>         0.1221
     43 H7          2.5224   -0.6770    1.4056 H         1 <0>         0.1395
     44 H8          4.6464   -0.4095    2.6151 H         1 <0>         0.1445
     45 H9          2.5140    0.5936    6.1751 H         1 <0>         0.1472
     46 H10         0.3798    0.3418    4.9804 H         1 <0>         0.1484
     47 H11         0.1040   -7.8210   -1.0660 H         1 <0>         0.1009
     48 H12         0.9887   -6.9318    0.1968 H         1 <0>         0.0545
     49 H13        -0.7911   -6.9558    0.2062 H         1 <0>         0.0550
     50 H14        -0.5139   -1.0132   -3.1543 H         1 <0>         0.1105
     51 H15        -0.5343    0.6712   -2.5793 H         1 <0>         0.1024
     52 H16         4.7828    1.0849   -3.9016 H         1 <0>         0.1957
     53 H17         6.0564   -0.3579   -4.8747 H         1 <0>         0.1900
     54 H18         1.8076   -2.9767   -4.1501 H         1 <0>         0.1503
     55 H19         1.3199   -5.2724   -4.7479 H         1 <0>         0.1273
     56 H20         2.9951   -6.6789   -5.8737 H         1 <0>         0.1324
     57 H21         5.2138   -5.7417   -6.4168 H         1 <0>         0.1298
@<TRIPOS>BOND
     1    1    2 1
     2    1   37 1
     3    1   38 1
     4    1   39 1
     5    2   10 1
     6    2    3 2
     7    3    4 1
     8    3   22 1
     9    4    9 ar
    10    4    5 ar
    11    5    6 ar
    12    5   40 1
    13    6    7 ar
    14    6   20 1
    15    7    8 ar
    16    7   41 1
    17    8    9 ar
    18    8   42 1
    19    9   10 1
    20   10   11 am
    21   11   12 2
    22   11   13 1
    23   13   18 ar
    24   13   14 ar
    25   14   15 ar
    26   14   43 1
    27   15   16 ar
    28   15   44 1
    29   16   17 ar
    30   16   19 1
    31   17   18 ar
    32   17   45 1
    33   18   46 1
    34   20   21 1
    35   21   47 1
    36   21   48 1
    37   21   49 1
    38   22   23 1
    39   22   50 1
    40   22   51 1
    41   23   27 1
    42   23   24 2
    43   24   25 1
    44   25   26 2
    45   25   28 1
    46   26   27 1
    47   26   52 1
    48   28   32 1
    49   28   29 2
    50   29   30 1
    51   29   53 1
    52   30   31 1
    53   31   36 ar
    54   31   32 ar
    55   32   33 ar
    56   33   34 ar
    57   33   54 1
    58   34   35 ar
    59   34   55 1
    60   35   36 ar
    61   35   56 1
    62   36   57 1
@<TRIPOS>MOLECULE
CHEMBL35992
   35    37     0     0     0
SMALL
USER_CHARGES

@<TRIPOS>ATOM
      1 C1          0.1704    2.6243   -0.5447 C.3       1 <0>        -0.6354
      2 S1          0.1003    0.8417   -0.2158 S.o2      1 <0>         2.5253
      3 O1          0.9206    0.5169    0.8981 O.2       1 <0>        -1.0229
      4 O2         -1.2432    0.3839   -0.2840 O.2       1 <0>        -1.0206
      5 N1          0.8524    0.1396   -1.5134 N.2       1 <0>        -1.0586
      6 C2          0.9746   -1.2444   -1.5814 C.ar      1 <0>         0.3717
      7 C3          0.4606   -2.0384   -0.5633 C.ar      1 <0>        -0.2593
      8 C4          0.5781   -3.4117   -0.6229 C.ar      1 <0>         0.0241
      9 C5          1.2159   -4.0141   -1.7105 C.ar      1 <0>        -0.3136
     10 C6          1.7352   -3.2100   -2.7409 C.ar      1 <0>         0.0589
     11 C7          1.6098   -1.8378   -2.6774 C.ar      1 <0>        -0.2076
     12 S2          2.2550   -0.8326   -3.9728 S.3       1 <0>         0.0530
     13 C8          0.8279   -0.3412   -4.8821 C.ar      1 <0>         0.1335
     14 C9          0.9536    0.5792   -5.9186 C.ar      1 <0>        -0.1691
     15 C10        -0.1747    0.9559   -6.6237 C.ar      1 <0>        -0.0650
     16 C11        -1.3960    0.3978   -6.2680 C.ar      1 <0>        -0.2034
     17 C12        -1.4480   -0.5096   -5.2290 C.ar      1 <0>         0.1151
     18 N2         -0.3542   -0.8551   -4.5767 N.ar      1 <0>        -0.4655
     19 C13         1.2235   -5.4751   -1.5624 C.2       1 <0>         0.4156
     20 O3          1.7050   -6.2670   -2.3452 O.2       1 <0>        -0.4867
     21 C14         0.5294   -5.8212   -0.2677 C.3       1 <0>        -0.1681
     22 C15         0.1105   -4.4761    0.3413 C.3       1 <0>        -0.0858
     23 H1          1.2111    2.9381   -0.6259 H         1 <0>         0.1182
     24 H2         -0.3487    2.8422   -1.4780 H         1 <0>         0.1155
     25 H3         -0.3090    3.1636    0.2723 H         1 <0>         0.1035
     26 H4         -0.0332   -1.5778    0.2795 H         1 <0>         0.1102
     27 H5          2.2298   -3.6678   -3.5847 H         1 <0>         0.1188
     28 H6          1.9190    0.9938   -6.1685 H         1 <0>         0.1313
     29 H7         -0.1079    1.6683   -7.4327 H         1 <0>         0.1283
     30 H8         -2.2959    0.6714   -6.7987 H         1 <0>         0.1256
     31 H9         -2.3955   -0.9458   -4.9492 H         1 <0>         0.1478
     32 H10        -0.3485   -6.4370   -0.4629 H         1 <0>         0.0972
     33 H11         1.2152   -6.3412    0.4011 H         1 <0>         0.0976
     34 H12         0.5886   -4.3390    1.3112 H         1 <0>         0.0853
     35 H13        -0.9734   -4.4346    0.4482 H         1 <0>         0.0851
@<TRIPOS>BOND
     1    1    2 1
     2    1   23 1
     3    1   24 1
     4    1   25 1
     5    2    3 2
     6    2    4 2
     7    2    5 1
     8    5    6 1
     9    6   11 ar
    10    6    7 ar
    11    7    8 ar
    12    7   26 1
    13    8   22 1
    14    8    9 ar
    15    9   10 ar
    16    9   19 1
    17   10   11 ar
    18   10   27 1
    19   11   12 1
    20   12   13 1
    21   13   18 ar
    22   13   14 ar
    23   14   15 ar
    24   14   28 1
    25   15   16 ar
    26   15   29 1
    27   16   17 ar
    28   16   30 1
    29   17   18 ar
    30   17   31 1
    31   19   20 2
    32   19   21 1
    33   21   22 1
    34   21   32 1
    35   21   33 1
    36   22   34 1
    37   22   35 1
@<TRIPOS>MOLECULE
CHEMBL292324
   35    39     0     0     0
SMALL
USER_CHARGES

@<TRIPOS>ATOM
      1 C1         -0.0167    1.3767    0.0096 C.ar      1 <0>        -0.0991
      2 C2          1.1577    2.1063    0.0023 C.ar      1 <0>        -0.1354
      3 C3          2.3757    1.4423   -0.0117 C.ar      1 <0>        -0.0726
      4 C4          2.3894    0.0683   -0.0185 C.ar      1 <0>        -0.1116
      5 C5          1.2149   -0.6891   -0.0138 C.ar      1 <0>         0.1652
      6 C6          0.0021   -0.0041    0.0020 C.ar      1 <0>        -0.1395
      7 N1          1.1827   -2.0990   -0.0251 N.pl3     1 <0>        -0.4625
      8 C7          2.2656   -2.9328   -0.0357 C.ar      1 <0>         0.0464
      9 C8          1.8808   -4.2722   -0.0438 C.ar      1 <0>         0.0210
     10 C9          2.8703   -5.2541   -0.0537 C.ar      1 <0>        -0.1148
     11 C10         4.2051   -4.8998   -0.0556 C.ar      1 <0>        -0.1141
     12 C11         4.5884   -3.5576   -0.0486 C.ar      1 <0>        -0.1149
     13 C12         3.6137   -2.5978   -0.0403 C.ar      1 <0>        -0.0770
     14 S1          3.9191   -0.8461   -0.0346 S.3       1 <0>        -0.0646
     15 C13         0.4097   -4.2318   -0.0397 C.2       1 <0>        -0.4331
     16 C14         0.0529   -2.8913   -0.0279 C.2       1 <0>         0.4779
     17 O1         -1.2175   -2.4283   -0.0208 O.3       1 <0>        -0.6647
     18 C15        -0.4970   -5.3784   -0.0471 C.2       1 <0>         0.6380
     19 O2         -0.8720   -5.8649    1.0044 O.2       1 <0>        -0.4834
     20 N2         -0.9180   -5.8972   -1.2176 N.am      1 <0>        -0.6165
     21 C16        -1.7795   -6.9867   -1.2246 C.2       1 <0>         0.3071
     22 N3         -2.2886   -7.6330   -0.1979 N.2       1 <0>        -0.5351
     23 C17        -3.1009   -8.6592   -0.3726 C.2       1 <0>         0.0732
     24 C18        -3.3826   -9.0115   -1.6508 C.2       1 <0>        -0.2713
     25 S2         -2.4316   -7.7959   -2.5484 S.3       1 <0>         0.0706
     26 H1         -0.9640    1.8950    0.0260 H         1 <0>         0.1250
     27 H2          1.1271    3.1859    0.0071 H         1 <0>         0.1278
     28 H3          3.3015    1.9984   -0.0175 H         1 <0>         0.1335
     29 H4         -0.9269   -0.5548    0.0085 H         1 <0>         0.1751
     30 H5          2.5915   -6.2975   -0.0595 H         1 <0>         0.1157
     31 H6          4.9616   -5.6706   -0.0624 H         1 <0>         0.1217
     32 H7          5.6328   -3.2826   -0.0496 H         1 <0>         0.1269
     33 H8         -0.6193   -5.5096   -2.0552 H         1 <0>         0.4234
     34 H9         -3.5219   -9.1944    0.4657 H         1 <0>         0.1696
     35 H10        -4.0121   -9.8060   -2.0236 H         1 <0>         0.1924
@<TRIPOS>BOND
     1    1    6 ar
     2    1    2 ar
     3    1   26 1
     4    2    3 ar
     5    2   27 1
     6    3    4 ar
     7    3   28 1
     8    4   14 1
     9    4    5 ar
    10    5    6 ar
    11    5    7 1
    12    6   29 1
    13    7   16 1
    14    7    8 1
    15    8   13 ar
    16    8    9 ar
    17    9   10 ar
    18    9   15 1
    19   10   11 ar
    20   10   30 1
    21   11   12 ar
    22   11   31 1
    23   12   13 ar
    24   12   32 1
    25   13   14 1
    26   15   16 2
    27   15   18 1
    28   16   17 1
    29   18   19 2
    30   18   20 am
    31   20   21 1
    32   20   33 1
    33   21   25 1
    34   21   22 2
    35   22   23 1
    36   23   24 2
    37   23   34 1
    38   24   25 1
    39   24   35 1
@<TRIPOS>MOLECULE
CHEMBL292324__1
   36    40     0     0     0
SMALL
USER_CHARGES

@<TRIPOS>ATOM
      1 C1         -0.0167    1.3769    0.0096 C.ar      1 <0>        -0.0930
      2 C2          1.1575    2.1068    0.0023 C.ar      1 <0>        -0.1081
      3 C3          2.3758    1.4427   -0.0129 C.ar      1 <0>        -0.0638
      4 C4          2.3883    0.0687   -0.0199 C.ar      1 <0>        -0.0996
      5 C5          1.2156   -0.6886   -0.0124 C.ar      1 <0>         0.1305
      6 C6          0.0021   -0.0041    0.0020 C.ar      1 <0>        -0.1342
      7 N1          1.1793   -2.1001   -0.0165 N.am      1 <0>        -0.4930
      8 C7          2.2648   -2.9519   -0.0208 C.ar      1 <0>         0.1185
      9 C8          1.9219   -4.2898   -0.0157 C.ar      1 <0>        -0.0965
     10 C9          2.9084   -5.2515   -0.0161 C.ar      1 <0>        -0.0383
     11 C10         4.2462   -4.8892   -0.0239 C.ar      1 <0>        -0.1097
     12 C11         4.6048   -3.5452   -0.0315 C.ar      1 <0>        -0.0449
     13 C12         3.6118   -2.6006   -0.0298 C.ar      1 <0>        -0.1020
     14 S1          3.9146   -0.8489   -0.0379 S.3       1 <0>        -0.0184
     15 C13         0.4140   -4.3050   -0.0125 C.3       1 <0>        -0.0907
     16 C14         0.0281   -2.8428   -0.0161 C.2       1 <0>         0.5390
     17 O1         -1.1031   -2.4042   -0.0176 O.2       1 <0>        -0.4615
     18 C15        -0.1039   -4.9841    1.2292 C.2       1 <0>         0.5314
     19 O2          0.6740   -5.4228    2.0497 O.2       1 <0>        -0.4376
     20 N2         -1.4315   -5.1038    1.4278 N.am      1 <0>        -0.6156
     21 C16        -1.9093   -5.7302    2.5730 C.2       1 <0>         0.2662
     22 N3         -1.2224   -6.2558    3.5642 N.2       1 <0>        -0.5210
     23 C17        -1.8299   -6.8203    4.5913 C.2       1 <0>         0.0616
     24 C18        -3.1855   -6.8318    4.5752 C.2       1 <0>        -0.2409
     25 S2         -3.5069   -5.9937    3.0318 S.3       1 <0>         0.1216
     26 H1         -0.9641    1.8951    0.0260 H         1 <0>         0.1363
     27 H2          1.1267    3.1863    0.0081 H         1 <0>         0.1407
     28 H3          3.3018    1.9984   -0.0195 H         1 <0>         0.1454
     29 H4         -0.9268   -0.5551    0.0078 H         1 <0>         0.1621
     30 H5          2.6369   -6.2968   -0.0100 H         1 <0>         0.1403
     31 H6          5.0114   -5.6514   -0.0237 H         1 <0>         0.1471
     32 H7          5.6442   -3.2521   -0.0382 H         1 <0>         0.1495
     33 H8          0.0357   -4.8016   -0.9060 H         1 <0>         0.1672
     34 H9         -2.0537   -4.7529    0.7715 H         1 <0>         0.4320
     35 H10        -1.2718   -7.2539    5.4080 H         1 <0>         0.1780
     36 H11        -3.8796   -7.2338    5.2984 H         1 <0>         0.2015
@<TRIPOS>BOND
     1    1    6 ar
     2    1    2 ar
     3    1   26 1
     4    2    3 ar
     5    2   27 1
     6    3    4 ar
     7    3   28 1
     8    4   14 1
     9    4    5 ar
    10    5    6 ar
    11    5    7 1
    12    6   29 1
    13    7   16 am
    14    7    8 1
    15    8   13 ar
    16    8    9 ar
    17    9   10 ar
    18    9   15 1
    19   10   11 ar
    20   10   30 1
    21   11   12 ar
    22   11   31 1
    23   12   13 ar
    24   12   32 1
    25   13   14 1
    26   15   16 1
    27   15   18 1
    28   15   33 1
    29   16   17 2
    30   18   19 2
    31   18   20 am
    32   20   21 1
    33   20   34 1
    34   21   25 1
    35   21   22 2
    36   22   23 1
    37   23   24 2
    38   23   35 1
    39   24   25 1
    40   24   36 1
@<TRIPOS>MOLECULE
CHEMBL292324__2
   36    40     0     0     0
SMALL
USER_CHARGES

@<TRIPOS>ATOM
      1 C1         -0.0167    1.3769    0.0096 C.ar      1 <0>        -0.0930
      2 C2          1.1575    2.1068    0.0023 C.ar      1 <0>        -0.1081
      3 C3          2.3758    1.4427   -0.0129 C.ar      1 <0>        -0.0638
      4 C4          2.3883    0.0687   -0.0199 C.ar      1 <0>        -0.0996
      5 C5          1.2156   -0.6886   -0.0124 C.ar      1 <0>         0.1305
      6 C6          0.0021   -0.0041    0.0020 C.ar      1 <0>        -0.1342
      7 N1          1.1793   -2.1001   -0.0165 N.am      1 <0>        -0.4930
      8 C7          2.2648   -2.9519   -0.0208 C.ar      1 <0>         0.1185
      9 C8          1.9219   -4.2898   -0.0157 C.ar      1 <0>        -0.0965
     10 C9          2.9084   -5.2515   -0.0161 C.ar      1 <0>        -0.0382
     11 C10         4.2462   -4.8892   -0.0239 C.ar      1 <0>        -0.1097
     12 C11         4.6048   -3.5452   -0.0315 C.ar      1 <0>        -0.0449
     13 C12         3.6118   -2.6006   -0.0298 C.ar      1 <0>        -0.1020
     14 S1          3.9146   -0.8489   -0.0379 S.3       1 <0>        -0.0184
     15 C13         0.4140   -4.3050   -0.0125 C.3       1 <0>        -0.0907
     16 C14         0.0281   -2.8428   -0.0161 C.2       1 <0>         0.5390
     17 O1         -1.1031   -2.4042   -0.0176 O.2       1 <0>        -0.4615
     18 C15        -0.1091   -4.9915   -1.2478 C.2       1 <0>         0.5314
     19 O2          0.6654   -5.4353   -2.0689 O.2       1 <0>        -0.4377
     20 N2         -1.4375   -5.1125   -1.4402 N.am      1 <0>        -0.6155
     21 C16        -1.9200   -5.7457   -2.5796 C.2       1 <0>         0.2664
     22 N3         -1.2372   -6.2875   -3.5648 N.2       1 <0>        -0.5211
     23 C17        -1.8490   -6.8565   -4.5869 C.2       1 <0>         0.0616
     24 C18        -3.2046   -6.8553   -4.5720 C.2       1 <0>        -0.2409
     25 S2         -3.5196   -6.0120   -3.0301 S.3       1 <0>         0.1213
     26 H1         -0.9641    1.8951    0.0260 H         1 <0>         0.1363
     27 H2          1.1267    3.1863    0.0081 H         1 <0>         0.1407
     28 H3          3.3018    1.9984   -0.0195 H         1 <0>         0.1454
     29 H4         -0.9268   -0.5551    0.0078 H         1 <0>         0.1621
     30 H5          2.6369   -6.2968   -0.0100 H         1 <0>         0.1403
     31 H6          5.0114   -5.6514   -0.0237 H         1 <0>         0.1471
     32 H7          5.6442   -3.2521   -0.0382 H         1 <0>         0.1495
     33 H8          0.0394   -4.7962    0.8856 H         1 <0>         0.1672
     34 H9         -2.0570   -4.7576   -0.7834 H         1 <0>         0.4320
     35 H10        -1.2942   -7.3027   -5.3991 H         1 <0>         0.1780
     36 H11        -3.9018   -7.2571   -5.2924 H         1 <0>         0.2015
@<TRIPOS>BOND
     1    1    6 ar
     2    1    2 ar
     3    1   26 1
     4    2    3 ar
     5    2   27 1
     6    3    4 ar
     7    3   28 1
     8    4   14 1
     9    4    5 ar
    10    5    6 ar
    11    5    7 1
    12    6   29 1
    13    7   16 am
    14    7    8 1
    15    8   13 ar
    16    8    9 ar
    17    9   10 ar
    18    9   15 1
    19   10   11 ar
    20   10   30 1
    21   11   12 ar
    22   11   31 1
    23   12   13 ar
    24   12   32 1
    25   13   14 1
    26   15   16 1
    27   15   18 1
    28   15   33 1
    29   16   17 2
    30   18   19 2
    31   18   20 am
    32   20   21 1
    33   20   34 1
    34   21   25 1
    35   21   22 2
    36   22   23 1
    37   23   24 2
    38   23   35 1
    39   24   25 1
    40   24   36 1
@<TRIPOS>MOLECULE
CHEMBL155898
   51    54     0     0     0
SMALL
USER_CHARGES

@<TRIPOS>ATOM
      1 C1          0.1924    1.6706    0.2132 C.3       1 <0>        -0.6501
      2 S1          0.3655   -0.1350    0.2362 S.o2      1 <0>         2.4983
      3 O1          1.3162   -0.5230    1.2184 O.2       1 <0>        -0.9351
      4 O2         -0.9144   -0.7501    0.1840 O.2       1 <0>        -0.9354
      5 C2          1.1208   -0.5371   -1.3041 C.ar      1 <0>        -0.6524
      6 C3          0.3324   -0.7991   -2.4103 C.ar      1 <0>        -0.0218
      7 C4          0.9181   -1.1151   -3.6192 C.ar      1 <0>        -0.1199
      8 C5          2.3076   -1.1695   -3.7244 C.ar      1 <0>         0.0046
      9 C6          3.0970   -0.9040   -2.6059 C.ar      1 <0>        -0.1031
     10 C7          2.4998   -0.5841   -1.4038 C.ar      1 <0>        -0.0199
     11 C8          2.9427   -1.5086   -5.0195 C.2       1 <0>        -0.0617
     12 C9          2.7777   -2.7939   -5.5797 C.2       1 <0>         0.1024
     13 N1          3.3349   -3.0962   -6.7190 N.2       1 <0>        -0.2136
     14 N2          4.1083   -2.1639   -7.4176 N.am      1 <0>        -0.3969
     15 C10         4.2973   -0.9232   -6.9262 C.2       1 <0>         0.4848
     16 O3          4.9738   -0.1141   -7.5415 O.2       1 <0>        -0.5186
     17 C11         3.7010   -0.5644   -5.6968 C.2       1 <0>         0.0785
     18 O4          3.8713    0.6816   -5.1840 O.3       1 <0>        -0.2951
     19 C12         3.2898    1.7668   -5.9094 C.3       1 <0>         0.0946
     20 C13         3.6857    3.0903   -5.2517 C.3       1 <0>        -0.1545
     21 C14         2.5658    3.9464   -4.6569 C.3       1 <0>        -0.1756
     22 C15         3.2573    4.3823   -5.9503 C.3       1 <0>        -0.1672
     23 C16         4.7191   -2.5393   -8.6951 C.3       1 <0>         0.1664
     24 C17         6.0890   -3.1162   -8.4467 C.ar      1 <0>        -0.1215
     25 C18         7.1941   -2.2862   -8.4203 C.ar      1 <0>        -0.0926
     26 C19         8.4506   -2.8154   -8.1924 C.ar      1 <0>        -0.1251
     27 C20         8.6020   -4.1745   -7.9905 C.ar      1 <0>        -0.1079
     28 C21         7.4968   -5.0044   -8.0160 C.ar      1 <0>        -0.1260
     29 C22         6.2397   -4.4746   -8.2397 C.ar      1 <0>        -0.0927
     30 H1          1.1766    2.1287    0.1149 H         1 <0>         0.1323
     31 H2         -0.4313    1.9651   -0.6308 H         1 <0>         0.1318
     32 H3         -0.2720    2.0030    1.1416 H         1 <0>         0.1342
     33 H4         -0.7435   -0.7566   -2.3276 H         1 <0>         0.1472
     34 H5          0.3016   -1.3201   -4.4819 H         1 <0>         0.1371
     35 H6          4.1735   -0.9449   -2.6814 H         1 <0>         0.1355
     36 H7          3.1102   -0.3739   -0.5379 H         1 <0>         0.1469
     37 H8          2.1854   -3.5327   -5.0602 H         1 <0>         0.2012
     38 H9          3.6496    1.7504   -6.9382 H         1 <0>         0.0750
     39 H10         2.2043    1.6681   -5.9026 H         1 <0>         0.0588
     40 H11         4.6470    3.0908   -4.7379 H         1 <0>         0.1174
     41 H12         1.5470    3.5668   -4.7342 H         1 <0>         0.0954
     42 H13         2.7902    4.5103   -3.7515 H         1 <0>         0.0989
     43 H14         3.9366    5.2330   -5.8958 H         1 <0>         0.1025
     44 H15         2.6934    4.2895   -6.8785 H         1 <0>         0.0968
     45 H16         4.0959   -3.2835   -9.1910 H         1 <0>         0.1076
     46 H17         4.8059   -1.6572   -9.3295 H         1 <0>         0.1104
     47 H18         7.0758   -1.2244   -8.5780 H         1 <0>         0.1289
     48 H19         9.3141   -2.1670   -8.1724 H         1 <0>         0.1242
     49 H20         9.5838   -4.5881   -7.8132 H         1 <0>         0.1238
     50 H21         7.6151   -6.0663   -7.8586 H         1 <0>         0.1250
     51 H22         5.3757   -5.1225   -8.2559 H         1 <0>         0.1261
@<TRIPOS>BOND
     1    1    2 1
     2    1   30 1
     3    1   31 1
     4    1   32 1
     5    2    3 2
     6    2    4 2
     7    2    5 1
     8    5   10 ar
     9    5    6 ar
    10    6    7 ar
    11    6   33 1
    12    7    8 ar
    13    7   34 1
    14    8    9 ar
    15    8   11 1
    16    9   10 ar
    17    9   35 1
    18   10   36 1
    19   11   17 2
    20   11   12 1
    21   12   13 2
    22   12   37 1
    23   13   14 1
    24   14   15 am
    25   14   23 1
    26   15   16 2
    27   15   17 1
    28   17   18 1
    29   18   19 1
    30   19   20 1
    31   19   38 1
    32   19   39 1
    33   20   22 1
    34   20   21 1
    35   20   40 1
    36   21   22 1
    37   21   41 1
    38   21   42 1
    39   22   43 1
    40   22   44 1
    41   23   24 1
    42   23   45 1
    43   23   46 1
    44   24   29 ar
    45   24   25 ar
    46   25   26 ar
    47   25   47 1
    48   26   27 ar
    49   26   48 1
    50   27   28 ar
    51   27   49 1
    52   28   29 ar
    53   28   50 1
    54   29   51 1
@<TRIPOS>MOLECULE
CHEMBL37414
   35    37     0     0     0
SMALL
USER_CHARGES

@<TRIPOS>ATOM
      1 C1         -4.1390   -0.6583    4.4273 C.3       1 <0>        -0.0738
      2 C2         -3.4910   -1.8353    3.7449 C.2       1 <0>         0.0744
      3 C3         -4.2129   -2.9154    3.3600 C.2       1 <0>        -0.2774
      4 S1         -2.9344   -3.9314    2.6383 S.3       1 <0>         0.1279
      5 C4         -1.6365   -2.8920    2.8979 C.2       1 <0>         0.0438
      6 N1         -2.1951   -1.8573    3.4905 N.2       1 <0>        -0.5252
      7 S2          0.0574   -3.1285    2.4744 S.3       1 <0>         0.1669
      8 C5          0.1165   -4.7782    1.8581 C.ar      1 <0>        -0.2601
      9 C6          0.2143   -5.0050    0.5009 C.ar      1 <0>         0.0681
     10 C7          0.2614   -6.3210    0.0073 C.ar      1 <0>        -0.3114
     11 C8          0.2085   -7.3934    0.9016 C.ar      1 <0>         0.0304
     12 C9          0.1114   -7.1595    2.2577 C.ar      1 <0>        -0.2565
     13 C10         0.0699   -5.8589    2.7451 C.ar      1 <0>         0.3674
     14 N2         -0.0225   -5.6316    4.1145 N.2       1 <0>        -1.0612
     15 S3         -0.0775   -6.9112    5.1643 S.o2      1 <0>         2.5292
     16 O1         -1.2868   -7.5874    4.8487 O.2       1 <0>        -1.0176
     17 O2          1.1770   -7.5606    5.0105 O.2       1 <0>        -1.0189
     18 C11        -0.1938   -6.1587    6.8107 C.3       1 <0>        -0.6357
     19 C12         0.2747   -8.6934    0.1354 C.3       1 <0>        -0.0873
     20 C13         0.3757   -8.3130   -1.3480 C.3       1 <0>        -0.1684
     21 C14         0.3635   -6.8041   -1.3757 C.2       1 <0>         0.4165
     22 O3          0.4269   -6.1103   -2.3688 O.2       1 <0>        -0.4812
     23 H1         -4.4670    0.0612    3.6772 H         1 <0>         0.0689
     24 H2         -4.9990   -1.0005    5.0031 H         1 <0>         0.0687
     25 H3         -3.4198   -0.1844    5.0953 H         1 <0>         0.0704
     26 H4         -5.2706   -3.1088    3.4622 H         1 <0>         0.1849
     27 H5          0.2543   -4.1706   -0.1837 H         1 <0>         0.1256
     28 H6          0.0708   -7.9919    2.9446 H         1 <0>         0.1148
     29 H7         -1.0962   -5.5501    6.8691 H         1 <0>         0.1171
     30 H8         -0.2350   -6.9429    7.5666 H         1 <0>         0.1057
     31 H9          0.6798   -5.5308    6.9858 H         1 <0>         0.1198
     32 H10         1.1546   -9.2616    0.4372 H         1 <0>         0.0880
     33 H11        -0.6281   -9.2783    0.3115 H         1 <0>         0.0878
     34 H12         1.3060   -8.6909   -1.7722 H         1 <0>         0.0994
     35 H13        -0.4786   -8.7077   -1.8980 H         1 <0>         0.0992
@<TRIPOS>BOND
     1    1    2 1
     2    1   23 1
     3    1   24 1
     4    1   25 1
     5    2    6 1
     6    2    3 2
     7    3    4 1
     8    3   26 1
     9    4    5 1
    10    5    6 2
    11    5    7 1
    12    7    8 1
    13    8   13 ar
    14    8    9 ar
    15    9   10 ar
    16    9   27 1
    17   10   21 1
    18   10   11 ar
    19   11   12 ar
    20   11   19 1
    21   12   13 ar
    22   12   28 1
    23   13   14 1
    24   14   15 1
    25   15   16 2
    26   15   17 2
    27   15   18 1
    28   18   29 1
    29   18   30 1
    30   18   31 1
    31   19   20 1
    32   19   32 1
    33   19   33 1
    34   20   21 1
    35   20   34 1
    36   20   35 1
    37   21   22 2
@<TRIPOS>MOLECULE
CHEMBL98514
   51    54     0     0     0
SMALL
USER_CHARGES

@<TRIPOS>ATOM
      1 C1         -0.2196    1.9289   -0.2465 C.3       1 <0>        -0.1052
      2 C2         -0.1149    0.4372   -0.0601 C.2       1 <0>         0.1231
      3 C3         -0.0440   -0.4596   -1.0538 C.2       1 <0>        -0.1480
      4 C4          0.0468   -1.7861   -0.4341 C.ar      1 <0>        -0.0353
      5 C5          0.1427   -3.0841   -0.9379 C.ar      1 <0>        -0.1122
      6 C6          0.2128   -4.1521   -0.0643 C.ar      1 <0>         0.1141
      7 C7          0.1880   -3.9359    1.3105 C.ar      1 <0>        -0.1750
      8 C8          0.0931   -2.6583    1.8176 C.ar      1 <0>        -0.0820
      9 C9          0.0221   -1.5717    0.9545 C.ar      1 <0>         0.0767
     10 N1         -0.0719   -0.2051    1.1535 N.am      1 <0>        -0.5035
     11 C10        -0.1177    0.4028    2.3555 C.2       1 <0>         0.6021
     12 O1         -1.1899    0.6839    2.8537 O.2       1 <0>        -0.4274
     13 C11         1.1348    0.7274    3.0669 C.ar      1 <0>        -0.1665
     14 C12         2.3685    0.5125    2.4483 C.ar      1 <0>        -0.0423
     15 C13         3.5346    0.8175    3.1179 C.ar      1 <0>        -0.1206
     16 C14         3.4843    1.3360    4.4014 C.ar      1 <0>         0.0044
     17 C15         2.2638    1.5510    5.0205 C.ar      1 <0>        -0.1231
     18 C16         1.0906    1.2559    4.3591 C.ar      1 <0>        -0.0379
     19 Cl1         4.9569    1.7175    5.2379 Cl        1 <0>        -0.0514
     20 O2          0.3059   -5.4189   -0.5493 O.3       1 <0>        -0.3163
     21 C17         0.3748   -6.4769    0.4088 C.3       1 <0>         0.0268
     22 C18        -0.0559   -0.1610   -2.5308 C.3       1 <0>        -0.0616
     23 C19         1.3574    0.0398   -3.0141 C.2       1 <0>         0.5135
     24 O3          2.2831   -0.0507   -2.2357 O.2       1 <0>        -0.5008
     25 N2          1.5926    0.3198   -4.3113 N.am      1 <0>        -0.6718
     26 C20         2.9079    0.3999   -4.7825 C.ar      1 <0>         0.1142
     27 C21         3.9052   -0.4017   -4.2328 C.ar      1 <0>        -0.0736
     28 C22         5.1927   -0.2867   -4.7334 C.ar      1 <0>        -0.0675
     29 C23         5.4424    0.6135   -5.7545 C.ar      1 <0>         0.0943
     30 N3          4.4748    1.3578   -6.2527 N.ar      1 <0>        -0.4468
     31 C24         3.2363    1.2755   -5.8089 C.ar      1 <0>         0.0787
     32 Cl2         6.4767   -1.2598   -4.0867 Cl        1 <0>        -0.0458
     33 H1          0.7803    2.3608   -0.2890 H         1 <0>         0.0862
     34 H2         -0.7476    2.1428   -1.1757 H         1 <0>         0.0925
     35 H3         -0.7672    2.3621    0.5906 H         1 <0>         0.0715
     36 H4          0.1616   -3.2527   -2.0045 H         1 <0>         0.1322
     37 H5          0.2434   -4.7771    1.9857 H         1 <0>         0.1359
     38 H6          0.0740   -2.5014    2.8860 H         1 <0>         0.1228
     39 H7          2.4090    0.1079    1.4477 H         1 <0>         0.1440
     40 H8          4.4892    0.6514    2.6408 H         1 <0>         0.1451
     41 H9          2.2312    1.9552    6.0215 H         1 <0>         0.1467
     42 H10         0.1396    1.4284    4.8409 H         1 <0>         0.1478
     43 H11         1.2531   -6.3394    1.0394 H         1 <0>         0.0555
     44 H12        -0.5223   -6.4655    1.0279 H         1 <0>         0.0556
     45 H13         0.4460   -7.4329   -0.1100 H         1 <0>         0.1009
     46 H14        -0.5080   -0.9956   -3.0666 H         1 <0>         0.1123
     47 H15        -0.6345    0.7444   -2.7139 H         1 <0>         0.1088
     48 H16         0.8502    0.4660   -4.9183 H         1 <0>         0.4176
     49 H17         3.6812   -1.0954   -3.4360 H         1 <0>         0.1576
     50 H18         6.4436    0.7078   -6.1484 H         1 <0>         0.1680
     51 H19         2.4698    1.8986   -6.2455 H         1 <0>         0.1658
@<TRIPOS>BOND
     1    1    2 1
     2    1   33 1
     3    1   34 1
     4    1   35 1
     5    2   10 1
     6    2    3 2
     7    3    4 1
     8    3   22 1
     9    4    9 ar
    10    4    5 ar
    11    5    6 ar
    12    5   36 1
    13    6    7 ar
    14    6   20 1
    15    7    8 ar
    16    7   37 1
    17    8    9 ar
    18    8   38 1
    19    9   10 1
    20   10   11 am
    21   11   12 2
    22   11   13 1
    23   13   18 ar
    24   13   14 ar
    25   14   15 ar
    26   14   39 1
    27   15   16 ar
    28   15   40 1
    29   16   17 ar
    30   16   19 1
    31   17   18 ar
    32   17   41 1
    33   18   42 1
    34   20   21 1
    35   21   43 1
    36   21   44 1
    37   21   45 1
    38   22   23 1
    39   22   46 1
    40   22   47 1
    41   23   24 2
    42   23   25 am
    43   25   26 1
    44   25   48 1
    45   26   31 ar
    46   26   27 ar
    47   27   28 ar
    48   27   49 1
    49   28   29 ar
    50   28   32 1
    51   29   30 ar
    52   29   50 1
    53   30   31 ar
    54   31   51 1
@<TRIPOS>MOLECULE
CHEMBL12483
   43    44     0     0     0
SMALL
USER_CHARGES

@<TRIPOS>ATOM
      1 C1         -0.0187    1.5258    0.0104 C.3       1 <0>        -0.1483
      2 C2          0.0021   -0.0041    0.0020 C.3       1 <0>        -0.0187
      3 C3          0.7421   -0.5109    1.2415 C.3       1 <0>        -0.1397
      4 C4         -1.4333   -0.5336    0.0129 C.3       1 <0>        -0.1402
      5 C5          0.7074   -0.4901   -1.2379 C.ar      1 <0>        -0.0883
      6 C6          1.2150    0.4185   -2.1418 C.ar      1 <0>        -0.0834
      7 C7          1.8683   -0.0328   -3.2901 C.ar      1 <0>         0.0201
      8 C8          2.0047   -1.4034   -3.5180 C.ar      1 <0>        -0.1115
      9 C9          1.4943   -2.3054   -2.6092 C.ar      1 <0>        -0.0870
     10 C10         0.8502   -1.8525   -1.4654 C.ar      1 <0>         0.1070
     11 O1          0.3534   -2.7448   -0.5692 O.3       1 <0>        -0.4852
     12 C11         1.6410   -3.7851   -2.8542 C.3       1 <0>        -0.0191
     13 C12         2.3880   -4.0127   -4.1699 C.3       1 <0>        -0.1484
     14 C13         2.4288   -4.4168   -1.7046 C.3       1 <0>        -0.1399
     15 C14         0.2552   -4.4283   -2.9367 C.3       1 <0>        -0.1400
     16 C15         2.4137    0.9380   -4.2623 C.2       1 <0>         0.1469
     17 N1          3.0772    0.6407   -5.4303 N.pl3     1 <0>        -0.5976
     18 C16         3.3888    1.8457   -5.9939 C.2       1 <0>         0.3813
     19 N2          2.9292    2.7805   -5.1931 N.2       1 <0>        -0.3367
     20 N3          2.3513    2.2465   -4.1771 N.2       1 <0>        -0.2719
     21 S1          4.2471    2.0988   -7.5118 S.3       1 <0>        -0.8049
     22 H1          1.0039    1.9031    0.0027 H         1 <0>         0.0618
     23 H2         -0.5459    1.8868   -0.8726 H         1 <0>         0.0611
     24 H3         -0.5289    1.8773    0.9072 H         1 <0>         0.0559
     25 H4          0.2319   -0.1594    2.1383 H         1 <0>         0.0510
     26 H5          0.7568   -1.6008    1.2356 H         1 <0>         0.0735
     27 H6          1.7647   -0.1336    1.2338 H         1 <0>         0.0514
     28 H7         -1.9605   -0.1726   -0.8702 H         1 <0>         0.0545
     29 H8         -1.4185   -1.6235    0.0069 H         1 <0>         0.0568
     30 H9         -1.9435   -0.1821    0.9097 H         1 <0>         0.0576
     31 H10         1.1072    1.4779   -1.9621 H         1 <0>         0.1430
     32 H11         2.5092   -1.7564   -4.4053 H         1 <0>         0.1245
     33 H12        -0.5596   -3.0111   -0.7442 H         1 <0>         0.3763
     34 H13         3.3753   -3.5545   -4.1111 H         1 <0>         0.0591
     35 H14         2.4941   -5.0829   -4.3471 H         1 <0>         0.0578
     36 H15         1.8268   -3.5627   -4.9888 H         1 <0>         0.0584
     37 H16         1.8966   -4.2547   -0.7673 H         1 <0>         0.0751
     38 H17         2.5349   -5.4870   -1.8818 H         1 <0>         0.0510
     39 H18         3.4160   -3.9586   -1.6458 H         1 <0>         0.0510
     40 H19        -0.3060   -3.9783   -3.7556 H         1 <0>         0.0542
     41 H20         0.3613   -5.4985   -3.1139 H         1 <0>         0.0577
     42 H21        -0.2770   -4.2662   -1.9993 H         1 <0>         0.0578
     43 H22         3.2813   -0.2405   -5.7805 H         1 <0>         0.4162
@<TRIPOS>BOND
     1    1    2 1
     2    1   22 1
     3    1   23 1
     4    1   24 1
     5    2    3 1
     6    2    4 1
     7    2    5 1
     8    3   25 1
     9    3   26 1
    10    3   27 1
    11    4   28 1
    12    4   29 1
    13    4   30 1
    14    5   10 ar
    15    5    6 ar
    16    6    7 ar
    17    6   31 1
    18    7    8 ar
    19    7   16 1
    20    8    9 ar
    21    8   32 1
    22    9   10 ar
    23    9   12 1
    24   10   11 1
    25   11   33 1
    26   12   13 1
    27   12   14 1
    28   12   15 1
    29   13   34 1
    30   13   35 1
    31   13   36 1
    32   14   37 1
    33   14   38 1
    34   14   39 1
    35   15   40 1
    36   15   41 1
    37   15   42 1
    38   16   17 1
    39   16   20 2
    40   17   18 1
    41   17   43 1
    42   18   21 1
    43   18   19 2
    44   19   20 1
@<TRIPOS>MOLECULE
CHEMBL12483__1
   44    45     0     0     0
SMALL
USER_CHARGES

@<TRIPOS>ATOM
      1 C1         -0.0187    1.5258    0.0104 C.3       1 <0>        -0.1502
      2 C2          0.0021   -0.0041    0.0020 C.3       1 <0>        -0.0213
      3 C3          0.7421   -0.5109    1.2415 C.3       1 <0>        -0.1436
      4 C4         -1.4333   -0.5336    0.0129 C.3       1 <0>        -0.1437
      5 C5          0.7074   -0.4901   -1.2379 C.ar      1 <0>        -0.0910
      6 C6          1.2151    0.4184   -2.1419 C.ar      1 <0>        -0.0573
      7 C7          1.8681   -0.0326   -3.2898 C.ar      1 <0>        -0.0542
      8 C8          2.0047   -1.4026   -3.5179 C.ar      1 <0>        -0.0797
      9 C9          1.4945   -2.3051   -2.6094 C.ar      1 <0>        -0.0886
     10 C10         0.8502   -1.8525   -1.4655 C.ar      1 <0>         0.1516
     11 O1          0.3536   -2.7449   -0.5695 O.3       1 <0>        -0.4816
     12 C11         1.6410   -3.7847   -2.8551 C.3       1 <0>        -0.0216
     13 C12         2.3876   -4.0117   -4.1711 C.3       1 <0>        -0.1513
     14 C13         2.4290   -4.4169   -1.7060 C.3       1 <0>        -0.1439
     15 C14         0.2551   -4.4277   -2.9375 C.3       1 <0>        -0.1437
     16 C15         2.4138    0.9391   -4.2625 C.2       1 <0>         0.3333
     17 N1          3.0780    0.6237   -5.4314 N.pl3     1 <0>        -0.5943
     18 C16         3.4196    1.7732   -6.0468 C.2       1 <0>         0.4806
     19 N2          2.9798    2.7931   -5.2815 N.pl3     1 <0>        -0.4673
     20 H1          3.0820    3.7387   -5.4721 H         1 <0>         0.4720
     21 N3          2.3436    2.2372   -4.1632 N.2       1 <0>        -0.2660
     22 S1          4.2605    1.9134   -7.5315 S.2       1 <0>        -0.5609
     23 H2          1.0039    1.9031    0.0027 H         1 <0>         0.0605
     24 H3         -0.5459    1.8868   -0.8726 H         1 <0>         0.0597
     25 H4         -0.5289    1.8773    0.9072 H         1 <0>         0.0636
     26 H5          0.2319   -0.1594    2.1383 H         1 <0>         0.0580
     27 H6          0.7568   -1.6008    1.2356 H         1 <0>         0.0758
     28 H7          1.7647   -0.1336    1.2338 H         1 <0>         0.0528
     29 H8         -1.9605   -0.1726   -0.8702 H         1 <0>         0.0561
     30 H9         -1.4185   -1.6235    0.0069 H         1 <0>         0.0585
     31 H10        -1.9435   -0.1821    0.9097 H         1 <0>         0.0646
     32 H11         1.1072    1.4779   -1.9622 H         1 <0>         0.1473
     33 H12         2.5092   -1.7553   -4.4053 H         1 <0>         0.1335
     34 H13        -0.5594   -3.0112   -0.7446 H         1 <0>         0.3895
     35 H14         3.3750   -3.5536   -4.1123 H         1 <0>         0.0594
     36 H15         2.4936   -5.0819   -4.3488 H         1 <0>         0.0654
     37 H16         1.8263   -3.5613   -4.9897 H         1 <0>         0.0587
     38 H17         1.8970   -4.2552   -0.7685 H         1 <0>         0.0766
     39 H18         2.5349   -5.4871   -1.8837 H         1 <0>         0.0582
     40 H19         3.4163   -3.9588   -1.6473 H         1 <0>         0.0528
     41 H20        -0.3063   -3.9773   -3.7561 H         1 <0>         0.0561
     42 H21         0.3611   -5.4978   -3.1152 H         1 <0>         0.0648
     43 H22        -0.2768   -4.2660   -2.0000 H         1 <0>         0.0588
     44 H23         3.2663   -0.2714   -5.7542 H         1 <0>         0.4522
@<TRIPOS>BOND
     1    1    2 1
     2    1   23 1
     3    1   24 1
     4    1   25 1
     5    2    3 1
     6    2    4 1
     7    2    5 1
     8    3   26 1
     9    3   27 1
    10    3   28 1
    11    4   29 1
    12    4   30 1
    13    4   31 1
    14    5   10 ar
    15    5    6 ar
    16    6    7 ar
    17    6   32 1
    18    7    8 ar
    19    7   16 1
    20    8    9 ar
    21    8   33 1
    22    9   10 ar
    23    9   12 1
    24   10   11 1
    25   11   34 1
    26   12   13 1
    27   12   14 1
    28   12   15 1
    29   13   35 1
    30   13   36 1
    31   13   37 1
    32   14   38 1
    33   14   39 1
    34   14   40 1
    35   15   41 1
    36   15   42 1
    37   15   43 1
    38   16   17 1
    39   16   21 2
    40   17   18 1
    41   17   44 1
    42   18   22 2
    43   18   19 1
    44   19   21 1
    45   19   20 1
@<TRIPOS>MOLECULE
CHEMBL56367
   32    33     0     0     0
SMALL
USER_CHARGES

@<TRIPOS>ATOM
      1 C1         -0.7791    1.7068   -0.4466 C.3       1 <0>        -0.6337
      2 S1         -0.2778   -0.0143   -0.1683 S.o2      1 <0>         2.5283
      3 O1          0.6369   -0.0883    0.9166 O.2       1 <0>        -1.0193
      4 O2         -1.4121   -0.8687   -0.2190 O.2       1 <0>        -1.0193
      5 N1          0.6157   -0.4184   -1.5027 N.2       1 <0>        -1.0578
      6 C2          1.1659   -1.7002   -1.6144 C.ar      1 <0>         0.3237
      7 C3          0.9592   -2.6357   -0.6111 C.ar      1 <0>        -0.2432
      8 C4          1.5037   -3.9011   -0.7237 C.ar      1 <0>        -0.0105
      9 C5          2.2547   -4.2380   -1.8347 C.ar      1 <0>        -0.1318
     10 C6          2.4650   -3.3110   -2.8388 C.ar      1 <0>        -0.1018
     11 C7          1.9180   -2.0423   -2.7364 C.ar      1 <0>         0.0637
     12 O3          2.1192   -1.1313   -3.7258 O.3       1 <0>        -0.2309
     13 C8          2.8575   -1.5106   -4.8016 C.ar      1 <0>         0.0910
     14 C9          2.2373   -2.0822   -5.9035 C.ar      1 <0>        -0.1293
     15 C10         2.9901   -2.4664   -6.9961 C.ar      1 <0>        -0.1080
     16 C11         4.3605   -2.2824   -6.9923 C.ar      1 <0>        -0.1260
     17 C12         4.9811   -1.7134   -5.8953 C.ar      1 <0>        -0.1080
     18 C13         4.2322   -1.3218   -4.8027 C.ar      1 <0>        -0.1293
     19 N2          2.8355   -5.5947   -1.9492 N.pl3     1 <0>         0.0667
     20 O4          2.6530   -6.4064   -1.0720 O.2       1 <0>        -0.2067
     21 O5          3.4925   -5.8911   -2.9199 O.3       1 <0>        -0.2076
     22 H1          0.1081    2.3326   -0.5424 H         1 <0>         0.1192
     23 H2         -1.3689    1.7700   -1.3611 H         1 <0>         0.1192
     24 H3         -1.3777    2.0517    0.3964 H         1 <0>         0.1072
     25 H4          0.3733   -2.3752    0.2580 H         1 <0>         0.1322
     26 H5          1.3424   -4.6285    0.0582 H         1 <0>         0.1369
     27 H6          3.0524   -3.5774   -3.7051 H         1 <0>         0.1405
     28 H7          1.1670   -2.2268   -5.9068 H         1 <0>         0.1298
     29 H8          2.5079   -2.9113   -7.8540 H         1 <0>         0.1258
     30 H9          4.9473   -2.5838   -7.8474 H         1 <0>         0.1232
     31 H10         6.0517   -1.5711   -5.8947 H         1 <0>         0.1259
     32 H11         4.7168   -0.8730   -3.9481 H         1 <0>         0.1298
@<TRIPOS>BOND
     1    1    2 1
     2    1   22 1
     3    1   23 1
     4    1   24 1
     5    2    3 2
     6    2    4 2
     7    2    5 1
     8    5    6 1
     9    6   11 ar
    10    6    7 ar
    11    7    8 ar
    12    7   25 1
    13    8    9 ar
    14    8   26 1
    15    9   10 ar
    16    9   19 1
    17   10   11 ar
    18   10   27 1
    19   11   12 1
    20   12   13 1
    21   13   18 ar
    22   13   14 ar
    23   14   15 ar
    24   14   28 1
    25   15   16 ar
    26   15   29 1
    27   16   17 ar
    28   16   30 1
    29   17   18 ar
    30   17   31 1
    31   18   32 1
    32   19   20 2
    33   19   21 1
@<TRIPOS>MOLECULE
CHEMBL110660
   36    38     0     0     0
SMALL
USER_CHARGES

@<TRIPOS>ATOM
      1 C1         -0.0184    1.5028    0.0103 C.3       1 <0>        -0.0917
      2 C2          0.0021   -0.0041    0.0020 C.2       1 <0>         0.0855
      3 C3         -1.0766   -0.8060    0.0026 C.2       1 <0>        -0.2527
      4 C4         -0.6251   -2.1491   -0.0073 C.2       1 <0>         0.1806
      5 N1          0.6875   -2.1298   -0.0135 N.2       1 <0>        -0.3089
      6 O1          1.1004   -0.7752   -0.0131 O.3       1 <0>        -0.0598
      7 C5         -1.4798   -3.3568   -0.0101 C.2       1 <0>         0.2792
      8 N2         -2.7942   -3.3696   -0.0096 N.2       1 <0>        -0.3956
      9 C6         -3.2237   -4.6356   -0.0127 C.2       1 <0>        -0.0822
     10 C7         -2.1480   -5.4510   -0.0154 C.2       1 <0>         0.0546
     11 N3         -1.0380   -4.6499   -0.0197 N.pl3     1 <0>        -0.3971
     12 C8          0.2972   -5.0749   -0.0290 C.ar      1 <0>         0.1554
     13 C9          1.1909   -4.5406   -0.9475 C.ar      1 <0>        -0.0969
     14 C10         2.5064   -4.9616   -0.9543 C.ar      1 <0>         0.0047
     15 C11         2.9336   -5.9142   -0.0475 C.ar      1 <0>        -0.6645
     16 C12         2.0458   -6.4485    0.8681 C.ar      1 <0>        -0.0029
     17 C13         0.7306   -6.0271    0.8839 C.ar      1 <0>        -0.1262
     18 S1          4.6126   -6.4487   -0.0593 S.o2      1 <0>         2.7036
     19 O2          4.6309   -7.7428    0.5274 O.2       1 <0>        -0.9569
     20 O3          5.1094   -6.1979   -1.3668 O.2       1 <0>        -0.9561
     21 N4          5.4506   -5.4528    0.9646 N.pl3     1 <0>        -1.2479
     22 C14        -4.6645   -5.0773   -0.0128 C.3       1 <0>         0.5586
     23 F1         -5.4956   -3.9575   -0.1246 F         1 <0>        -0.1605
     24 F2         -4.8892   -5.9348   -1.0952 F         1 <0>        -0.1686
     25 F3         -4.9461   -5.7498    1.1812 F         1 <0>        -0.1687
     26 H1          1.0042    1.8801    0.0026 H         1 <0>         0.0887
     27 H2         -0.5455    1.8639   -0.8728 H         1 <0>         0.1014
     28 H3         -0.5286    1.8543    0.9071 H         1 <0>         0.1011
     29 H4         -2.1072   -0.4832    0.0094 H         1 <0>         0.1724
     30 H5         -2.1606   -6.5310   -0.0182 H         1 <0>         0.2062
     31 H6          0.8577   -3.7969   -1.6561 H         1 <0>         0.1408
     32 H7          3.2019   -4.5466   -1.6687 H         1 <0>         0.1576
     33 H8          2.3823   -7.1929    1.5746 H         1 <0>         0.1585
     34 H9          0.0389   -6.4410    1.6027 H         1 <0>         0.1464
     35 H10         4.9897   -4.7381    1.4311 H         1 <0>         0.4182
     36 H11         6.4024   -5.5843    1.0978 H         1 <0>         0.4237
@<TRIPOS>BOND
     1    1    2 1
     2    1   26 1
     3    1   27 1
     4    1   28 1
     5    2    6 1
     6    2    3 2
     7    3    4 1
     8    3   29 1
     9    4    5 2
    10    4    7 1
    11    5    6 1
    12    7   11 1
    13    7    8 2
    14    8    9 1
    15    9   10 2
    16    9   22 1
    17   10   11 1
    18   10   30 1
    19   11   12 1
    20   12   17 ar
    21   12   13 ar
    22   13   14 ar
    23   13   31 1
    24   14   15 ar
    25   14   32 1
    26   15   16 ar
    27   15   18 1
    28   16   17 ar
    29   16   33 1
    30   17   34 1
    31   18   19 2
    32   18   20 2
    33   18   21 1
    34   21   35 1
    35   21   36 1
    36   22   23 1
    37   22   24 1
    38   22   25 1
@<TRIPOS>MOLECULE
CHEMBL331489
   42    43     0     0     0
SMALL
USER_CHARGES

@<TRIPOS>ATOM
      1 C1         -0.0187    1.5258    0.0104 C.3       1 <0>        -0.1481
      2 C2          0.0021   -0.0041    0.0020 C.3       1 <0>        -0.0177
      3 C3          0.7421   -0.5109    1.2415 C.3       1 <0>        -0.1399
      4 C4         -1.4333   -0.5336    0.0129 C.3       1 <0>        -0.1403
      5 C5          0.7074   -0.4901   -1.2379 C.ar      1 <0>        -0.1021
      6 C6          1.2152    0.4184   -2.1421 C.ar      1 <0>        -0.0768
      7 C7          1.8676   -0.0319   -3.2888 C.ar      1 <0>        -0.0136
      8 C8          2.0045   -1.4000   -3.5176 C.ar      1 <0>        -0.0623
      9 C9          1.4947   -2.3039   -2.6099 C.ar      1 <0>        -0.1015
     10 C10         0.8503   -1.8524   -1.4656 C.ar      1 <0>         0.1266
     11 O1          0.3544   -2.7451   -0.5701 O.3       1 <0>        -0.4849
     12 C11         1.6424   -3.7832   -2.8566 C.3       1 <0>        -0.0182
     13 C12         2.3895   -4.0087   -4.1726 C.3       1 <0>        -0.1489
     14 C13         2.4306   -4.4157   -1.7078 C.3       1 <0>        -0.1399
     15 C14         0.2570   -4.4272   -2.9399 C.3       1 <0>        -0.1399
     16 C15         2.4146    0.9432   -4.2639 C.2       1 <0>         0.2842
     17 N1          3.0556    0.6338   -5.4030 N.2       1 <0>        -0.5826
     18 C16         3.4064    1.7328   -6.0311 C.2       1 <0>         0.4310
     19 O2          2.9943    2.7838   -5.3021 O.3       1 <0>        -0.1295
     20 N2          2.3466    2.2483   -4.1580 N.2       1 <0>        -0.3960
     21 S1          4.2693    1.8149   -7.5651 S.3       1 <0>        -0.7140
     22 H1          1.0039    1.9031    0.0027 H         1 <0>         0.0601
     23 H2         -0.5459    1.8868   -0.8726 H         1 <0>         0.0594
     24 H3         -0.5289    1.8773    0.9072 H         1 <0>         0.0571
     25 H4          0.2319   -0.1594    2.1383 H         1 <0>         0.0514
     26 H5          0.7568   -1.6008    1.2356 H         1 <0>         0.0744
     27 H6          1.7647   -0.1336    1.2338 H         1 <0>         0.0513
     28 H7         -1.9605   -0.1726   -0.8702 H         1 <0>         0.0544
     29 H8         -1.4185   -1.6235    0.0069 H         1 <0>         0.0575
     30 H9         -1.9435   -0.1821    0.9097 H         1 <0>         0.0580
     31 H10         1.1074    1.4779   -1.9625 H         1 <0>         0.1379
     32 H11         2.5092   -1.7517   -4.4054 H         1 <0>         0.1473
     33 H12        -0.5586   -3.0117   -0.7449 H         1 <0>         0.3791
     34 H13         3.3765   -3.5500   -4.1133 H         1 <0>         0.0623
     35 H14         2.4963   -5.0787   -4.3510 H         1 <0>         0.0567
     36 H15         1.8280   -3.5581   -4.9910 H         1 <0>         0.0616
     37 H16         1.8983   -4.2550   -0.7703 H         1 <0>         0.0734
     38 H17         2.5374   -5.4857   -1.8863 H         1 <0>         0.0517
     39 H18         3.4175   -3.9569   -1.6485 H         1 <0>         0.0516
     40 H19        -0.3045   -3.9766   -3.7583 H         1 <0>         0.0549
     41 H20         0.3638   -5.4971   -3.1183 H         1 <0>         0.0583
     42 H21        -0.2753   -4.2665   -2.0023 H         1 <0>         0.0560
@<TRIPOS>BOND
     1    1    2 1
     2    1   22 1
     3    1   23 1
     4    1   24 1
     5    2    3 1
     6    2    4 1
     7    2    5 1
     8    3   25 1
     9    3   26 1
    10    3   27 1
    11    4   28 1
    12    4   29 1
    13    4   30 1
    14    5   10 ar
    15    5    6 ar
    16    6    7 ar
    17    6   31 1
    18    7    8 ar
    19    7   16 1
    20    8    9 ar
    21    8   32 1
    22    9   10 ar
    23    9   12 1
    24   10   11 1
    25   11   33 1
    26   12   13 1
    27   12   14 1
    28   12   15 1
    29   13   34 1
    30   13   35 1
    31   13   36 1
    32   14   37 1
    33   14   38 1
    34   14   39 1
    35   15   40 1
    36   15   41 1
    37   15   42 1
    38   16   20 2
    39   16   17 1
    40   17   18 2
    41   18   19 1
    42   18   21 1
    43   19   20 1
@<TRIPOS>MOLECULE
CHEMBL469785
   50    52     0     0     0
SMALL
USER_CHARGES

@<TRIPOS>ATOM
      1 C1         -0.0187    1.5258    0.0104 C.3       1 <0>        -0.1507
      2 C2          0.0021   -0.0041    0.0020 C.3       1 <0>        -0.1428
      3 C3         -1.4333   -0.5336    0.0129 C.3       1 <0>         0.1350
      4 N1         -1.4134   -1.9985    0.0048 N.am      1 <0>        -0.6160
      5 C4         -1.4072   -2.8551   -1.1871 C.3       1 <0>         0.1272
      6 C5         -1.3856   -4.2780   -0.6784 C.2       1 <0>        -0.0520
      7 C6         -1.3804   -4.2050    0.6801 C.2       1 <0>        -0.1092
      8 C7         -1.3919   -2.7952    1.0883 C.2       1 <0>         0.5458
      9 O1         -1.3855   -2.4039    2.2400 O.2       1 <0>        -0.5139
     10 C8         -1.3605   -5.3644    1.6012 C.ar      1 <0>        -0.0244
     11 C9         -2.4394   -6.2479    1.6384 C.ar      1 <0>        -0.1033
     12 C10        -2.4146   -7.3265    2.4984 C.ar      1 <0>        -0.0980
     13 C11        -1.3230   -7.5325    3.3231 C.ar      1 <0>        -0.0860
     14 C12        -0.2500   -6.6597    3.2909 C.ar      1 <0>        -0.0965
     15 C13        -0.2603   -5.5807    2.4311 C.ar      1 <0>        -0.0919
     16 C14        -1.3030   -8.7120    4.2608 C.3       1 <0>         0.1148
     17 O2         -0.7157   -9.8352    3.6009 O.3       1 <0>        -0.5680
     18 C15        -1.3734   -5.5013   -1.4920 C.ar      1 <0>         0.0158
     19 C16        -0.2745   -5.7923   -2.3087 C.ar      1 <0>        -0.1172
     20 C17        -0.2709   -6.9425   -3.0686 C.ar      1 <0>        -0.0203
     21 C18        -1.3501   -7.8083   -3.0259 C.ar      1 <0>        -0.6530
     22 C19        -2.4410   -7.5277   -2.2213 C.ar      1 <0>        -0.0191
     23 C20        -2.4580   -6.3850   -1.4504 C.ar      1 <0>        -0.1153
     24 S1         -1.3355   -9.2753   -4.0017 S.o2      1 <0>         2.4980
     25 O3         -2.7063   -9.5783   -4.2215 O.2       1 <0>        -0.9355
     26 O4         -0.4756   -8.9765   -5.0928 O.2       1 <0>        -0.9358
     27 C21        -0.5799  -10.5354   -2.9377 C.3       1 <0>        -0.6494
     28 H1          1.0039    1.9031    0.0027 H         1 <0>         0.0604
     29 H2         -0.5459    1.8868   -0.8726 H         1 <0>         0.0574
     30 H3         -0.5289    1.8773    0.9072 H         1 <0>         0.0584
     31 H4          0.5123   -0.3556   -0.8948 H         1 <0>         0.0651
     32 H5          0.5293   -0.3651    0.8851 H         1 <0>         0.0676
     33 H6         -1.9435   -0.1821    0.9097 H         1 <0>         0.0885
     34 H7         -1.9605   -0.1726   -0.8702 H         1 <0>         0.0849
     35 H8         -2.3061   -2.6816   -1.7786 H         1 <0>         0.1063
     36 H9         -0.5187   -2.6573   -1.7867 H         1 <0>         0.1046
     37 H10        -3.2923   -6.0878    0.9956 H         1 <0>         0.1250
     38 H11        -3.2493   -8.0113    2.5281 H         1 <0>         0.1274
     39 H12         0.5991   -6.8256    3.9374 H         1 <0>         0.1269
     40 H13         0.5799   -4.9026    2.4037 H         1 <0>         0.1244
     41 H14        -0.7168   -8.4630    5.1454 H         1 <0>         0.0566
     42 H15        -2.3226   -8.9575    4.5578 H         1 <0>         0.0567
     43 H16        -0.6699  -10.6323    4.1465 H         1 <0>         0.3822
     44 H17         0.5680   -5.1175   -2.3436 H         1 <0>         0.1375
     45 H18         0.5762   -7.1686   -3.6992 H         1 <0>         0.1476
     46 H19        -3.2793   -8.2081   -2.1943 H         1 <0>         0.1476
     47 H20        -3.3078   -6.1699   -0.8195 H         1 <0>         0.1369
     48 H21        -1.1801  -10.6569   -2.0359 H         1 <0>         0.1329
     49 H22        -0.5335  -11.4833   -3.4737 H         1 <0>         0.1345
     50 H23         0.4279  -10.2230   -2.6640 H         1 <0>         0.1323
@<TRIPOS>BOND
     1    1    2 1
     2    1   28 1
     3    1   29 1
     4    1   30 1
     5    2    3 1
     6    2   31 1
     7    2   32 1
     8    3    4 1
     9    3   33 1
    10    3   34 1
    11    4    8 am
    12    4    5 1
    13    5    6 1
    14    5   35 1
    15    5   36 1
    16    6    7 2
    17    6   18 1
    18    7    8 1
    19    7   10 1
    20    8    9 2
    21   10   15 ar
    22   10   11 ar
    23   11   12 ar
    24   11   37 1
    25   12   13 ar
    26   12   38 1
    27   13   14 ar
    28   13   16 1
    29   14   15 ar
    30   14   39 1
    31   15   40 1
    32   16   17 1
    33   16   41 1
    34   16   42 1
    35   17   43 1
    36   18   23 ar
    37   18   19 ar
    38   19   20 ar
    39   19   44 1
    40   20   21 ar
    41   20   45 1
    42   21   22 ar
    43   21   24 1
    44   22   23 ar
    45   22   46 1
    46   23   47 1
    47   24   25 2
    48   24   26 2
    49   24   27 1
    50   27   48 1
    51   27   49 1
    52   27   50 1
@<TRIPOS>MOLECULE
CHEMBL34264
   26    28     0     0     0
SMALL
USER_CHARGES

@<TRIPOS>ATOM
      1 C1         -0.0167    1.3790    0.0096 C.ar      1 <0>        -0.1071
      2 C2          1.1686    2.0919    0.0021 C.ar      1 <0>        -0.1202
      3 C3          2.3774    1.4259   -0.0129 C.ar      1 <0>        -0.0886
      4 C4          2.4022    0.0327   -0.0206 C.ar      1 <0>        -0.0632
      5 C5          1.2051   -0.6804   -0.0130 C.ar      1 <0>        -0.0964
      6 C6          0.0021   -0.0041    0.0020 C.ar      1 <0>        -0.1206
      7 C7          3.6986   -0.6888   -0.0373 C.ar      1 <0>         0.0037
      8 C8          3.9351   -1.7120    0.8745 C.ar      1 <0>        -0.0897
      9 C9          5.1487   -2.3913    0.8621 C.ar      1 <0>         0.1039
     10 C10         6.1117   -2.0298   -0.0719 C.ar      1 <0>        -0.1537
     11 C11         5.8829   -1.0176   -0.9770 C.ar      1 <0>        -0.0512
     12 C12         4.6751   -0.3435   -0.9709 C.ar      1 <0>        -0.0412
     13 Cl1         4.3790    0.9285   -2.1146 Cl        1 <0>        -0.0429
     14 C13         7.2934   -2.9420    0.1733 C.3       1 <0>        -0.1436
     15 C14         6.8323   -3.8061    1.3297 C.2       1 <0>         0.4979
     16 O1          7.4614   -4.6872    1.8662 O.2       1 <0>        -0.4214
     17 O2          5.5946   -3.4056    1.6424 O.3       1 <0>        -0.2713
     18 H1         -0.9603    1.9042    0.0260 H         1 <0>         0.1251
     19 H2          1.1482    3.1717    0.0077 H         1 <0>         0.1268
     20 H3          3.3023    1.9835   -0.0191 H         1 <0>         0.1261
     21 H4          1.2186   -1.7603   -0.0193 H         1 <0>         0.1261
     22 H5         -0.9264   -0.5558    0.0079 H         1 <0>         0.1270
     23 H6          3.1751   -1.9794    1.5938 H         1 <0>         0.1489
     24 H7          6.6455   -0.7525   -1.6944 H         1 <0>         0.1482
     25 H8          7.4965   -3.5530   -0.7061 H         1 <0>         0.1387
     26 H9          8.1741   -2.3637    0.4527 H         1 <0>         0.1387
@<TRIPOS>BOND
     1    1    6 ar
     2    1    2 ar
     3    1   18 1
     4    2    3 ar
     5    2   19 1
     6    3    4 ar
     7    3   20 1
     8    4    5 ar
     9    4    7 1
    10    5    6 ar
    11    5   21 1
    12    6   22 1
    13    7   12 ar
    14    7    8 ar
    15    8    9 ar
    16    8   23 1
    17    9   17 1
    18    9   10 ar
    19   10   11 ar
    20   10   14 1
    21   11   12 ar
    22   11   24 1
    23   12   13 1
    24   14   15 1
    25   14   25 1
    26   14   26 1
    27   15   16 2
    28   15   17 1
@<TRIPOS>MOLECULE
CHEMBL602951
   37    39     0     0     0
SMALL
USER_CHARGES

@<TRIPOS>ATOM
      1 C1         -0.0168    1.3889    0.0097 C.ar      1 <0>        -0.0960
      2 C2          1.1702    2.0929    0.0021 C.ar      1 <0>        -0.0859
      3 C3          2.3780    1.4172   -0.0130 C.ar      1 <0>        -0.0854
      4 C4          2.4020    0.0334   -0.0212 C.ar      1 <0>        -0.0822
      5 C5          1.2204   -0.6795   -0.0142 C.ar      1 <0>        -0.0961
      6 C6          0.0021   -0.0041    0.0020 C.ar      1 <0>        -0.0063
      7 C7         -1.2720   -0.7662    0.0106 C.2       1 <0>        -0.1453
      8 C8         -2.3210   -0.5734    0.8615 C.2       1 <0>         0.0844
      9 N1         -3.2798   -1.4681    0.5363 N.pl3     1 <0>        -0.3076
     10 N2         -2.8160   -2.2335   -0.5404 N.2       1 <0>        -0.2196
     11 C9         -1.6200   -1.8159   -0.8625 C.2       1 <0>         0.0134
     12 C10        -0.7611   -2.3642   -1.9728 C.3       1 <0>         0.5553
     13 F1          0.0316   -3.4055   -1.4783 F         1 <0>        -0.1628
     14 F2         -1.5790   -2.8479   -2.9996 F         1 <0>        -0.1619
     15 F3          0.0614   -1.3482   -2.4711 F         1 <0>        -0.1548
     16 C11        -4.5232   -1.6065    1.1680 C.ar      1 <0>         0.2097
     17 C12        -4.8618   -0.7750    2.2272 C.ar      1 <0>        -0.1551
     18 C13        -6.0881   -0.9136    2.8474 C.ar      1 <0>         0.0086
     19 C14        -6.9780   -1.8795    2.4148 C.ar      1 <0>        -0.6854
     20 C15        -6.6437   -2.7092    1.3603 C.ar      1 <0>         0.0117
     21 C16        -5.4212   -2.5717    0.7323 C.ar      1 <0>        -0.1356
     22 S1         -8.5410   -2.0540    3.2094 S.o2      1 <0>         2.7044
     23 O1         -8.9701   -3.3878    2.9731 O.2       1 <0>        -0.9572
     24 O2         -8.3925   -1.5221    4.5188 O.2       1 <0>        -0.9554
     25 N3         -9.6069   -1.0662    2.4154 N.pl3     1 <0>        -1.2468
     26 Br1         4.0008    2.3880   -0.0233 Br        1 <0>        -0.0445
     27 H1         -0.9588    1.9170    0.0260 H         1 <0>         0.1342
     28 H2          1.1566    3.1728    0.0077 H         1 <0>         0.1380
     29 H3          3.3470   -0.4893   -0.0333 H         1 <0>         0.1385
     30 H4          1.2401   -1.7593   -0.0212 H         1 <0>         0.1309
     31 H5         -2.3751    0.1610    1.6515 H         1 <0>         0.1997
     32 H6         -4.1669   -0.0209    2.5659 H         1 <0>         0.1459
     33 H7         -6.3520   -0.2671    3.6712 H         1 <0>         0.1581
     34 H8         -7.3408   -3.4627    1.0247 H         1 <0>         0.1569
     35 H9         -5.1623   -3.2172   -0.0939 H         1 <0>         0.1526
     36 H10       -10.5470   -1.3012    2.3735 H         1 <0>         0.4239
     37 H11        -9.2910   -0.2525    1.9921 H         1 <0>         0.4177
@<TRIPOS>BOND
     1    1    6 ar
     2    1    2 ar
     3    1   27 1
     4    2    3 ar
     5    2   28 1
     6    3    4 ar
     7    3   26 1
     8    4    5 ar
     9    4   29 1
    10    5    6 ar
    11    5   30 1
    12    6    7 1
    13    7   11 1
    14    7    8 2
    15    8    9 1
    16    8   31 1
    17    9   10 1
    18    9   16 1
    19   10   11 2
    20   11   12 1
    21   12   13 1
    22   12   14 1
    23   12   15 1
    24   16   21 ar
    25   16   17 ar
    26   17   18 ar
    27   17   32 1
    28   18   19 ar
    29   18   33 1
    30   19   20 ar
    31   19   22 1
    32   20   21 ar
    33   20   34 1
    34   21   35 1
    35   22   23 2
    36   22   24 2
    37   22   25 1
    38   25   36 1
    39   25   37 1
@<TRIPOS>MOLECULE
CHEMBL49008
   46    47     0     0     0
SMALL
USER_CHARGES

@<TRIPOS>ATOM
      1 C1          0.7327    1.4985    0.3615 C.3       1 <0>        -0.1520
      2 C2          0.4347    0.0043    0.2210 C.3       1 <0>        -0.0223
      3 C3          1.2080   -0.7725    1.2885 C.3       1 <0>        -0.1430
      4 C4         -1.0654   -0.2358    0.4021 C.3       1 <0>        -0.1431
      5 C5          0.8572   -0.4657   -1.1471 C.ar      1 <0>        -0.0912
      6 C6          1.4196    0.4229   -2.0355 C.ar      1 <0>        -0.0792
      7 C7          1.8121   -0.0154   -3.3063 C.ar      1 <0>        -0.1042
      8 C8          1.6298   -1.3565   -3.6660 C.ar      1 <0>        -0.0696
      9 C9          1.0664   -2.2364   -2.7697 C.ar      1 <0>        -0.0965
     10 C10         0.6834   -1.7970   -1.5076 C.ar      1 <0>         0.1485
     11 O1          0.1329   -2.6702   -0.6257 O.3       1 <0>        -0.4824
     12 C11         0.8695   -3.6798   -3.1553 C.3       1 <0>        -0.0213
     13 C12         1.3758   -3.9001   -4.5822 C.3       1 <0>        -0.1495
     14 C13         1.6513   -4.5760   -2.1927 C.3       1 <0>        -0.1436
     15 C14        -0.6183   -4.0289   -3.0824 C.3       1 <0>        -0.1433
     16 C15         2.4122    0.9279   -4.2583 C.2       1 <0>         0.0822
     17 C16         2.7465    2.1796   -3.8541 C.2       1 <0>        -0.2225
     18 C17         3.2028    3.3356   -4.6511 C.2       1 <0>         0.5625
     19 O2          3.3337    3.2675   -5.8592 O.2       1 <0>        -0.4711
     20 N1          3.4617    4.4489   -3.9860 N.am      1 <0>        -0.6853
     21 C18         3.3153    4.5200   -2.6473 C.2       1 <0>         0.5274
     22 O3          3.5154    5.4704   -1.9150 O.2       1 <0>        -0.4187
     23 S1          2.7480    2.8841   -2.2111 S.3       1 <0>        -0.0309
     24 H1          1.8014    1.6695    0.2325 H         1 <0>         0.0610
     25 H2          0.1818    2.0519   -0.3990 H         1 <0>         0.0599
     26 H3          0.4271    1.8384    1.3510 H         1 <0>         0.0642
     27 H4          0.9025   -0.4325    2.2780 H         1 <0>         0.0574
     28 H5          0.9958   -1.8369    1.1884 H         1 <0>         0.0753
     29 H6          2.2768   -0.6014    1.1595 H         1 <0>         0.0528
     30 H7         -1.6164    0.3177   -0.3584 H         1 <0>         0.0555
     31 H8         -1.2777   -1.3002    0.3020 H         1 <0>         0.0582
     32 H9         -1.3710    0.1042    1.3916 H         1 <0>         0.0640
     33 H10         1.5576    1.4561   -1.7530 H         1 <0>         0.1439
     34 H11         1.9304   -1.6997   -4.6449 H         1 <0>         0.1415
     35 H12        -0.8302   -2.7333   -0.6839 H         1 <0>         0.3877
     36 H13         2.4358   -3.6515   -4.6341 H         1 <0>         0.0601
     37 H14         1.2334   -4.9442   -4.8611 H         1 <0>         0.0623
     38 H15         0.8188   -3.2617   -5.2679 H         1 <0>         0.0595
     39 H16         1.2907   -4.4191   -1.1761 H         1 <0>         0.0757
     40 H17         1.5090   -5.6201   -2.4716 H         1 <0>         0.0565
     41 H18         2.7113   -4.3274   -2.2446 H         1 <0>         0.0524
     42 H19        -1.1753   -3.3904   -3.7682 H         1 <0>         0.0557
     43 H20        -0.7607   -5.0729   -3.3613 H         1 <0>         0.0632
     44 H21        -0.9790   -3.8719   -2.0659 H         1 <0>         0.0579
     45 H22         2.5875    0.6256   -5.2802 H         1 <0>         0.1644
     46 H23         3.7640    5.2320   -4.4721 H         1 <0>         0.4201
@<TRIPOS>BOND
     1    1    2 1
     2    1   24 1
     3    1   25 1
     4    1   26 1
     5    2    3 1
     6    2    4 1
     7    2    5 1
     8    3   27 1
     9    3   28 1
    10    3   29 1
    11    4   30 1
    12    4   31 1
    13    4   32 1
    14    5   10 ar
    15    5    6 ar
    16    6    7 ar
    17    6   33 1
    18    7    8 ar
    19    7   16 1
    20    8    9 ar
    21    8   34 1
    22    9   10 ar
    23    9   12 1
    24   10   11 1
    25   11   35 1
    26   12   13 1
    27   12   14 1
    28   12   15 1
    29   13   36 1
    30   13   37 1
    31   13   38 1
    32   14   39 1
    33   14   40 1
    34   14   41 1
    35   15   42 1
    36   15   43 1
    37   15   44 1
    38   16   17 2
    39   16   45 1
    40   17   23 1
    41   17   18 1
    42   18   19 2
    43   18   20 am
    44   20   21 am
    45   20   46 1
    46   21   22 2
    47   21   23 1
@<TRIPOS>MOLECULE
CHEMBL352174
   50    52     0     0     0
SMALL
USER_CHARGES

@<TRIPOS>ATOM
      1 C1         -0.0184    1.5028    0.0103 C.3       1 <0>        -0.0981
      2 C2          0.0021   -0.0041    0.0020 C.2       1 <0>         0.0856
      3 C3          0.0074   -0.7686   -1.1014 C.2       1 <0>        -0.1456
      4 C4          0.0293   -2.1641   -0.6562 C.ar      1 <0>        -0.0563
      5 C5          0.0430   -3.3930   -1.3197 C.ar      1 <0>        -0.1003
      6 C6          0.0627   -4.5631   -0.5876 C.ar      1 <0>         0.0922
      7 C7          0.0685   -4.5202    0.8044 C.ar      1 <0>        -0.1805
      8 C8          0.0552   -3.3144    1.4689 C.ar      1 <0>        -0.0962
      9 C9          0.0357   -2.1241    0.7494 C.ar      1 <0>         0.0753
     10 N1          0.0239   -0.7953    1.1178 N.pl3     1 <0>        -0.4796
     11 C10         0.0308   -0.3042    2.4980 C.3       1 <0>         0.1513
     12 C11        -1.3874   -0.1552    2.9853 C.ar      1 <0>        -0.0924
     13 C12        -2.0590    1.0391    2.8024 C.ar      1 <0>        -0.0963
     14 C13        -3.3600    1.1761    3.2488 C.ar      1 <0>        -0.0904
     15 C14        -3.9899    0.1178    3.8786 C.ar      1 <0>        -0.0848
     16 C15        -3.3175   -1.0771    4.0613 C.ar      1 <0>        -0.0910
     17 C16        -2.0184   -1.2149    3.6099 C.ar      1 <0>        -0.0929
     18 Br1        -5.7695    0.3047    4.4900 Br        1 <0>        -0.0515
     19 O1          0.0761   -5.7626   -1.2282 O.3       1 <0>        -0.3190
     20 C17         0.0962   -6.9345   -0.4107 C.3       1 <0>         0.0309
     21 C18        -0.0070   -0.2832   -2.5281 C.3       1 <0>        -0.0446
     22 C19         1.4305   -0.0982   -3.0183 C.3       1 <0>        -0.0575
     23 C20         2.1027    1.0188   -2.2175 C.3       1 <0>        -0.1419
     24 C21         1.4193    0.2739   -4.5023 C.3       1 <0>        -0.1797
     25 C22         2.8349    0.3360   -5.0153 C.2       1 <0>         0.4904
     26 O2          3.7665    0.1041   -4.2637 O.co2     1 <0>        -0.6933
     27 O3          3.0487    0.6181   -6.1820 O.co2     1 <0>        -0.7117
     28 H1          1.0042    1.8801    0.0026 H         1 <0>         0.0833
     29 H2         -0.5455    1.8639   -0.8728 H         1 <0>         0.0861
     30 H3         -0.5286    1.8543    0.9071 H         1 <0>         0.0601
     31 H4          0.0378   -3.4277   -2.3992 H         1 <0>         0.1311
     32 H5          0.0832   -5.4414    1.3679 H         1 <0>         0.1265
     33 H6          0.0598   -3.2928    2.5486 H         1 <0>         0.1155
     34 H7          0.5607   -1.0138    3.1335 H         1 <0>         0.0953
     35 H8          0.5319    0.6630    2.5370 H         1 <0>         0.0991
     36 H9         -1.5670    1.8655    2.3110 H         1 <0>         0.1352
     37 H10        -3.8845    2.1093    3.1062 H         1 <0>         0.1348
     38 H11        -3.8089   -1.9037    4.5530 H         1 <0>         0.1336
     39 H12        -1.4947   -2.1491    3.7489 H         1 <0>         0.1307
     40 H13         0.1053   -7.8204   -1.0457 H         1 <0>         0.0953
     41 H14         0.9893   -6.9262    0.2142 H         1 <0>         0.0515
     42 H15        -0.7905   -6.9508    0.2230 H         1 <0>         0.0501
     43 H16        -0.5135   -1.0161   -3.1561 H         1 <0>         0.0628
     44 H17        -0.5349    0.6688   -2.5826 H         1 <0>         0.0621
     45 H18         1.9837   -1.0273   -2.8809 H         1 <0>         0.0674
     46 H19         1.5495    1.9479   -2.3549 H         1 <0>         0.0324
     47 H20         2.1106    0.7537   -1.1602 H         1 <0>         0.0377
     48 H21         3.1267    1.1507   -2.5667 H         1 <0>         0.0807
     49 H22         0.8629   -0.4784   -5.0614 H         1 <0>         0.0535
     50 H23         0.9438    1.2465   -4.6294 H         1 <0>         0.0534
@<TRIPOS>BOND
     1    1    2 1
     2    1   28 1
     3    1   29 1
     4    1   30 1
     5    2   10 1
     6    2    3 2
     7    3    4 1
     8    3   21 1
     9    4    9 ar
    10    4    5 ar
    11    5    6 ar
    12    5   31 1
    13    6    7 ar
    14    6   19 1
    15    7    8 ar
    16    7   32 1
    17    8    9 ar
    18    8   33 1
    19    9   10 1
    20   10   11 1
    21   11   12 1
    22   11   34 1
    23   11   35 1
    24   12   17 ar
    25   12   13 ar
    26   13   14 ar
    27   13   36 1
    28   14   15 ar
    29   14   37 1
    30   15   16 ar
    31   15   18 1
    32   16   17 ar
    33   16   38 1
    34   17   39 1
    35   19   20 1
    36   20   40 1
    37   20   41 1
    38   20   42 1
    39   21   22 1
    40   21   43 1
    41   21   44 1
    42   22   23 1
    43   22   24 1
    44   22   45 1
    45   23   46 1
    46   23   47 1
    47   23   48 1
    48   24   25 1
    49   24   49 1
    50   24   50 1
    51   25   26 2
    52   25   27 1
@<TRIPOS>MOLECULE
CHEMBL352174__1
   50    52     0     0     0
SMALL
USER_CHARGES

@<TRIPOS>ATOM
      1 C1         -0.0184    1.5028    0.0103 C.3       1 <0>        -0.0966
      2 C2          0.0021   -0.0041    0.0020 C.2       1 <0>         0.0824
      3 C3          0.0074   -0.7686   -1.1014 C.2       1 <0>        -0.1450
      4 C4          0.0293   -2.1641   -0.6562 C.ar      1 <0>        -0.0524
      5 C5          0.0430   -3.3930   -1.3197 C.ar      1 <0>        -0.0982
      6 C6          0.0627   -4.5631   -0.5876 C.ar      1 <0>         0.0908
      7 C7          0.0685   -4.5202    0.8044 C.ar      1 <0>        -0.1808
      8 C8          0.0552   -3.3144    1.4689 C.ar      1 <0>        -0.0963
      9 C9          0.0357   -2.1241    0.7494 C.ar      1 <0>         0.0743
     10 N1          0.0239   -0.7953    1.1178 N.pl3     1 <0>        -0.4793
     11 C10         0.0308   -0.3042    2.4980 C.3       1 <0>         0.1513
     12 C11        -1.3874   -0.1552    2.9853 C.ar      1 <0>        -0.0924
     13 C12        -2.0590    1.0391    2.8024 C.ar      1 <0>        -0.0963
     14 C13        -3.3600    1.1761    3.2488 C.ar      1 <0>        -0.0903
     15 C14        -3.9899    0.1178    3.8786 C.ar      1 <0>        -0.0848
     16 C15        -3.3175   -1.0771    4.0613 C.ar      1 <0>        -0.0911
     17 C16        -2.0184   -1.2149    3.6099 C.ar      1 <0>        -0.0930
     18 Br1        -5.7695    0.3047    4.4900 Br        1 <0>        -0.0516
     19 O1          0.0761   -5.7626   -1.2282 O.3       1 <0>        -0.3192
     20 C17         0.0962   -6.9345   -0.4107 C.3       1 <0>         0.0310
     21 C18        -0.0070   -0.2832   -2.5281 C.3       1 <0>        -0.0451
     22 C19         1.4305   -0.0982   -3.0183 C.3       1 <0>        -0.0556
     23 C20         2.1340   -1.4562   -3.0599 C.3       1 <0>        -0.1399
     24 C21         1.4163    0.5120   -4.4213 C.3       1 <0>        -0.1800
     25 C22         2.8290    0.8078   -4.8547 C.2       1 <0>         0.4905
     26 O2          3.7608    0.5542   -4.1105 O.co2     1 <0>        -0.6932
     27 O3          3.0401    1.3009   -5.9497 O.co2     1 <0>        -0.7120
     28 H1          1.0042    1.8801    0.0026 H         1 <0>         0.0804
     29 H2         -0.5455    1.8639   -0.8728 H         1 <0>         0.0866
     30 H3         -0.5286    1.8543    0.9071 H         1 <0>         0.0620
     31 H4          0.0378   -3.4277   -2.3992 H         1 <0>         0.1308
     32 H5          0.0832   -5.4414    1.3679 H         1 <0>         0.1261
     33 H6          0.0598   -3.2928    2.5486 H         1 <0>         0.1152
     34 H7          0.5607   -1.0138    3.1335 H         1 <0>         0.0953
     35 H8          0.5319    0.6630    2.5370 H         1 <0>         0.0993
     36 H9         -1.5670    1.8655    2.3110 H         1 <0>         0.1353
     37 H10        -3.8845    2.1093    3.1062 H         1 <0>         0.1348
     38 H11        -3.8089   -1.9037    4.5530 H         1 <0>         0.1335
     39 H12        -1.4947   -2.1491    3.7489 H         1 <0>         0.1306
     40 H13         0.1053   -7.8204   -1.0457 H         1 <0>         0.0951
     41 H14         0.9893   -6.9262    0.2142 H         1 <0>         0.0514
     42 H15        -0.7905   -6.9508    0.2230 H         1 <0>         0.0501
     43 H16        -0.5135   -1.0161   -3.1561 H         1 <0>         0.0630
     44 H17        -0.5349    0.6688   -2.5826 H         1 <0>         0.0618
     45 H18         1.9635    0.5665   -2.3384 H         1 <0>         0.0648
     46 H19         1.6010   -2.1209   -3.7397 H         1 <0>         0.0316
     47 H20         3.1581   -1.3244   -3.4091 H         1 <0>         0.0793
     48 H21         2.1441   -1.8909   -2.0603 H         1 <0>         0.0395
     49 H22         0.9620   -0.1917   -5.1189 H         1 <0>         0.0541
     50 H23         0.8387    1.4362   -4.4097 H         1 <0>         0.0524
@<TRIPOS>BOND
     1    1    2 1
     2    1   28 1
     3    1   29 1
     4    1   30 1
     5    2   10 1
     6    2    3 2
     7    3    4 1
     8    3   21 1
     9    4    9 ar
    10    4    5 ar
    11    5    6 ar
    12    5   31 1
    13    6    7 ar
    14    6   19 1
    15    7    8 ar
    16    7   32 1
    17    8    9 ar
    18    8   33 1
    19    9   10 1
    20   10   11 1
    21   11   12 1
    22   11   34 1
    23   11   35 1
    24   12   17 ar
    25   12   13 ar
    26   13   14 ar
    27   13   36 1
    28   14   15 ar
    29   14   37 1
    30   15   16 ar
    31   15   18 1
    32   16   17 ar
    33   16   38 1
    34   17   39 1
    35   19   20 1
    36   20   40 1
    37   20   41 1
    38   20   42 1
    39   21   22 1
    40   21   43 1
    41   21   44 1
    42   22   23 1
    43   22   24 1
    44   22   45 1
    45   23   46 1
    46   23   47 1
    47   23   48 1
    48   24   25 1
    49   24   49 1
    50   24   50 1
    51   25   26 2
    52   25   27 1
@<TRIPOS>MOLECULE
CHEMBL70213
   56    58     0     0     0
SMALL
USER_CHARGES

@<TRIPOS>ATOM
      1 C1         -0.1471    1.1943    0.8793 C.3       1 <0>        -0.1162
      2 C2         -0.0267   -0.2792    0.5867 C.ar      1 <0>        -0.0645
      3 C3          1.0316   -0.7459   -0.1669 C.ar      1 <0>        -0.1158
      4 C4          1.1432   -2.1020   -0.4361 C.ar      1 <0>         0.1151
      5 C5          0.1907   -2.9826    0.0534 C.ar      1 <0>        -0.0834
      6 C6         -0.8692   -2.5117    0.8079 C.ar      1 <0>        -0.0731
      7 C7         -0.9753   -1.1598    1.0797 C.ar      1 <0>        -0.1039
      8 C8         -2.2068   -0.9027    1.9218 C.3       1 <0>        -0.0775
      9 C9         -3.0706   -2.1731    1.7727 C.3       1 <0>        -0.1202
     10 C10        -2.0231   -3.2541    1.4473 C.3       1 <0>        -0.0844
     11 C11         0.3098   -4.4564   -0.2377 C.3       1 <0>        -0.0036
     12 C12         1.6578   -4.7372   -0.9048 C.3       1 <0>        -0.1011
     13 C13         1.8450   -6.2477   -1.0604 C.3       1 <0>        -0.1254
     14 C14         3.1929   -6.5286   -1.7275 C.3       1 <0>        -0.1161
     15 C15         3.3801   -8.0391   -1.8832 C.3       1 <0>        -0.0927
     16 C16         4.7281   -8.3199   -2.5503 C.3       1 <0>        -0.1832
     17 C17         4.9124   -9.8077   -2.7036 C.2       1 <0>         0.4872
     18 O1          4.0460  -10.5725   -2.3152 O.co2     1 <0>        -0.7000
     19 O2          5.9280  -10.2465   -3.2159 O.co2     1 <0>        -0.7106
     20 C18        -0.8047   -4.8780   -1.1602 C.ar      1 <0>        -0.0687
     21 C19        -0.9842   -4.2296   -2.3679 C.ar      1 <0>        -0.0763
     22 C20        -2.0057   -4.6156   -3.2149 C.ar      1 <0>        -0.1520
     23 C21        -2.8495   -5.6522   -2.8535 C.ar      1 <0>         0.0907
     24 C22        -2.6688   -6.3008   -1.6437 C.ar      1 <0>        -0.1512
     25 C23        -1.6434   -5.9165   -0.8007 C.ar      1 <0>        -0.0878
     26 F1         -3.8487   -6.0301   -3.6806 F         1 <0>        -0.1435
     27 O3          2.1830   -2.5662   -1.1778 O.3       1 <0>        -0.4851
     28 C24         2.0635    0.2162   -0.6965 C.3       1 <0>        -0.1135
     29 H1          0.3826    1.4256    1.8034 H         1 <0>         0.0691
     30 H2          0.2881    1.7644    0.0586 H         1 <0>         0.0692
     31 H3         -1.1990    1.4584    0.9876 H         1 <0>         0.0643
     32 H4         -1.9276   -0.7555    2.9651 H         1 <0>         0.0775
     33 H5         -2.7461   -0.0326    1.5474 H         1 <0>         0.0721
     34 H6         -3.5914   -2.3988    2.7032 H         1 <0>         0.0759
     35 H7         -3.7759   -2.0675    0.9484 H         1 <0>         0.0703
     36 H8         -2.4301   -3.9900    0.7539 H         1 <0>         0.0799
     37 H9         -1.6972   -3.7397    2.3671 H         1 <0>         0.0786
     38 H10         0.2418   -5.0175    0.6944 H         1 <0>         0.0857
     39 H11         1.6825   -4.2650   -1.8869 H         1 <0>         0.0907
     40 H12         2.4600   -4.3334   -0.2872 H         1 <0>         0.0605
     41 H13         1.8202   -6.7200   -0.0783 H         1 <0>         0.0553
     42 H14         1.0428   -6.6516   -1.6781 H         1 <0>         0.0597
     43 H15         3.2177   -6.0563   -2.7096 H         1 <0>         0.0541
     44 H16         3.9951   -6.1247   -1.1099 H         1 <0>         0.0522
     45 H17         3.3554   -8.5113   -0.9011 H         1 <0>         0.0557
     46 H18         2.5779   -8.4429   -2.5008 H         1 <0>         0.0560
     47 H19         4.7528   -7.8476   -3.5324 H         1 <0>         0.0536
     48 H20         5.5303   -7.9161   -1.9327 H         1 <0>         0.0533
     49 H21        -0.3261   -3.4209   -2.6494 H         1 <0>         0.1302
     50 H22        -2.1460   -4.1087   -4.1582 H         1 <0>         0.1315
     51 H23        -3.3266   -7.1093   -1.3606 H         1 <0>         0.1336
     52 H24        -1.4995   -6.4253    0.1411 H         1 <0>         0.1313
     53 H25         2.9914   -2.7189   -0.6697 H         1 <0>         0.3878
     54 H26         2.8672    0.3243    0.0319 H         1 <0>         0.0670
     55 H27         2.4705   -0.1664   -1.6325 H         1 <0>         0.0728
     56 H28         1.5992    1.1867   -0.8719 H         1 <0>         0.0686
@<TRIPOS>BOND
     1    1    2 1
     2    1   29 1
     3    1   30 1
     4    1   31 1
     5    2    7 ar
     6    2    3 ar
     7    3    4 ar
     8    3   28 1
     9    4    5 ar
    10    4   27 1
    11    5    6 ar
    12    5   11 1
    13    6   10 1
    14    6    7 ar
    15    7    8 1
    16    8    9 1
    17    8   32 1
    18    8   33 1
    19    9   10 1
    20    9   34 1
    21    9   35 1
    22   10   36 1
    23   10   37 1
    24   11   12 1
    25   11   20 1
    26   11   38 1
    27   12   13 1
    28   12   39 1
    29   12   40 1
    30   13   14 1
    31   13   41 1
    32   13   42 1
    33   14   15 1
    34   14   43 1
    35   14   44 1
    36   15   16 1
    37   15   45 1
    38   15   46 1
    39   16   17 1
    40   16   47 1
    41   16   48 1
    42   17   18 2
    43   17   19 1
    44   20   25 ar
    45   20   21 ar
    46   21   22 ar
    47   21   49 1
    48   22   23 ar
    49   22   50 1
    50   23   24 ar
    51   23   26 1
    52   24   25 ar
    53   24   51 1
    54   25   52 1
    55   27   53 1
    56   28   54 1
    57   28   55 1
    58   28   56 1
@<TRIPOS>MOLECULE
CHEMBL70213__1
   56    58     0     0     0
SMALL
USER_CHARGES

@<TRIPOS>ATOM
      1 C1         -0.0228    1.5020    0.0941 C.3       1 <0>        -0.1161
      2 C2         -0.0319   -0.0043    0.0507 C.ar      1 <0>        -0.0649
      3 C3         -0.3743   -0.6561   -1.1171 C.ar      1 <0>        -0.1134
      4 C4         -0.3823   -2.0425   -1.1578 C.ar      1 <0>         0.1125
      5 C5         -0.0461   -2.7674   -0.0249 C.ar      1 <0>        -0.0779
      6 C6          0.2963   -2.1113    1.1443 C.ar      1 <0>        -0.0770
      7 C7          0.3089   -0.7288    1.1809 C.ar      1 <0>        -0.1015
      8 C8          0.7200   -0.2577    2.5596 C.3       1 <0>        -0.0779
      9 C9          0.5386   -1.4855    3.4769 C.3       1 <0>        -0.1206
     10 C10         0.6960   -2.6625    2.4963 C.3       1 <0>        -0.0819
     11 C11        -0.0539   -4.2738   -0.0667 C.3       1 <0>        -0.0045
     12 C12        -1.1859   -4.7528   -0.9778 C.3       1 <0>        -0.1175
     13 C13        -1.2735   -6.2793   -0.9228 C.3       1 <0>        -0.1191
     14 C14        -2.4054   -6.7583   -1.8339 C.3       1 <0>        -0.1168
     15 C15        -2.4930   -8.2848   -1.7790 C.3       1 <0>        -0.0922
     16 C16        -3.6250   -8.7639   -2.6901 C.3       1 <0>        -0.1834
     17 C17        -3.7113  -10.2674   -2.6359 C.2       1 <0>         0.4875
     18 O1         -2.9390  -10.8974   -1.9337 O.co2     1 <0>        -0.7002
     19 O2         -4.5534  -10.8538   -3.2943 O.co2     1 <0>        -0.7106
     20 C18         1.2651   -4.7683   -0.6019 C.ar      1 <0>        -0.0646
     21 C19         1.7300   -4.3130   -1.8216 C.ar      1 <0>        -0.0905
     22 C20         2.9397   -4.7655   -2.3133 C.ar      1 <0>        -0.1502
     23 C21         3.6862   -5.6752   -1.5837 C.ar      1 <0>         0.0897
     24 C22         3.2196   -6.1306   -0.3622 C.ar      1 <0>        -0.1467
     25 C23         2.0121   -5.6727    0.1298 C.ar      1 <0>        -0.0864
     26 F1          4.8688   -6.1186   -2.0636 F         1 <0>        -0.1426
     27 O3         -0.7193   -2.6886   -2.3050 O.3       1 <0>        -0.4774
     28 C24        -0.7393    0.1373   -2.3452 C.3       1 <0>        -0.1147
     29 H1          0.9638    1.8678   -0.1906 H         1 <0>         0.0691
     30 H2         -0.7684    1.8900   -0.5999 H         1 <0>         0.0697
     31 H3         -0.2572    1.8378    1.1043 H         1 <0>         0.0649
     32 H4          1.7625    0.0605    2.5553 H         1 <0>         0.0777
     33 H5          0.0761    0.5582    2.8880 H         1 <0>         0.0731
     34 H6          1.3093   -1.5108    4.2473 H         1 <0>         0.0765
     35 H7         -0.4563   -1.4929    3.9223 H         1 <0>         0.0719
     36 H8          0.0424   -3.4886    2.7762 H         1 <0>         0.0776
     37 H9          1.7353   -2.9906    2.4787 H         1 <0>         0.0798
     38 H10        -0.2073   -4.6644    0.9393 H         1 <0>         0.0852
     39 H11        -2.1294   -4.3224   -0.6420 H         1 <0>         0.0615
     40 H12        -0.9864   -4.4370   -2.0018 H         1 <0>         0.0995
     41 H13        -0.3300   -6.7097   -1.2586 H         1 <0>         0.0592
     42 H14        -1.4729   -6.5952    0.1012 H         1 <0>         0.0549
     43 H15        -3.3489   -6.3279   -1.4982 H         1 <0>         0.0528
     44 H16        -2.2060   -6.4425   -2.8579 H         1 <0>         0.0538
     45 H17        -1.5496   -8.7152   -2.1147 H         1 <0>         0.0559
     46 H18        -2.6925   -8.6007   -0.7550 H         1 <0>         0.0558
     47 H19        -4.5685   -8.3335   -2.3543 H         1 <0>         0.0535
     48 H20        -3.4255   -8.4480   -3.7141 H         1 <0>         0.0536
     49 H21         1.1474   -3.6037   -2.3907 H         1 <0>         0.1235
     50 H22         3.3025   -4.4099   -3.2663 H         1 <0>         0.1331
     51 H23         3.8009   -6.8404    0.2075 H         1 <0>         0.1347
     52 H24         1.6500   -6.0243    1.0846 H         1 <0>         0.1324
     53 H25         0.0070   -2.7704   -2.9382 H         1 <0>         0.3787
     54 H26         0.1583    0.3318   -2.9322 H         1 <0>         0.0670
     55 H27        -1.4505   -0.4296   -2.9460 H         1 <0>         0.0735
     56 H28        -1.1898    1.0837   -2.0459 H         1 <0>         0.0700
@<TRIPOS>BOND
     1    1    2 1
     2    1   29 1
     3    1   30 1
     4    1   31 1
     5    2    7 ar
     6    2    3 ar
     7    3    4 ar
     8    3   28 1
     9    4    5 ar
    10    4   27 1
    11    5    6 ar
    12    5   11 1
    13    6   10 1
    14    6    7 ar
    15    7    8 1
    16    8    9 1
    17    8   32 1
    18    8   33 1
    19    9   10 1
    20    9   34 1
    21    9   35 1
    22   10   36 1
    23   10   37 1
    24   11   12 1
    25   11   20 1
    26   11   38 1
    27   12   13 1
    28   12   39 1
    29   12   40 1
    30   13   14 1
    31   13   41 1
    32   13   42 1
    33   14   15 1
    34   14   43 1
    35   14   44 1
    36   15   16 1
    37   15   45 1
    38   15   46 1
    39   16   17 1
    40   16   47 1
    41   16   48 1
    42   17   18 2
    43   17   19 1
    44   20   25 ar
    45   20   21 ar
    46   21   22 ar
    47   21   49 1
    48   22   23 ar
    49   22   50 1
    50   23   24 ar
    51   23   26 1
    52   24   25 ar
    53   24   51 1
    54   25   52 1
    55   27   53 1
    56   28   54 1
    57   28   55 1
    58   28   56 1
@<TRIPOS>MOLECULE
CHEMBL405744
   33    34     0     0     0
SMALL
USER_CHARGES

@<TRIPOS>ATOM
      1 C1         -0.0169    1.3924    0.0097 C.ar      1 <0>        -0.1373
      2 C2          1.1701    2.0950    0.0021 C.ar      1 <0>        -0.0035
      3 C3          2.3776    1.4195   -0.0130 C.ar      1 <0>        -0.6992
      4 C4          2.4038    0.0361   -0.0207 C.ar      1 <0>         0.0026
      5 C5          1.2245   -0.6793   -0.0137 C.ar      1 <0>        -0.1847
      6 C6          0.0021   -0.0041    0.0020 C.ar      1 <0>         0.1680
      7 N1         -1.1719   -0.7076    0.0094 N.2       1 <0>        -0.5214
      8 C7         -1.3283   -1.7229   -0.7927 C.2       1 <0>         0.2580
      9 C8         -2.5904   -2.4793   -0.7847 C.ar      1 <0>        -0.1368
     10 C9         -3.6269   -2.1044    0.0814 C.ar      1 <0>        -0.0490
     11 C10        -4.8093   -2.8080    0.0932 C.ar      1 <0>        -0.1828
     12 C11        -4.9858   -3.8958   -0.7533 C.ar      1 <0>         0.1758
     13 C12        -3.9548   -4.2813   -1.6264 C.ar      1 <0>        -0.1760
     14 C13        -2.7579   -3.5653   -1.6426 C.ar      1 <0>        -0.0221
     15 C14        -4.1388   -5.4336   -2.5239 C.2       1 <0>         0.5209
     16 O1         -3.2395   -5.7672   -3.2832 O.co2     1 <0>        -0.6890
     17 O2         -5.1910   -6.0575   -2.5104 O.co2     1 <0>        -0.6685
     18 O3         -6.1520   -4.5850   -0.7363 O.3       1 <0>        -0.4738
     19 S1          3.8890    2.3252   -0.0232 S.o2      1 <0>         2.7046
     20 O4          4.8720    1.4686   -0.5879 O.2       1 <0>        -0.9664
     21 O5          3.5919    3.6050   -0.5647 O.2       1 <0>        -0.9670
     22 N2          4.3244    2.5690    1.5559 N.pl3     1 <0>        -1.2513
     23 H1         -0.9586    1.9209    0.0260 H         1 <0>         0.1390
     24 H2          1.1570    3.1749    0.0077 H         1 <0>         0.1450
     25 H3          3.3499   -0.4848   -0.0325 H         1 <0>         0.1434
     26 H4          1.2464   -1.7591   -0.0205 H         1 <0>         0.1353
     27 H5         -0.5315   -2.0091   -1.4633 H         1 <0>         0.1131
     28 H6         -3.4967   -1.2603    0.7424 H         1 <0>         0.1318
     29 H7         -5.6034   -2.5138    0.7634 H         1 <0>         0.1268
     30 H8         -1.9626   -3.8535   -2.3141 H         1 <0>         0.1379
     31 H9         -6.8167   -4.2485   -1.3528 H         1 <0>         0.3904
     32 H10         3.7660    2.2266    2.2713 H         1 <0>         0.4170
     33 H11         5.1378    3.0541    1.7654 H         1 <0>         0.4192
@<TRIPOS>BOND
     1    1    6 ar
     2    1    2 ar
     3    1   23 1
     4    2    3 ar
     5    2   24 1
     6    3    4 ar
     7    3   19 1
     8    4    5 ar
     9    4   25 1
    10    5    6 ar
    11    5   26 1
    12    6    7 1
    13    7    8 2
    14    8    9 1
    15    8   27 1
    16    9   14 ar
    17    9   10 ar
    18   10   11 ar
    19   10   28 1
    20   11   12 ar
    21   11   29 1
    22   12   13 ar
    23   12   18 1
    24   13   14 ar
    25   13   15 1
    26   14   30 1
    27   15   16 2
    28   15   17 1
    29   18   31 1
    30   19   20 2
    31   19   21 2
    32   19   22 1
    33   22   32 1
    34   22   33 1
@<TRIPOS>MOLECULE
CHEMBL131648
   66    71     0     0     0
SMALL
USER_CHARGES

@<TRIPOS>ATOM
      1 C1          3.1735   -4.2494   -0.1504 C.ar      1 <0>        -0.1099
      2 C2          2.7822   -3.3694    0.8426 C.ar      1 <0>        -0.1154
      3 C3          3.0767   -2.0370    0.7056 C.ar      1 <0>        -0.1035
      4 C4          3.7856   -1.5425   -0.4090 C.ar      1 <0>        -0.0624
      5 C5          4.2101   -2.4043   -1.3431 C.ar      1 <0>        -0.1048
      6 C6          3.8726   -3.7670   -1.2281 C.ar      1 <0>        -0.1233
      7 C7          5.1064   -2.1667   -2.5382 C.3       1 <0>         0.1126
      8 O1          4.8375   -0.9912   -3.2419 O.3       1 <0>        -0.3123
      9 C8          4.9526    0.2424   -2.6760 C.ar      1 <0>         0.1244
     10 C9          5.6530    1.1103   -3.5522 C.ar      1 <0>        -0.1662
     11 C10         5.8450    2.4292   -3.2528 C.ar      1 <0>        -0.0486
     12 C11         5.3307    2.9379   -2.0543 C.ar      1 <0>        -0.1419
     13 C12         4.6681    2.0751   -1.1890 C.ar      1 <0>        -0.0517
     14 C13         4.5129    0.7157   -1.4948 C.ar      1 <0>        -0.1550
     15 C14         3.9181   -0.0685   -0.3879 C.3       1 <0>         0.0397
     16 S1          4.8627    0.3448    1.1046 S.3       1 <0>        -0.1885
     17 C15         6.5024   -0.3676    0.7975 C.3       1 <0>        -0.1423
     18 C16         7.3778   -0.1867    2.0393 C.3       1 <0>         0.0125
     19 N1          8.7421   -0.6468    1.7478 N.4       1 <0>        -0.3851
     20 C17         8.7258   -2.0925    1.4948 C.3       1 <0>        -0.0035
     21 C18        10.1305   -2.5629    1.1113 C.3       1 <0>        -0.1654
     22 C19        11.0970   -2.2548    2.2585 C.3       1 <0>         0.1613
     23 C20        11.0503   -0.7547    2.5633 C.3       1 <0>        -0.1666
     24 C21         9.6115   -0.3513    2.8930 C.3       1 <0>         0.0021
     25 N2         12.4574   -2.6332    1.8681 N.am      1 <0>        -0.5374
     26 C22        13.2591   -3.5720    2.5130 C.ar      1 <0>         0.0819
     27 C23        13.0709   -4.3826    3.6221 C.ar      1 <0>        -0.1045
     28 C24        14.0789   -5.2338    4.0305 C.ar      1 <0>        -0.1044
     29 C25        15.2765   -5.2807    3.3375 C.ar      1 <0>        -0.1013
     30 C26        15.4734   -4.4767    2.2320 C.ar      1 <0>        -0.1011
     31 C27        14.4668   -3.6196    1.8138 C.ar      1 <0>         0.0923
     32 N3         14.3614   -2.7083    0.7658 N.am      1 <0>        -0.6402
     33 C28        13.1435   -2.1371    0.8213 C.2       1 <0>         0.6844
     34 O2         12.7273   -1.2973    0.0452 O.2       1 <0>        -0.5516
     35 C29         5.4894    4.3620   -1.7158 C.2       1 <0>         0.5194
     36 O3          6.1721    5.0872   -2.4263 O.co2     1 <0>        -0.6817
     37 O4          4.9386    4.8201   -0.7242 O.co2     1 <0>        -0.6816
     38 H1          2.9364   -5.3005   -0.0764 H         1 <0>         0.1278
     39 H2          2.2526   -3.7266    1.7134 H         1 <0>         0.1290
     40 H3          2.7567   -1.3471    1.4724 H         1 <0>         0.1305
     41 H4          4.1720   -4.4504   -2.0089 H         1 <0>         0.1248
     42 H5          6.1398   -2.1338   -2.1933 H         1 <0>         0.0510
     43 H6          5.0013   -3.0096   -3.2213 H         1 <0>         0.1145
     44 H7          6.0441    0.7186   -4.4796 H         1 <0>         0.1261
     45 H8          6.3867    3.0711   -3.9317 H         1 <0>         0.1368
     46 H9          4.2648    2.4593   -0.2636 H         1 <0>         0.1415
     47 H10         2.9171    0.3314   -0.2266 H         1 <0>         0.1334
     48 H11         6.4013   -1.4301    0.5759 H         1 <0>         0.0985
     49 H12         6.9653    0.1379   -0.0501 H         1 <0>         0.1043
     50 H13         7.4012    0.8670    2.3169 H         1 <0>         0.1446
     51 H14         6.9656   -0.7703    2.8625 H         1 <0>         0.1391
     52 H15         8.4013   -2.6148    2.3948 H         1 <0>         0.1335
     53 H16         8.0351   -2.3106    0.6802 H         1 <0>         0.1350
     54 H17        10.1167   -3.6369    0.9256 H         1 <0>         0.1163
     55 H18        10.4559   -2.0414    0.2112 H         1 <0>         0.1079
     56 H19        10.8015   -2.8162    3.1449 H         1 <0>         0.1149
     57 H20        11.6939   -0.5362    3.4154 H         1 <0>         0.1180
     58 H21        11.3948   -0.1956    1.6933 H         1 <0>         0.1088
     59 H22         9.5747    0.7161    3.1107 H         1 <0>         0.1413
     60 H23         9.2681   -0.9107    3.7632 H         1 <0>         0.1329
     61 H24        12.1382   -4.3482    4.1655 H         1 <0>         0.1289
     62 H25        13.9324   -5.8652    4.8943 H         1 <0>         0.1374
     63 H26        16.0603   -5.9486    3.6631 H         1 <0>         0.1384
     64 H27        16.4093   -4.5156    1.6944 H         1 <0>         0.1357
     65 H28         9.0899   -0.1682    0.9305 H         1 <0>         0.4292
     66 H29        15.0471   -2.5203    0.1059 H         1 <0>         0.4394
@<TRIPOS>BOND
     1    1    6 ar
     2    1    2 ar
     3    1   38 1
     4    2    3 ar
     5    2   39 1
     6    3    4 ar
     7    3   40 1
     8    4   15 1
     9    4    5 ar
    10    5    6 ar
    11    5    7 1
    12    6   41 1
    13    7    8 1
    14    7   42 1
    15    7   43 1
    16    8    9 1
    17    9   14 ar
    18    9   10 ar
    19   10   11 ar
    20   10   44 1
    21   11   12 ar
    22   11   45 1
    23   12   13 ar
    24   12   35 1
    25   13   14 ar
    26   13   46 1
    27   14   15 1
    28   15   16 1
    29   15   47 1
    30   16   17 1
    31   17   18 1
    32   17   48 1
    33   17   49 1
    34   18   19 1
    35   18   50 1
    36   18   51 1
    37   19   24 1
    38   19   20 1
    39   19   65 1
    40   20   21 1
    41   20   52 1
    42   20   53 1
    43   21   22 1
    44   21   54 1
    45   21   55 1
    46   22   23 1
    47   22   25 1
    48   22   56 1
    49   23   24 1
    50   23   57 1
    51   23   58 1
    52   24   59 1
    53   24   60 1
    54   25   33 am
    55   25   26 1
    56   26   31 ar
    57   26   27 ar
    58   27   28 ar
    59   27   61 1
    60   28   29 ar
    61   28   62 1
    62   29   30 ar
    63   29   63 1
    64   30   31 ar
    65   30   64 1
    66   31   32 1
    67   32   33 am
    68   32   66 1
    69   33   34 2
    70   35   36 2
    71   35   37 1
@<TRIPOS>MOLECULE
CHEMBL131648__1
   66    71     0     0     0
SMALL
USER_CHARGES

@<TRIPOS>ATOM
      1 C1          3.9989   -4.6778   -1.4334 C.ar      1 <0>        -0.1098
      2 C2          3.4238   -3.6979   -2.2225 C.ar      1 <0>        -0.1185
      3 C3          3.3577   -2.4134   -1.7468 C.ar      1 <0>        -0.1040
      4 C4          3.8398   -2.0683   -0.4670 C.ar      1 <0>        -0.0672
      5 C5          4.3477   -3.0293    0.3165 C.ar      1 <0>        -0.1002
      6 C6          4.4577   -4.3411   -0.1849 C.ar      1 <0>        -0.1253
      7 C7          4.7853   -2.9633    1.7629 C.3       1 <0>         0.1067
      8 O1          5.5087   -1.8175    2.0996 O.3       1 <0>        -0.3181
      9 C8          4.9796   -0.5657    2.0089 C.ar      1 <0>         0.1197
     10 C9          5.2728    0.1671    3.1872 C.ar      1 <0>        -0.1634
     11 C10         4.9128    1.4778    3.3247 C.ar      1 <0>        -0.0489
     12 C11         4.2451    2.1150    2.2722 C.ar      1 <0>        -0.1386
     13 C12         3.9393    1.3830    1.1307 C.ar      1 <0>        -0.0535
     14 C13         4.2822    0.0280    1.0221 C.ar      1 <0>        -0.1501
     15 C14         3.7401   -0.6165   -0.1963 C.3       1 <0>         0.0398
     16 S1          4.5017    0.2269   -1.6102 S.3       1 <0>        -0.1901
     17 C15         6.2462   -0.2633   -1.5259 C.3       1 <0>        -0.1404
     18 C16         7.0384    0.4837   -2.6008 C.3       1 <0>         0.0114
     19 N1          8.4511    0.0868   -2.5325 N.4       1 <0>        -0.3826
     20 C17         9.0179    0.5194   -1.2495 C.3       1 <0>        -0.0078
     21 C18        10.4661    0.0378   -1.1391 C.3       1 <0>        -0.1630
     22 C19        11.2854    0.6334   -2.2877 C.3       1 <0>         0.1592
     23 C20        10.6420    0.2371   -3.6196 C.3       1 <0>        -0.1640
     24 C21         9.1872    0.7113   -3.6382 C.3       1 <0>         0.0016
     25 N2         12.6549    0.1162   -2.2321 N.am      1 <0>        -0.5363
     26 C22        13.8093    0.8806   -2.0793 C.ar      1 <0>         0.0819
     27 C23        14.0383    2.2412   -1.9423 C.ar      1 <0>        -0.1032
     28 C24        15.3300    2.7105   -1.8054 C.ar      1 <0>        -0.1030
     29 C25        16.3969    1.8283   -1.8049 C.ar      1 <0>        -0.1009
     30 C26        16.1787    0.4714   -1.9413 C.ar      1 <0>        -0.1016
     31 C27        14.8853   -0.0093   -2.0784 C.ar      1 <0>         0.0906
     32 N3         14.3514   -1.2867   -2.2306 N.am      1 <0>        -0.6401
     33 C28        13.0119   -1.1794   -2.3142 C.2       1 <0>         0.6856
     34 O2         12.2411   -2.1115   -2.4473 O.2       1 <0>        -0.5573
     35 C29         3.8728    3.5360    2.3727 C.2       1 <0>         0.5186
     36 O3          4.1468    4.1702    3.3823 O.co2     1 <0>        -0.6802
     37 O4          3.2895    4.0825    1.4465 O.co2     1 <0>        -0.6821
     38 H1          4.0813   -5.6930   -1.7926 H         1 <0>         0.1272
     39 H2          3.0328   -3.9410   -3.1995 H         1 <0>         0.1284
     40 H3          2.9241   -1.6447   -2.3693 H         1 <0>         0.1338
     41 H4          4.9148   -5.1022    0.4301 H         1 <0>         0.1245
     42 H5          3.8980   -3.0091    2.3943 H         1 <0>         0.0651
     43 H6          5.4020   -3.8361    1.9771 H         1 <0>         0.1142
     44 H7          5.7934   -0.3234    3.9964 H         1 <0>         0.1260
     45 H8          5.1400    2.0151    4.2335 H         1 <0>         0.1373
     46 H9          3.4276    1.8672    0.3122 H         1 <0>         0.1383
     47 H10         2.6802   -0.3650   -0.2356 H         1 <0>         0.1319
     48 H11         6.6459   -0.0161   -0.5424 H         1 <0>         0.1068
     49 H12         6.3304   -1.3371   -1.6929 H         1 <0>         0.0992
     50 H13         6.6386    0.2365   -3.5843 H         1 <0>         0.1392
     51 H14         6.9542    1.5575   -2.4338 H         1 <0>         0.1428
     52 H15         8.9917    1.6075   -1.1898 H         1 <0>         0.1373
     53 H16         8.4318    0.0974   -0.4331 H         1 <0>         0.1403
     54 H17        10.8857    0.3616   -0.1866 H         1 <0>         0.1183
     55 H18        10.4934   -1.0502   -1.1985 H         1 <0>         0.1061
     56 H19        11.3009    1.7197   -2.1993 H         1 <0>         0.1167
     57 H20        11.1873    0.7033   -4.4402 H         1 <0>         0.1169
     58 H21        10.6729   -0.8468   -3.7306 H         1 <0>         0.1064
     59 H22         8.7262    0.4309   -4.5853 H         1 <0>         0.1380
     60 H23         9.1575    1.7953   -3.5275 H         1 <0>         0.1348
     61 H24        13.2086    2.9325   -1.9429 H         1 <0>         0.1306
     62 H25        15.5085    3.7703   -1.6987 H         1 <0>         0.1384
     63 H26        17.4042    2.2028   -1.6978 H         1 <0>         0.1386
     64 H27        17.0135   -0.2137   -1.9412 H         1 <0>         0.1352
     65 H28         8.5214   -0.9170   -2.6076 H         1 <0>         0.4244
     66 H29        14.8579   -2.1131   -2.2661 H         1 <0>         0.4384
@<TRIPOS>BOND
     1    1    6 ar
     2    1    2 ar
     3    1   38 1
     4    2    3 ar
     5    2   39 1
     6    3    4 ar
     7    3   40 1
     8    4   15 1
     9    4    5 ar
    10    5    6 ar
    11    5    7 1
    12    6   41 1
    13    7    8 1
    14    7   42 1
    15    7   43 1
    16    8    9 1
    17    9   14 ar
    18    9   10 ar
    19   10   11 ar
    20   10   44 1
    21   11   12 ar
    22   11   45 1
    23   12   13 ar
    24   12   35 1
    25   13   14 ar
    26   13   46 1
    27   14   15 1
    28   15   16 1
    29   15   47 1
    30   16   17 1
    31   17   18 1
    32   17   48 1
    33   17   49 1
    34   18   19 1
    35   18   50 1
    36   18   51 1
    37   19   24 1
    38   19   20 1
    39   19   65 1
    40   20   21 1
    41   20   52 1
    42   20   53 1
    43   21   22 1
    44   21   54 1
    45   21   55 1
    46   22   23 1
    47   22   25 1
    48   22   56 1
    49   23   24 1
    50   23   57 1
    51   23   58 1
    52   24   59 1
    53   24   60 1
    54   25   33 am
    55   25   26 1
    56   26   31 ar
    57   26   27 ar
    58   27   28 ar
    59   27   61 1
    60   28   29 ar
    61   28   62 1
    62   29   30 ar
    63   29   63 1
    64   30   31 ar
    65   30   64 1
    66   31   32 1
    67   32   33 am
    68   32   66 1
    69   33   34 2
    70   35   36 2
    71   35   37 1
@<TRIPOS>MOLECULE
CHEMBL260944
   29    30     0     0     0
SMALL
USER_CHARGES

@<TRIPOS>ATOM
      1 C1         -0.0225    1.8097    0.0120 C.3       1 <0>        -0.6527
      2 S1          0.0021   -0.0041    0.0020 S.o2      1 <0>         2.4926
      3 O1          0.8352   -0.4880    1.0465 O.2       1 <0>        -0.9350
      4 O2         -1.3147   -0.5105   -0.1678 O.2       1 <0>        -0.9251
      5 C2          0.8454   -0.4373   -1.4831 C.ar      1 <0>        -0.6408
      6 C3          2.0584   -1.0915   -1.4238 C.ar      1 <0>        -0.0200
      7 C4          2.7218   -1.4329   -2.5890 C.ar      1 <0>        -0.1263
      8 C5          2.1750   -1.1210   -3.8216 C.ar      1 <0>        -0.0638
      9 C6          0.9632   -0.4672   -3.8966 C.ar      1 <0>        -0.1111
     10 C7          0.2845   -0.1243   -2.7239 C.ar      1 <0>         0.1080
     11 C8         -0.9772    0.5495   -2.7937 C.1       1 <0>        -0.1401
     12 C9         -2.0115    1.1019   -2.8509 C.1       1 <0>        -0.0682
     13 C10        -3.2732    1.7757   -2.9207 C.ar      1 <0>         0.0495
     14 C11        -3.9627    2.1372   -1.7550 C.ar      1 <0>        -0.1443
     15 C12        -5.1743    2.7850   -1.8696 C.ar      1 <0>         0.1050
     16 N1         -5.6848    3.0641   -3.0541 N.ar      1 <0>        -0.4764
     17 C13        -5.0697    2.7421   -4.1764 C.ar      1 <0>         0.1042
     18 C14        -3.8510    2.0977   -4.1566 C.ar      1 <0>        -0.1457
     19 H1          1.0001    2.1870    0.0043 H         1 <0>         0.1355
     20 H2         -0.5497    2.1708   -0.8711 H         1 <0>         0.1283
     21 H3         -0.5327    2.1613    0.9088 H         1 <0>         0.1376
     22 H4          2.4914   -1.3375   -0.4655 H         1 <0>         0.1532
     23 H5          3.6712   -1.9450   -2.5364 H         1 <0>         0.1402
     24 H6          2.6989   -1.3900   -4.7269 H         1 <0>         0.1400
     25 H7          0.5379   -0.2241   -4.8591 H         1 <0>         0.1388
     26 H8         -3.5514    1.9114   -0.7823 H         1 <0>         0.1445
     27 H9         -5.7134    3.0678   -0.9775 H         1 <0>         0.1654
     28 H10        -5.5254    2.9902   -5.1236 H         1 <0>         0.1646
     29 H11        -3.3513    1.8410   -5.0791 H         1 <0>         0.1422
@<TRIPOS>BOND
     1    1    2 1
     2    1   19 1
     3    1   20 1
     4    1   21 1
     5    2    3 2
     6    2    4 2
     7    2    5 1
     8    5   10 ar
     9    5    6 ar
    10    6    7 ar
    11    6   22 1
    12    7    8 ar
    13    7   23 1
    14    8    9 ar
    15    8   24 1
    16    9   10 ar
    17    9   25 1
    18   10   11 1
    19   11   12 3
    20   12   13 1
    21   13   18 ar
    22   13   14 ar
    23   14   15 ar
    24   14   26 1
    25   15   16 ar
    26   15   27 1
    27   16   17 ar
    28   17   18 ar
    29   17   28 1
    30   18   29 1
@<TRIPOS>MOLECULE
CHEMBL423638
   67    71     0     0     0
SMALL
USER_CHARGES

@<TRIPOS>ATOM
      1 C1         -0.8183   -2.1645   -0.2173 C.3       1 <0>         0.0193
      2 O1          0.5081   -1.7016   -0.4790 O.3       1 <0>        -0.3667
      3 C2          0.5869   -0.3090   -0.7899 C.3       1 <0>         0.1605
      4 C3         -0.0441    0.5056    0.3435 C.3       1 <0>        -0.1831
      5 C4          0.7568    0.2824    1.6290 C.3       1 <0>         0.0647
      6 O2          2.1194    0.6532    1.4101 O.3       1 <0>        -0.3804
      7 C5          2.7751   -0.1077    0.3937 C.3       1 <0>         0.0627
      8 C6          2.0553    0.0998   -0.9414 C.3       1 <0>        -0.1370
      9 C7         -0.1474   -0.0377   -2.0776 C.ar      1 <0>        -0.0439
     10 C8         -0.6943    1.2097   -2.3104 C.ar      1 <0>        -0.1507
     11 C9         -1.3701    1.4605   -3.4957 C.ar      1 <0>         0.1660
     12 C10        -1.4957    0.4577   -4.4459 C.ar      1 <0>        -0.2454
     13 C11        -0.9468   -0.7899   -4.2091 C.ar      1 <0>         0.1433
     14 C12        -0.2682   -1.0350   -3.0267 C.ar      1 <0>        -0.1726
     15 F1         -1.0682   -1.7677   -5.1335 F         1 <0>        -0.1324
     16 O3         -1.9087    2.6868   -3.7255 O.3       1 <0>        -0.2993
     17 C13        -2.5904    2.8736   -4.9674 C.3       1 <0>         0.1432
     18 C14        -3.1167    4.2836   -5.0445 C.2       1 <0>         0.0821
     19 C15        -2.9625    5.2644   -4.0642 C.2       1 <0>        -0.2162
     20 C16        -3.5779    6.4010   -4.5081 C.2       1 <0>         0.1350
     21 N1         -4.1012    6.1250   -5.7389 N.pl3     1 <0>        -0.3305
     22 N2         -3.7899    4.7939   -6.0449 N.2       1 <0>        -0.2645
     23 C17        -4.8164    7.0142   -6.5513 C.ar      1 <0>         0.2048
     24 C18        -4.3608    8.3138   -6.7296 C.ar      1 <0>        -0.1357
     25 C19        -5.0682    9.1882   -7.5312 C.ar      1 <0>        -0.0062
     26 C20        -6.2294    8.7709   -8.1555 C.ar      1 <0>        -0.6612
     27 C21        -6.6857    7.4774   -7.9799 C.ar      1 <0>        -0.0050
     28 C22        -5.9795    6.5964   -7.1845 C.ar      1 <0>        -0.1280
     29 S1         -7.1296    9.8898   -9.1763 S.o2      1 <0>         2.5009
     30 O4         -8.4690    9.4167   -9.1395 O.2       1 <0>        -0.9332
     31 O5         -6.8028   11.1794   -8.6769 O.2       1 <0>        -0.9330
     32 C23        -6.4341    9.6683  -10.8370 C.3       1 <0>        -0.6497
     33 C24        -3.6622    7.6907   -3.7885 C.ar      1 <0>        -0.0477
     34 C25        -4.7180    8.5668   -4.0423 C.ar      1 <0>        -0.1060
     35 C26        -4.7912    9.7680   -3.3674 C.ar      1 <0>        -0.1150
     36 C27        -3.8203   10.1047   -2.4411 C.ar      1 <0>        -0.1021
     37 C28        -2.7706    9.2406   -2.1853 C.ar      1 <0>        -0.1166
     38 C29        -2.6894    8.0337   -2.8489 C.ar      1 <0>        -0.0849
     39 H1         -1.1951   -1.6934    0.6905 H         1 <0>         0.0468
     40 H2         -1.4652   -1.9067   -1.0559 H         1 <0>         0.0482
     41 H3         -0.8063   -3.2466   -0.0870 H         1 <0>         0.0900
     42 H4         -0.0285    1.5640    0.0837 H         1 <0>         0.0896
     43 H5         -1.0739    0.1819    0.4951 H         1 <0>         0.0833
     44 H6          0.3378    0.8930    2.4289 H         1 <0>         0.0967
     45 H7          0.7070   -0.7695    1.9103 H         1 <0>         0.0570
     46 H8          3.8102    0.2219    0.3037 H         1 <0>         0.0977
     47 H9          2.7517   -1.1647    0.6588 H         1 <0>         0.0615
     48 H10         2.5270   -0.5140   -1.7088 H         1 <0>         0.0862
     49 H11         2.1133    1.1501   -1.2272 H         1 <0>         0.0896
     50 H12        -0.5960    1.9893   -1.5695 H         1 <0>         0.1428
     51 H13        -2.0216    0.6506   -5.3692 H         1 <0>         0.1431
     52 H14         0.1636   -2.0081   -2.8444 H         1 <0>         0.1442
     53 H15        -1.8988    2.6984   -5.7915 H         1 <0>         0.0909
     54 H16        -3.4214    2.1714   -5.0349 H         1 <0>         0.0907
     55 H17        -2.4484    5.1463   -3.1218 H         1 <0>         0.1641
     56 H18        -3.4543    8.6405   -6.2417 H         1 <0>         0.1422
     57 H19        -4.7143   10.1990   -7.6703 H         1 <0>         0.1547
     58 H20        -7.5930    7.1544   -8.4688 H         1 <0>         0.1543
     59 H21        -6.3340    5.5849   -7.0513 H         1 <0>         0.1441
     60 H22        -6.5714    8.6343  -11.1534 H         1 <0>         0.1328
     61 H23        -6.9429   10.3325  -11.5356 H         1 <0>         0.1356
     62 H24        -5.3703    9.9049  -10.8199 H         1 <0>         0.1327
     63 H25        -5.4762    8.3055   -4.7656 H         1 <0>         0.1235
     64 H26        -5.6080   10.4471   -3.5630 H         1 <0>         0.1301
     65 H27        -3.8819   11.0463   -1.9158 H         1 <0>         0.1289
     66 H28        -2.0156    9.5094   -1.4613 H         1 <0>         0.1316
     67 H29        -1.8719    7.3579   -2.6451 H         1 <0>         0.1316
@<TRIPOS>BOND
     1    1    2 1
     2    1   39 1
     3    1   40 1
     4    1   41 1
     5    2    3 1
     6    3    8 1
     7    3    4 1
     8    3    9 1
     9    4    5 1
    10    4   42 1
    11    4   43 1
    12    5    6 1
    13    5   44 1
    14    5   45 1
    15    6    7 1
    16    7    8 1
    17    7   46 1
    18    7   47 1
    19    8   48 1
    20    8   49 1
    21    9   14 ar
    22    9   10 ar
    23   10   11 ar
    24   10   50 1
    25   11   12 ar
    26   11   16 1
    27   12   13 ar
    28   12   51 1
    29   13   14 ar
    30   13   15 1
    31   14   52 1
    32   16   17 1
    33   17   18 1
    34   17   53 1
    35   17   54 1
    36   18   22 2
    37   18   19 1
    38   19   20 2
    39   19   55 1
    40   20   21 1
    41   20   33 1
    42   21   22 1
    43   21   23 1
    44   23   28 ar
    45   23   24 ar
    46   24   25 ar
    47   24   56 1
    48   25   26 ar
    49   25   57 1
    50   26   27 ar
    51   26   29 1
    52   27   28 ar
    53   27   58 1
    54   28   59 1
    55   29   30 2
    56   29   31 2
    57   29   32 1
    58   32   60 1
    59   32   61 1
    60   32   62 1
    61   33   38 ar
    62   33   34 ar
    63   34   35 ar
    64   34   63 1
    65   35   36 ar
    66   35   64 1
    67   36   37 ar
    68   36   65 1
    69   37   38 ar
    70   37   66 1
    71   38   67 1
@<TRIPOS>MOLECULE
CHEMBL19657
   33    35     0     0     0
SMALL
USER_CHARGES

@<TRIPOS>ATOM
      1 C1         -0.0178    1.4608    0.0101 C.3       1 <0>         0.0757
      2 N1          0.0021   -0.0041    0.0020 N.pl3     1 <0>        -0.4848
      3 C2          0.0080   -0.7885   -1.1316 C.ar      1 <0>         0.0916
      4 C3         -0.0010   -0.5003   -2.4924 C.ar      1 <0>        -0.1127
      5 C4          0.0086   -1.5239   -3.4131 C.ar      1 <0>        -0.1225
      6 C5          0.0274   -2.8526   -2.9963 C.ar      1 <0>         0.0748
      7 C6          0.0371   -3.1595   -1.6506 C.ar      1 <0>        -0.0965
      8 C7          0.0288   -2.1292   -0.7073 C.ar      1 <0>        -0.0861
      9 C8          0.0388   -2.0885    0.7551 C.2       1 <0>        -0.1655
     10 C9          0.0235   -0.7959    1.1201 C.2       1 <0>         0.0874
     11 C10         0.0143   -0.2958    2.5454 C.3       1 <0>        -0.0600
     12 C11         1.0805   -1.0380    3.3535 C.3       1 <0>        -0.1134
     13 C12         0.4815   -2.3070    3.9539 C.3       1 <0>        -0.1209
     14 C13        -0.5694   -2.8975    3.0170 C.3       1 <0>        -0.1244
     15 C14         0.0776   -3.2728    1.6860 C.3       1 <0>        -0.0433
     16 O1          0.0359   -3.8517   -3.9188 O.3       1 <0>        -0.4980
     17 H1          1.0048    1.8381    0.0023 H         1 <0>         0.0692
     18 H2         -0.5450    1.8219   -0.8730 H         1 <0>         0.0813
     19 H3         -0.5280    1.8123    0.9069 H         1 <0>         0.0830
     20 H4         -0.0158    0.5265   -2.8268 H         1 <0>         0.1225
     21 H5          0.0010   -1.2943   -4.4684 H         1 <0>         0.1312
     22 H6          0.0514   -4.1903   -1.3287 H         1 <0>         0.1276
     23 H7          0.2284    0.7730    2.5568 H         1 <0>         0.0705
     24 H8         -0.9661   -0.4746    2.9869 H         1 <0>         0.0903
     25 H9          1.9114   -1.3035    2.6998 H         1 <0>         0.0673
     26 H10         1.4422   -0.3936    4.1547 H         1 <0>         0.0695
     27 H11         1.2738   -3.0386    4.1125 H         1 <0>         0.0652
     28 H12         0.0169   -2.0677    4.9104 H         1 <0>         0.0627
     29 H13        -1.0026   -3.7881    3.4723 H         1 <0>         0.0658
     30 H14        -1.3537   -2.1614    2.8408 H         1 <0>         0.0685
     31 H15        -0.4588   -4.1076    1.2348 H         1 <0>         0.0692
     32 H16         1.1136   -3.5604    1.8653 H         1 <0>         0.0689
     33 H17         0.9216   -4.1294   -4.1897 H         1 <0>         0.3860
@<TRIPOS>BOND
     1    1    2 1
     2    1   17 1
     3    1   18 1
     4    1   19 1
     5    2   10 1
     6    2    3 1
     7    3    8 ar
     8    3    4 ar
     9    4    5 ar
    10    4   20 1
    11    5    6 ar
    12    5   21 1
    13    6    7 ar
    14    6   16 1
    15    7    8 ar
    16    7   22 1
    17    8    9 1
    18    9   15 1
    19    9   10 2
    20   10   11 1
    21   11   12 1
    22   11   23 1
    23   11   24 1
    24   12   13 1
    25   12   25 1
    26   12   26 1
    27   13   14 1
    28   13   27 1
    29   13   28 1
    30   14   15 1
    31   14   29 1
    32   14   30 1
    33   15   31 1
    34   15   32 1
    35   16   33 1
@<TRIPOS>MOLECULE
CHEMBL157720
   46    49     0     0     0
SMALL
USER_CHARGES

@<TRIPOS>ATOM
      1 C1         -0.0225    1.8097    0.0120 C.3       1 <0>        -0.6501
      2 S1          0.0021   -0.0041    0.0020 S.o2      1 <0>         2.4969
      3 O1          0.8352   -0.4880    1.0465 O.2       1 <0>        -0.9343
      4 O2         -1.3147   -0.5105   -0.1678 O.2       1 <0>        -0.9341
      5 C2          0.8454   -0.4373   -1.4831 C.ar      1 <0>        -0.6503
      6 C3          0.1311   -0.6120   -2.6551 C.ar      1 <0>        -0.0189
      7 C4          0.7855   -0.9513   -3.8213 C.ar      1 <0>        -0.1177
      8 C5          2.1708   -1.1177   -3.8172 C.ar      1 <0>        -0.0055
      9 C6          2.8855   -0.9397   -2.6322 C.ar      1 <0>        -0.1084
     10 C7          2.2199   -0.5958   -1.4737 C.ar      1 <0>        -0.0183
     11 C8          2.8793   -1.4822   -5.0648 C.2       1 <0>        -0.0152
     12 C9          2.6398   -2.7268   -5.6837 C.2       1 <0>         0.0900
     13 N1          3.2619   -3.0518   -6.7829 N.2       1 <0>        -0.1955
     14 N2          4.1809   -2.1859   -7.3827 N.am      1 <0>        -0.4078
     15 C10         4.4506   -0.9833   -6.8373 C.2       1 <0>         0.5088
     16 O3          5.2537   -0.2331   -7.3672 O.2       1 <0>        -0.5102
     17 C11         3.7880   -0.5956   -5.6457 C.2       1 <0>        -0.0747
     18 C12         4.0581    0.7208   -5.0267 C.ar      1 <0>        -0.0521
     19 C13         3.0449    1.6770   -4.9444 C.ar      1 <0>        -0.0627
     20 C14         3.3019    2.9024   -4.3660 C.ar      1 <0>        -0.1530
     21 C15         4.5636    3.1849   -3.8670 C.ar      1 <0>         0.1120
     22 C16         5.5733    2.2389   -3.9463 C.ar      1 <0>        -0.1504
     23 C17         5.3255    1.0085   -4.5180 C.ar      1 <0>        -0.0539
     24 F1          4.8103    4.3869   -3.3018 F         1 <0>        -0.1353
     25 C18         4.8584   -2.5901   -8.6172 C.3       1 <0>         0.2197
     26 C19         6.1376   -3.3098   -8.2756 C.2       1 <0>         0.0101
     27 N3          6.3232   -4.5918   -8.0823 N.2       1 <0>        -0.4922
     28 C20         7.5132   -5.0758   -7.7872 C.2       1 <0>         0.0287
     29 C21         8.5337   -4.1852   -7.6935 C.2       1 <0>        -0.2255
     30 S2          7.6756   -2.6621   -8.0572 S.3       1 <0>         0.1463
     31 H1          1.0001    2.1870    0.0043 H         1 <0>         0.1323
     32 H2         -0.5497    2.1708   -0.8711 H         1 <0>         0.1324
     33 H3         -0.5327    2.1613    0.9088 H         1 <0>         0.1350
     34 H4         -0.9412   -0.4829   -2.6569 H         1 <0>         0.1489
     35 H5          0.2267   -1.0881   -4.7353 H         1 <0>         0.1399
     36 H6          3.9579   -1.0675   -2.6225 H         1 <0>         0.1345
     37 H7          2.7724   -0.4537   -0.5566 H         1 <0>         0.1474
     38 H8          1.9354   -3.4169   -5.2433 H         1 <0>         0.2007
     39 H9          2.0614    1.4580   -5.3332 H         1 <0>         0.1329
     40 H10         2.5186    3.6432   -4.3020 H         1 <0>         0.1406
     41 H11         6.5549    2.4642   -3.5563 H         1 <0>         0.1415
     42 H12         6.1118    0.2704   -4.5752 H         1 <0>         0.1327
     43 H13         4.2089   -3.2542   -9.1874 H         1 <0>         0.1304
     44 H14         5.0868   -1.7060   -9.2125 H         1 <0>         0.1295
     45 H15         7.6692   -6.1323   -7.6269 H         1 <0>         0.1755
     46 H16         9.5761   -4.3522   -7.4658 H         1 <0>         0.1992
@<TRIPOS>BOND
     1    1    2 1
     2    1   31 1
     3    1   32 1
     4    1   33 1
     5    2    3 2
     6    2    4 2
     7    2    5 1
     8    5   10 ar
     9    5    6 ar
    10    6    7 ar
    11    6   34 1
    12    7    8 ar
    13    7   35 1
    14    8    9 ar
    15    8   11 1
    16    9   10 ar
    17    9   36 1
    18   10   37 1
    19   11   17 2
    20   11   12 1
    21   12   13 2
    22   12   38 1
    23   13   14 1
    24   14   15 am
    25   14   25 1
    26   15   16 2
    27   15   17 1
    28   17   18 1
    29   18   23 ar
    30   18   19 ar
    31   19   20 ar
    32   19   39 1
    33   20   21 ar
    34   20   40 1
    35   21   22 ar
    36   21   24 1
    37   22   23 ar
    38   22   41 1
    39   23   42 1
    40   25   26 1
    41   25   43 1
    42   25   44 1
    43   26   30 1
    44   26   27 2
    45   27   28 1
    46   28   29 2
    47   28   45 1
    48   29   30 1
    49   29   46 1
@<TRIPOS>MOLECULE
CHEMBL151042
   43    46     0     0     0
SMALL
USER_CHARGES

@<TRIPOS>ATOM
      1 C1          6.9889   -3.4600   -2.1912 C.ar      1 <0>        -0.1203
      2 C2          5.6949   -3.9100   -2.0071 C.ar      1 <0>        -0.1181
      3 C3          4.7733   -3.1151   -1.3517 C.ar      1 <0>        -0.1129
      4 C4          5.1458   -1.8702   -0.8800 C.ar      1 <0>        -0.0785
      5 C5          6.4401   -1.4206   -1.0633 C.ar      1 <0>        -0.1124
      6 C6          7.3613   -2.2149   -1.7199 C.ar      1 <0>        -0.1175
      7 C7          4.1408   -1.0032   -0.1663 C.3       1 <0>        -0.0517
      8 C8          4.2837   -1.1896    1.3222 C.ar      1 <0>        -0.0434
      9 C9          5.0846   -0.3337    2.0509 C.ar      1 <0>        -0.0948
     10 C10         5.2191   -0.5015    3.4206 C.ar      1 <0>         0.0469
     11 C11         4.5445   -1.5370    4.0662 C.ar      1 <0>         0.0320
     12 C12         3.7411   -2.3963    3.3393 C.ar      1 <0>        -0.0784
     13 C13         3.6029   -2.2224    1.9633 C.ar      1 <0>        -0.0521
     14 C14         2.7370   -3.1391    1.1816 C.ar      1 <0>         0.0264
     15 C15         1.6895   -2.6293    0.4168 C.ar      1 <0>        -0.1309
     16 C16         0.8874   -3.4867   -0.3087 C.ar      1 <0>        -0.0182
     17 C17         1.1214   -4.8496   -0.2773 C.ar      1 <0>        -0.6774
     18 C18         2.1597   -5.3611    0.4801 C.ar      1 <0>        -0.0110
     19 C19         2.9717   -4.5125    1.2050 C.ar      1 <0>        -0.1247
     20 S1          0.0927   -5.9384   -1.2052 S.o2      1 <0>         2.6998
     21 O1          0.1777   -7.2106   -0.5779 O.2       1 <0>        -0.9612
     22 O2         -1.1436   -5.2644   -1.3965 O.2       1 <0>        -0.9590
     23 N1          0.7790   -6.1026   -2.7033 N.pl3     1 <0>        -1.2477
     24 O3          4.8405   -1.4863    5.3980 O.3       1 <0>        -0.3060
     25 C20         6.0199   -0.6667    5.4987 C.3       1 <0>         0.2128
     26 O4          5.9364    0.1962    4.3492 O.3       1 <0>        -0.3059
     27 H1          7.7102   -4.0829   -2.6992 H         1 <0>         0.1214
     28 H2          5.4039   -4.8826   -2.3756 H         1 <0>         0.1216
     29 H3          3.7621   -3.4664   -1.2085 H         1 <0>         0.1197
     30 H4          6.7310   -0.4478   -0.6951 H         1 <0>         0.1208
     31 H5          8.3724   -1.8634   -1.8635 H         1 <0>         0.1220
     32 H6          4.3175    0.0420   -0.4202 H         1 <0>         0.0902
     33 H7          3.1339   -1.2864   -0.4730 H         1 <0>         0.0954
     34 H8          5.6084    0.4687    1.5528 H         1 <0>         0.1404
     35 H9          3.2181   -3.1989    3.8380 H         1 <0>         0.1403
     36 H10         1.5055   -1.5654    0.3922 H         1 <0>         0.1402
     37 H11         0.0753   -3.0927   -0.9018 H         1 <0>         0.1471
     38 H12         2.3379   -6.4261    0.5010 H         1 <0>         0.1460
     39 H13         3.7846   -4.9125    1.7928 H         1 <0>         0.1365
     40 H14         0.6649   -6.9271   -3.2013 H         1 <0>         0.4226
     41 H15         1.2951   -5.3742   -3.0828 H         1 <0>         0.4172
     42 H16         6.0025   -0.0820    6.4184 H         1 <0>         0.1353
     43 H17         6.9187   -1.2815    5.4514 H         1 <0>         0.0874
@<TRIPOS>BOND
     1    1    6 ar
     2    1    2 ar
     3    1   27 1
     4    2    3 ar
     5    2   28 1
     6    3    4 ar
     7    3   29 1
     8    4    5 ar
     9    4    7 1
    10    5    6 ar
    11    5   30 1
    12    6   31 1
    13    7    8 1
    14    7   32 1
    15    7   33 1
    16    8   13 ar
    17    8    9 ar
    18    9   10 ar
    19    9   34 1
    20   10   26 1
    21   10   11 ar
    22   11   12 ar
    23   11   24 1
    24   12   13 ar
    25   12   35 1
    26   13   14 1
    27   14   19 ar
    28   14   15 ar
    29   15   16 ar
    30   15   36 1
    31   16   17 ar
    32   16   37 1
    33   17   18 ar
    34   17   20 1
    35   18   19 ar
    36   18   38 1
    37   19   39 1
    38   20   21 2
    39   20   22 2
    40   20   23 1
    41   23   40 1
    42   23   41 1
    43   24   25 1
    44   25   26 1
    45   25   42 1
    46   25   43 1
@<TRIPOS>MOLECULE
CHEMBL148545
   48    50     0     0     0
SMALL
USER_CHARGES

@<TRIPOS>ATOM
      1 C1          0.7210    1.5193    4.6716 C.3       1 <0>        -0.1204
      2 C2          1.2677    0.2216    4.1349 C.ar      1 <0>        -0.0332
      3 C3          2.6148   -0.0651    4.2612 C.ar      1 <0>        -0.1491
      4 C4          3.1210   -1.2544    3.7703 C.ar      1 <0>        -0.0645
      5 C5          2.2816   -2.1616    3.1511 C.ar      1 <0>        -0.1041
      6 C6          0.9276   -1.8773    3.0227 C.ar      1 <0>         0.2583
      7 C7          0.4214   -0.6829    3.5222 C.ar      1 <0>        -0.0711
      8 Cl1        -1.2705   -0.3249    3.3702 Cl        1 <0>        -0.0552
      9 N1          0.0752   -2.7927    2.3969 N.pl3     1 <0>        -0.6835
     10 C8          0.4371   -4.1309    2.3093 C.ar      1 <0>         0.2240
     11 C9          0.8081   -4.6756    1.0858 C.ar      1 <0>        -0.1288
     12 C10         1.1671   -6.0049    1.0015 C.ar      1 <0>        -0.0844
     13 C11         1.1612   -6.8067    2.1323 C.ar      1 <0>        -0.1308
     14 C12         0.7965   -6.2848    3.3538 C.ar      1 <0>        -0.0760
     15 C13         0.4357   -4.9388    3.4572 C.ar      1 <0>        -0.1470
     16 C14         0.0498   -4.3724    4.7625 C.2       1 <0>         0.5565
     17 O1         -0.3657   -3.2316    4.8314 O.2       1 <0>        -0.5125
     18 N2          0.1574   -5.1190    5.8794 N.am      1 <0>        -0.7263
     19 C15        -0.2262   -4.5562    7.1765 C.3       1 <0>         0.1274
     20 C16        -0.0087   -5.6028    8.2710 C.3       1 <0>         0.0460
     21 O2          1.3861   -5.8929    8.3823 O.3       1 <0>        -0.3122
     22 C17         1.7530   -6.8099    9.3158 C.ar      1 <0>         0.1272
     23 C18         0.7898   -7.4222   10.1045 C.ar      1 <0>        -0.2098
     24 C19         1.1653   -8.3543   11.0524 C.ar      1 <0>        -0.0802
     25 C20         2.4999   -8.6768   11.2158 C.ar      1 <0>        -0.1573
     26 C21         3.4618   -8.0677   10.4314 C.ar      1 <0>        -0.0800
     27 C22         3.0909   -7.1394    9.4778 C.ar      1 <0>        -0.1511
     28 Cl2         2.9185   -3.6541    2.5341 Cl        1 <0>        -0.0531
     29 H1          0.4128    1.3827    5.7082 H         1 <0>         0.0783
     30 H2          1.4925    2.2876    4.6202 H         1 <0>         0.0732
     31 H3         -0.1379    1.8263    4.0747 H         1 <0>         0.0743
     32 H4          3.2730    0.6419    4.7441 H         1 <0>         0.1363
     33 H5          4.1735   -1.4747    3.8704 H         1 <0>         0.1358
     34 H6         -0.7686   -2.4930    2.0240 H         1 <0>         0.4150
     35 H7          0.8149   -4.0578    0.2000 H         1 <0>         0.1324
     36 H8          1.4542   -6.4237    0.0483 H         1 <0>         0.1301
     37 H9          1.4436   -7.8462    2.0551 H         1 <0>         0.1294
     38 H10         0.7934   -6.9142    4.2314 H         1 <0>         0.1250
     39 H11         0.4887   -6.0290    5.8245 H         1 <0>         0.4007
     40 H12         0.3849   -3.6783    7.3866 H         1 <0>         0.0805
     41 H13        -1.2775   -4.2695    7.1516 H         1 <0>         0.0911
     42 H14        -0.3764   -5.2164    9.2215 H         1 <0>         0.0815
     43 H15        -0.5499   -6.5138    8.0154 H         1 <0>         0.0705
     44 H16        -0.2526   -7.1701    9.9777 H         1 <0>         0.1268
     45 H17         0.4159   -8.8313   11.6666 H         1 <0>         0.1251
     46 H18         2.7915   -9.4056   11.9576 H         1 <0>         0.1245
     47 H19         4.5036   -8.3210   10.5611 H         1 <0>         0.1299
     48 H20         3.8422   -6.6671    8.8623 H         1 <0>         0.1304
@<TRIPOS>BOND
     1    1    2 1
     2    1   29 1
     3    1   30 1
     4    1   31 1
     5    2    7 ar
     6    2    3 ar
     7    3    4 ar
     8    3   32 1
     9    4    5 ar
    10    4   33 1
    11    5    6 ar
    12    5   28 1
    13    6    7 ar
    14    6    9 1
    15    7    8 1
    16    9   10 1
    17    9   34 1
    18   10   15 ar
    19   10   11 ar
    20   11   12 ar
    21   11   35 1
    22   12   13 ar
    23   12   36 1
    24   13   14 ar
    25   13   37 1
    26   14   15 ar
    27   14   38 1
    28   15   16 1
    29   16   17 2
    30   16   18 am
    31   18   19 1
    32   18   39 1
    33   19   20 1
    34   19   40 1
    35   19   41 1
    36   20   21 1
    37   20   42 1
    38   20   43 1
    39   21   22 1
    40   22   27 ar
    41   22   23 ar
    42   23   24 ar
    43   23   44 1
    44   24   25 ar
    45   24   45 1
    46   25   26 ar
    47   25   46 1
    48   26   27 ar
    49   26   47 1
    50   27   48 1
@<TRIPOS>MOLECULE
CHEMBL13623
   53    55     0     0     0
SMALL
USER_CHARGES

@<TRIPOS>ATOM
      1 C1         -0.0187    1.5258    0.0104 C.3       1 <0>        -0.1364
      2 C2          0.0021   -0.0041    0.0020 C.3       1 <0>        -0.0517
      3 C3         -1.4208   -0.5776    0.2013 C.3       1 <0>         0.0542
      4 O1         -1.4944   -0.7620    1.6248 O.3       1 <0>        -0.2911
      5 C4         -0.2449   -0.9741    2.1168 C.ar      1 <0>         0.1520
      6 C5          0.7294   -0.5433    1.2192 C.ar      1 <0>        -0.1755
      7 C6          2.0544   -0.6499    1.5157 C.ar      1 <0>        -0.0111
      8 C7          2.4559   -1.2073    2.7370 C.ar      1 <0>        -0.2020
      9 C8          1.4846   -1.6506    3.6432 C.ar      1 <0>        -0.0390
     10 C9          0.1507   -1.5340    3.3336 C.ar      1 <0>        -0.1042
     11 C10        -0.8905   -2.0129    4.3121 C.3       1 <0>        -0.0218
     12 C11        -0.2005   -2.5788    5.5549 C.3       1 <0>        -0.1479
     13 C12        -1.7880   -0.8414    4.7159 C.3       1 <0>        -0.1413
     14 C13        -1.7403   -3.1048    3.6589 C.3       1 <0>        -0.1416
     15 C14         3.8828   -1.3260    3.0636 C.2       1 <0>         0.4010
     16 O2          4.7197   -0.9407    2.2746 O.2       1 <0>        -0.4550
     17 C15         4.3073   -1.9265    4.3789 C.3       1 <0>        -0.1671
     18 C16         5.8347   -1.9326    4.4676 C.3       1 <0>        -0.1079
     19 C17         6.2657   -2.5422    5.8030 C.3       1 <0>        -0.0892
     20 C18         7.7931   -2.5482    5.8917 C.3       1 <0>        -0.1543
     21 C19         8.4910   -3.9077    5.9669 C.3       1 <0>        -0.1814
     22 C20         8.4227   -3.0133    7.2063 C.3       1 <0>        -0.1825
     23 C21         0.6299   -0.5328   -1.2892 C.3       1 <0>        -0.1380
     24 H1          1.0039    1.9031    0.0027 H         1 <0>         0.0641
     25 H2         -0.5459    1.8868   -0.8726 H         1 <0>         0.0660
     26 H3         -0.5289    1.8773    0.9072 H         1 <0>         0.0606
     27 H4         -2.1745    0.1343   -0.1352 H         1 <0>         0.1099
     28 H5         -1.5291   -1.5301   -0.3174 H         1 <0>         0.0816
     29 H6          2.7954   -0.3053    0.8096 H         1 <0>         0.1328
     30 H7          1.7840   -2.0846    4.5857 H         1 <0>         0.1446
     31 H8          0.4049   -1.8009    6.0202 H         1 <0>         0.0597
     32 H9         -0.9536   -2.9252    6.2626 H         1 <0>         0.0625
     33 H10         0.4389   -3.4134    5.2672 H         1 <0>         0.0595
     34 H11        -2.2796   -0.4383    3.8305 H         1 <0>         0.0642
     35 H12        -2.5411   -1.1878    5.4237 H         1 <0>         0.0591
     36 H13        -1.1826   -0.0636    5.1812 H         1 <0>         0.0540
     37 H14        -1.1009   -3.9394    3.3712 H         1 <0>         0.0538
     38 H15        -2.4934   -3.4512    4.3667 H         1 <0>         0.0594
     39 H16        -2.2319   -2.7017    2.7735 H         1 <0>         0.0632
     40 H17         3.8982   -1.3344    5.1976 H         1 <0>         0.0992
     41 H18         3.9353   -2.9487    4.4486 H         1 <0>         0.0988
     42 H19         6.2438   -2.5247    3.6490 H         1 <0>         0.0699
     43 H20         6.2067   -0.9104    4.3979 H         1 <0>         0.0693
     44 H21         5.8566   -1.9501    6.6216 H         1 <0>         0.0669
     45 H22         5.8937   -3.5644    5.8727 H         1 <0>         0.0643
     46 H23         8.2989   -1.7520    5.3454 H         1 <0>         0.1043
     47 H24         7.8620   -4.7978    5.9532 H         1 <0>         0.0935
     48 H25         9.4562   -4.0062    5.4699 H         1 <0>         0.0924
     49 H26         9.3428   -2.5233    7.5248 H         1 <0>         0.0930
     50 H27         7.7486   -3.3150    8.0081 H         1 <0>         0.0935
     51 H28         1.6576   -0.1776   -1.3654 H         1 <0>         0.0653
     52 H29         0.6221   -1.6227   -1.2772 H         1 <0>         0.0608
     53 H30         0.0574   -0.1747   -2.1448 H         1 <0>         0.0655
@<TRIPOS>BOND
     1    1    2 1
     2    1   24 1
     3    1   25 1
     4    1   26 1
     5    2    6 1
     6    2    3 1
     7    2   23 1
     8    3    4 1
     9    3   27 1
    10    3   28 1
    11    4    5 1
    12    5   10 ar
    13    5    6 ar
    14    6    7 ar
    15    7    8 ar
    16    7   29 1
    17    8    9 ar
    18    8   15 1
    19    9   10 ar
    20    9   30 1
    21   10   11 1
    22   11   12 1
    23   11   13 1
    24   11   14 1
    25   12   31 1
    26   12   32 1
    27   12   33 1
    28   13   34 1
    29   13   35 1
    30   13   36 1
    31   14   37 1
    32   14   38 1
    33   14   39 1
    34   15   16 2
    35   15   17 1
    36   17   18 1
    37   17   40 1
    38   17   41 1
    39   18   19 1
    40   18   42 1
    41   18   43 1
    42   19   20 1
    43   19   44 1
    44   19   45 1
    45   20   22 1
    46   20   21 1
    47   20   46 1
    48   21   22 1
    49   21   47 1
    50   21   48 1
    51   22   49 1
    52   22   50 1
    53   23   51 1
    54   23   52 1
    55   23   53 1
@<TRIPOS>MOLECULE
CHEMBL110382
   35    37     0     0     0
SMALL
USER_CHARGES

@<TRIPOS>ATOM
      1 C1         -0.0225    1.8097    0.0120 C.3       1 <0>        -0.6491
      2 S1          0.0021   -0.0041    0.0020 S.o2      1 <0>         2.4980
      3 O1          0.8352   -0.4880    1.0465 O.2       1 <0>        -0.9295
      4 O2         -1.3147   -0.5105   -0.1678 O.2       1 <0>        -0.9300
      5 C2          0.8454   -0.4373   -1.4831 C.ar      1 <0>        -0.6508
      6 C3          0.1329   -0.6123   -2.6553 C.ar      1 <0>        -0.0029
      7 C4          0.7912   -0.9519   -3.8210 C.ar      1 <0>        -0.1250
      8 C5          2.1698   -1.1172   -3.8153 C.ar      1 <0>         0.1540
      9 C6          2.8824   -0.9404   -2.6369 C.ar      1 <0>        -0.1254
     10 C7          2.2191   -0.5961   -1.4754 C.ar      1 <0>         0.0004
     11 N1          2.8403   -1.4622   -4.9962 N.pl3     1 <0>        -0.4117
     12 C8          2.5122   -2.4824   -5.8549 C.2       1 <0>         0.0454
     13 C9          3.4137   -2.4613   -6.8566 C.2       1 <0>        -0.0791
     14 N2          4.2758   -1.4622   -6.6320 N.2       1 <0>        -0.4145
     15 C10         3.9441   -0.8430   -5.5175 C.2       1 <0>         0.3156
     16 C11         4.6418    0.3124   -4.9323 C.2       1 <0>        -0.1101
     17 C12         5.8931    0.8179   -5.2317 C.2       1 <0>        -0.0734
     18 C13         6.3355    1.9226   -4.5402 C.2       1 <0>        -0.1278
     19 C14         5.5354    2.4776   -3.5925 C.2       1 <0>        -0.1306
     20 S2          4.0901    1.4320   -3.6557 S.3       1 <0>         0.1276
     21 Br1         8.0384    2.6596   -4.9045 Br        1 <0>        -0.0192
     22 C15         3.4461   -3.4044   -8.0316 C.3       1 <0>         0.5580
     23 F1          2.6805   -2.8749   -9.0759 F         1 <0>        -0.1689
     24 F2          4.7676   -3.5705   -8.4599 F         1 <0>        -0.1629
     25 F3          2.9205   -4.6434   -7.6497 F         1 <0>        -0.1698
     26 H1          1.0001    2.1870    0.0043 H         1 <0>         0.1336
     27 H2         -0.5497    2.1708   -0.8711 H         1 <0>         0.1338
     28 H3         -0.5327    2.1613    0.9088 H         1 <0>         0.1375
     29 H4         -0.9394   -0.4836   -2.6591 H         1 <0>         0.1585
     30 H5          0.2341   -1.0891   -4.7360 H         1 <0>         0.1468
     31 H6          3.9548   -1.0686   -2.6292 H         1 <0>         0.1456
     32 H7          2.7733   -0.4547   -0.5593 H         1 <0>         0.1592
     33 H8          1.6877   -3.1716   -5.7475 H         1 <0>         0.2035
     34 H9          6.5089    0.3568   -5.9897 H         1 <0>         0.1585
     35 H10         5.7239    3.3357   -2.9643 H         1 <0>         0.2044
@<TRIPOS>BOND
     1    1    2 1
     2    1   26 1
     3    1   27 1
     4    1   28 1
     5    2    3 2
     6    2    4 2
     7    2    5 1
     8    5   10 ar
     9    5    6 ar
    10    6    7 ar
    11    6   29 1
    12    7    8 ar
    13    7   30 1
    14    8    9 ar
    15    8   11 1
    16    9   10 ar
    17    9   31 1
    18   10   32 1
    19   11   15 1
    20   11   12 1
    21   12   13 2
    22   12   33 1
    23   13   14 1
    24   13   22 1
    25   14   15 2
    26   15   16 1
    27   16   20 1
    28   16   17 2
    29   17   18 1
    30   17   34 1
    31   18   19 2
    32   18   21 1
    33   19   20 1
    34   19   35 1
    35   22   23 1
    36   22   24 1
    37   22   25 1
@<TRIPOS>MOLECULE
CHEMBL317332
   58    61     0     0     0
SMALL
USER_CHARGES

@<TRIPOS>ATOM
      1 C1         -0.0056    1.5079    0.0270 C.3       1 <0>        -0.1192
      2 C2          0.0131    0.0010    0.0172 C.ar      1 <0>        -0.0765
      3 C3          0.0144   -0.6824   -1.1844 C.ar      1 <0>        -0.1226
      4 C4          0.0315   -2.0646   -1.1933 C.ar      1 <0>        -0.0957
      5 C5          0.0479   -2.7634   -0.0007 C.ar      1 <0>        -0.1171
      6 C6          0.0475   -2.0800    1.2009 C.ar      1 <0>        -0.0961
      7 C7          0.0347   -0.6977    1.2098 C.ar      1 <0>        -0.1231
      8 C8          0.0655   -4.2703   -0.0105 C.3       1 <0>         0.1636
      9 N1          1.4524   -4.7423   -0.0231 N.am      1 <0>        -0.7304
     10 C9          1.7142   -6.0643   -0.0334 C.2       1 <0>         0.5132
     11 O1          0.8017   -6.8632   -0.0322 O.2       1 <0>        -0.5259
     12 C10         3.1407   -6.5499   -0.0463 C.3       1 <0>        -0.0657
     13 C11         3.1584   -8.0568   -0.0561 C.2       1 <0>        -0.1395
     14 C12         3.1693   -8.8593    1.0173 C.2       1 <0>         0.1173
     15 N2          3.1842  -10.1739    0.6186 N.am      1 <0>        -0.5050
     16 C13         3.1831  -10.2417   -0.7640 C.ar      1 <0>         0.0768
     17 C14         3.1605   -8.9200   -1.2422 C.ar      1 <0>        -0.0356
     18 C15         3.1486   -8.6755   -2.6158 C.ar      1 <0>        -0.1098
     19 C16         3.1555   -9.7385   -3.4987 C.ar      1 <0>         0.1119
     20 C17         3.1737  -11.0456   -3.0217 C.ar      1 <0>        -0.1757
     21 C18         3.1943  -11.2973   -1.6667 C.ar      1 <0>        -0.0835
     22 O2          3.1440   -9.5065   -4.8384 O.3       1 <0>        -0.3168
     23 C19         3.1520  -10.6502   -5.6951 C.3       1 <0>         0.0272
     24 C20         3.1979  -11.2363    1.4477 C.2       1 <0>         0.6027
     25 O3          4.2530  -11.7586    1.7487 O.2       1 <0>        -0.4284
     26 C21         1.9307  -11.7657    1.9903 C.ar      1 <0>        -0.1658
     27 C22         0.7100  -11.2402    1.5606 C.ar      1 <0>        -0.0419
     28 C23        -0.4698  -11.7387    2.0710 C.ar      1 <0>        -0.1205
     29 C24        -0.4462  -12.7586    3.0082 C.ar      1 <0>         0.0038
     30 C25         0.7613  -13.2836    3.4388 C.ar      1 <0>        -0.1235
     31 C26         1.9477  -12.7978    2.9312 C.ar      1 <0>        -0.0383
     32 Cl1        -1.9359  -13.3809    3.6462 Cl        1 <0>        -0.0524
     33 C27         3.1666   -8.3894    2.4492 C.3       1 <0>        -0.1022
     34 H1          1.0175    1.8840    0.0182 H         1 <0>         0.0727
     35 H2         -0.5335    1.8704   -0.8550 H         1 <0>         0.0679
     36 H3         -0.5141    1.8591    0.9248 H         1 <0>         0.0678
     37 H4          0.0016   -0.1365   -2.1161 H         1 <0>         0.1241
     38 H5          0.0317   -2.5986   -2.1321 H         1 <0>         0.1243
     39 H6          0.0600   -2.6259    2.1326 H         1 <0>         0.1237
     40 H7          0.0383   -0.1637    2.1485 H         1 <0>         0.1239
     41 H8         -0.4378   -4.6453    0.8806 H         1 <0>         0.0750
     42 H9         -0.4501   -4.6339   -0.8993 H         1 <0>         0.0754
     43 H10         2.1822   -4.1033   -0.0240 H         1 <0>         0.4016
     44 H11         3.6441   -6.1748   -0.9374 H         1 <0>         0.1054
     45 H12         3.6564   -6.1862    0.8425 H         1 <0>         0.1031
     46 H13         3.1338   -7.6613   -2.9868 H         1 <0>         0.1323
     47 H14         3.1786  -11.8700   -3.7194 H         1 <0>         0.1352
     48 H15         3.2067  -12.3155   -1.3067 H         1 <0>         0.1222
     49 H16         4.0502  -11.2384   -5.5074 H         1 <0>         0.0552
     50 H17         2.2704  -11.2596   -5.4958 H         1 <0>         0.0551
     51 H18         3.1413  -10.3251   -6.7354 H         1 <0>         0.1003
     52 H19         0.6903  -10.4449    0.8302 H         1 <0>         0.1447
     53 H20        -1.4143  -11.3330    1.7398 H         1 <0>         0.1451
     54 H21         0.7732  -14.0781    4.1702 H         1 <0>         0.1462
     55 H22         2.8882  -13.2112    3.2641 H         1 <0>         0.1475
     56 H23         2.1383   -8.2877    2.7962 H         1 <0>         0.0860
     57 H24         3.6897   -9.1159    3.0710 H         1 <0>         0.0686
     58 H25         3.6697   -7.4248    2.5160 H         1 <0>         0.0915
@<TRIPOS>BOND
     1    1    2 1
     2    1   34 1
     3    1   35 1
     4    1   36 1
     5    2    7 ar
     6    2    3 ar
     7    3    4 ar
     8    3   37 1
     9    4    5 ar
    10    4   38 1
    11    5    6 ar
    12    5    8 1
    13    6    7 ar
    14    6   39 1
    15    7   40 1
    16    8    9 1
    17    8   41 1
    18    8   42 1
    19    9   10 am
    20    9   43 1
    21   10   11 2
    22   10   12 1
    23   12   13 1
    24   12   44 1
    25   12   45 1
    26   13   17 1
    27   13   14 2
    28   14   15 1
    29   14   33 1
    30   15   16 1
    31   15   24 am
    32   16   21 ar
    33   16   17 ar
    34   17   18 ar
    35   18   19 ar
    36   18   46 1
    37   19   20 ar
    38   19   22 1
    39   20   21 ar
    40   20   47 1
    41   21   48 1
    42   22   23 1
    43   23   49 1
    44   23   50 1
    45   23   51 1
    46   24   25 2
    47   24   26 1
    48   26   31 ar
    49   26   27 ar
    50   27   28 ar
    51   27   52 1
    52   28   29 ar
    53   28   53 1
    54   29   30 ar
    55   29   32 1
    56   30   31 ar
    57   30   54 1
    58   31   55 1
    59   33   56 1
    60   33   57 1
    61   33   58 1
@<TRIPOS>MOLECULE
CHEMBL295739
   45    46     0     0     0
SMALL
USER_CHARGES

@<TRIPOS>ATOM
      1 C1         -1.4413    1.0269   -1.1549 C.3       1 <0>        -0.1477
      2 C2         -1.1899   -0.4819   -1.1172 C.3       1 <0>        -0.0187
      3 C3         -0.8735   -0.9104    0.3171 C.3       1 <0>        -0.1408
      4 C4         -2.4381   -1.2193   -1.6063 C.3       1 <0>        -0.1410
      5 C5         -0.0245   -0.8194   -2.0110 C.ar      1 <0>        -0.1005
      6 C6          0.6284    0.1803   -2.6951 C.ar      1 <0>        -0.0858
      7 C7          1.7123   -0.1351   -3.5256 C.ar      1 <0>        -0.0774
      8 C8          2.1248   -1.4684   -3.6541 C.ar      1 <0>        -0.0930
      9 C9          1.4642   -2.4595   -2.9650 C.ar      1 <0>        -0.0906
     10 C10         0.3927   -2.1398   -2.1384 C.ar      1 <0>         0.1246
     11 O1         -0.2518   -3.1211   -1.4571 O.3       1 <0>        -0.4846
     12 C11         1.9062   -3.8937   -3.1025 C.3       1 <0>        -0.0207
     13 C12         3.0985   -3.9706   -4.0583 C.3       1 <0>        -0.1501
     14 C13         2.3161   -4.4347   -1.7313 C.3       1 <0>        -0.1398
     15 C14         0.7528   -4.7319   -3.6575 C.3       1 <0>        -0.1398
     16 C15         2.4118    0.9256   -4.2577 C.2       1 <0>         0.0246
     17 C16         3.5679    0.6465   -4.9218 C.2       1 <0>        -0.1751
     18 C17         4.3264    1.4622   -5.8163 C.2       1 <0>         0.4843
     19 O2          3.9252    2.7176   -6.1184 O.3       1 <0>        -0.5804
     20 N1          5.4080    0.9694   -6.3303 N.2       1 <0>        -0.6231
     21 C18         5.8244   -0.2756   -6.0428 C.2       1 <0>         0.3697
     22 S1          7.2103   -1.1050   -6.6104 S.2       1 <0>        -0.5317
     23 S2          4.5623   -0.8403   -4.9100 S.3       1 <0>        -0.1415
     24 H1         -0.5521    1.5522   -0.8065 H         1 <0>         0.0599
     25 H2         -1.6667    1.3322   -2.1767 H         1 <0>         0.0592
     26 H3         -2.2843    1.2710   -0.5084 H         1 <0>         0.0573
     27 H4         -1.7165   -0.6663    0.9636 H         1 <0>         0.0514
     28 H5         -0.6944   -1.9853    0.3440 H         1 <0>         0.0746
     29 H6          0.0157   -0.3851    0.6655 H         1 <0>         0.0514
     30 H7         -2.6635   -0.9139   -2.6280 H         1 <0>         0.0544
     31 H8         -2.2589   -2.2941   -1.5794 H         1 <0>         0.0578
     32 H9         -3.2810   -0.9751   -0.9598 H         1 <0>         0.0580
     33 H10         0.3058    1.2059   -2.5925 H         1 <0>         0.1349
     34 H11         2.9593   -1.7174   -4.2930 H         1 <0>         0.1570
     35 H12        -0.9915   -3.5145   -1.9400 H         1 <0>         0.3793
     36 H13         3.9202   -3.3734   -3.6630 H         1 <0>         0.0656
     37 H14         3.4182   -5.0079   -4.1577 H         1 <0>         0.0584
     38 H15         2.8064   -3.5851   -5.0352 H         1 <0>         0.0602
     39 H16         1.4668   -4.3799   -1.0504 H         1 <0>         0.0726
     40 H17         2.6358   -5.4720   -1.8307 H         1 <0>         0.0530
     41 H18         3.1379   -3.8376   -1.3359 H         1 <0>         0.0522
     42 H19         0.4608   -4.3465   -4.6343 H         1 <0>         0.0542
     43 H20         1.0725   -5.7692   -3.7569 H         1 <0>         0.0596
     44 H21        -0.0966   -4.6771   -2.9765 H         1 <0>         0.0554
     45 H22         2.0104    1.9282   -4.2702 H         1 <0>         0.1528
@<TRIPOS>BOND
     1    1    2 1
     2    1   24 1
     3    1   25 1
     4    1   26 1
     5    2    3 1
     6    2    4 1
     7    2    5 1
     8    3   27 1
     9    3   28 1
    10    3   29 1
    11    4   30 1
    12    4   31 1
    13    4   32 1
    14    5   10 ar
    15    5    6 ar
    16    6    7 ar
    17    6   33 1
    18    7    8 ar
    19    7   16 1
    20    8    9 ar
    21    8   34 1
    22    9   10 ar
    23    9   12 1
    24   10   11 1
    25   11   35 1
    26   12   13 1
    27   12   14 1
    28   12   15 1
    29   13   36 1
    30   13   37 1
    31   13   38 1
    32   14   39 1
    33   14   40 1
    34   14   41 1
    35   15   42 1
    36   15   43 1
    37   15   44 1
    38   16   17 2
    39   16   45 1
    40   17   23 1
    41   17   18 1
    42   18   19 1
    43   18   20 2
    44   20   21 1
    45   21   22 2
    46   21   23 1
@<TRIPOS>MOLECULE
CHEMBL92793
   36    38     0     0     0
SMALL
USER_CHARGES

@<TRIPOS>ATOM
      1 C1         -0.0225    1.8097    0.0120 C.3       1 <0>        -0.6502
      2 S1          0.0021   -0.0041    0.0020 S.o2      1 <0>         2.4971
      3 O1          0.8352   -0.4880    1.0465 O.2       1 <0>        -0.9341
      4 O2         -1.3147   -0.5105   -0.1678 O.2       1 <0>        -0.9348
      5 C2          0.8454   -0.4373   -1.4831 C.ar      1 <0>        -0.6532
      6 C3          0.1314   -0.6121   -2.6550 C.ar      1 <0>        -0.0179
      7 C4          0.7865   -0.9515   -3.8212 C.ar      1 <0>        -0.1262
      8 C5          2.1706   -1.1181   -3.8168 C.ar      1 <0>         0.0045
      9 C6          2.8849   -0.9406   -2.6328 C.ar      1 <0>        -0.1131
     10 C7          2.2196   -0.5958   -1.4740 C.ar      1 <0>        -0.0199
     11 C8          2.8801   -1.4831   -5.0662 C.ar      1 <0>        -0.0820
     12 C9          2.4361   -2.5506   -5.8493 C.ar      1 <0>        -0.0466
     13 C10         3.1333   -2.8521   -7.0080 C.ar      1 <0>        -0.0846
     14 C11         4.2405   -2.0937   -7.3540 C.ar      1 <0>         0.1286
     15 N1          4.6417   -1.0912   -6.6006 N.ar      1 <0>        -0.4507
     16 C12         4.0062   -0.7581   -5.4856 C.ar      1 <0>         0.1827
     17 C13         4.4917    0.3830   -4.6739 C.ar      1 <0>        -0.0102
     18 C14         3.5963    1.2070   -3.9850 C.ar      1 <0>        -0.1477
     19 C15         4.0912    2.2582   -3.2406 C.ar      1 <0>         0.0974
     20 N2          5.3882    2.4896   -3.1744 N.ar      1 <0>        -0.4721
     21 C16         6.2663    1.7369   -3.8087 C.ar      1 <0>         0.0994
     22 C17         5.8581    0.6618   -4.5713 C.ar      1 <0>        -0.1310
     23 Cl1         2.6246   -4.1694   -8.0178 Cl        1 <0>        -0.0378
     24 H1          1.0001    2.1870    0.0043 H         1 <0>         0.1331
     25 H2         -0.5497    2.1708   -0.8711 H         1 <0>         0.1327
     26 H3         -0.5327    2.1613    0.9088 H         1 <0>         0.1351
     27 H4         -0.9408   -0.4831   -2.6571 H         1 <0>         0.1488
     28 H5          0.2280   -1.0880   -4.7354 H         1 <0>         0.1380
     29 H6          3.9572   -1.0684   -2.6235 H         1 <0>         0.1327
     30 H7          2.7724   -0.4538   -0.5571 H         1 <0>         0.1475
     31 H8          1.5705   -3.1274   -5.5586 H         1 <0>         0.1549
     32 H9          4.7839   -2.3294   -8.2572 H         1 <0>         0.1752
     33 H10         2.5331    1.0235   -4.0350 H         1 <0>         0.1392
     34 H11         3.4074    2.9003   -2.7053 H         1 <0>         0.1594
     35 H12         7.3193    1.9629   -3.7270 H         1 <0>         0.1626
     36 H13         6.5829    0.0472   -5.0846 H         1 <0>         0.1435
@<TRIPOS>BOND
     1    1    2 1
     2    1   24 1
     3    1   25 1
     4    1   26 1
     5    2    3 2
     6    2    4 2
     7    2    5 1
     8    5   10 ar
     9    5    6 ar
    10    6    7 ar
    11    6   27 1
    12    7    8 ar
    13    7   28 1
    14    8    9 ar
    15    8   11 1
    16    9   10 ar
    17    9   29 1
    18   10   30 1
    19   11   16 ar
    20   11   12 ar
    21   12   13 ar
    22   12   31 1
    23   13   14 ar
    24   13   23 1
    25   14   15 ar
    26   14   32 1
    27   15   16 ar
    28   16   17 1
    29   17   22 ar
    30   17   18 ar
    31   18   19 ar
    32   18   33 1
    33   19   20 ar
    34   19   34 1
    35   20   21 ar
    36   21   22 ar
    37   21   35 1
    38   22   36 1
@<TRIPOS>MOLECULE
CHEMBL408897
   49    51     0     0     0
SMALL
USER_CHARGES

@<TRIPOS>ATOM
      1 C1         -0.0168    1.3895    0.0097 C.ar      1 <0>        -0.0884
      2 C2          1.1704    2.0931    0.0021 C.ar      1 <0>        -0.0263
      3 C3          2.3775    1.4179   -0.0135 C.ar      1 <0>        -0.6576
      4 C4          2.4023    0.0348   -0.0216 C.ar      1 <0>        -0.0280
      5 C5          1.2213   -0.6792   -0.0142 C.ar      1 <0>        -0.0891
      6 C6          0.0021   -0.0041    0.0020 C.ar      1 <0>         0.0101
      7 C7         -1.2705   -0.7658    0.0106 C.ar      1 <0>         0.4062
      8 N1         -2.4197   -0.1046    0.0200 N.ar      1 <0>        -0.5136
      9 C8         -3.5759   -0.7495    0.0274 C.ar      1 <0>         0.1269
     10 C9         -3.5793   -2.1317    0.0252 C.ar      1 <0>        -0.2391
     11 C10        -2.3532   -2.8013    0.0152 C.ar      1 <0>         0.4541
     12 N2         -1.2307   -2.0908    0.0031 N.ar      1 <0>        -0.5479
     13 N3         -2.3086   -4.1861    0.0125 N.pl3     1 <0>        -0.6976
     14 C11        -3.5531   -4.9591    0.0203 C.3       1 <0>         0.1198
     15 C12        -3.2252   -6.4535    0.0154 C.3       1 <0>        -0.0973
     16 C13        -2.5300   -6.8188   -1.2977 C.3       1 <0>        -0.1166
     17 C14        -2.2022   -8.3133   -1.3026 C.3       1 <0>        -0.1205
     18 C15        -3.4956   -9.1196   -1.1688 C.3       1 <0>        -0.1224
     19 C16        -4.1908   -8.7543    0.1443 C.3       1 <0>        -0.1194
     20 C17        -4.5186   -7.2598    0.1492 C.3       1 <0>        -0.1120
     21 C18        -4.8744    0.0152    0.0386 C.3       1 <0>         0.5249
     22 F1         -4.6103    1.3843   -0.0756 F         1 <0>        -0.1556
     23 F2         -5.6682   -0.3980   -1.0367 F         1 <0>        -0.1655
     24 F3         -5.5501   -0.2309    1.2387 F         1 <0>        -0.1654
     25 S1          3.8894    2.3228   -0.0236 S.o2      1 <0>         2.7009
     26 O1          4.8719    1.4658   -0.5889 O.2       1 <0>        -0.9600
     27 O2          3.5928    3.6029   -0.5647 O.2       1 <0>        -0.9591
     28 N4          4.3252    2.5658    1.5554 N.pl3     1 <0>        -1.2491
     29 H1         -0.9587    1.9177    0.0260 H         1 <0>         0.1519
     30 H2          1.1570    3.1730    0.0081 H         1 <0>         0.1517
     31 H3          3.3477   -0.4872   -0.0342 H         1 <0>         0.1507
     32 H4          1.2418   -1.7589   -0.0212 H         1 <0>         0.1490
     33 H5         -4.5088   -2.6816    0.0314 H         1 <0>         0.1575
     34 H6         -1.4534   -4.6438    0.0055 H         1 <0>         0.4142
     35 H7         -4.1263   -4.7158    0.9149 H         1 <0>         0.0737
     36 H8         -4.1393   -4.7128   -0.8651 H         1 <0>         0.0738
     37 H9         -2.5655   -6.6835    0.8520 H         1 <0>         0.0814
     38 H10        -3.1897   -6.5889   -2.1343 H         1 <0>         0.0663
     39 H11        -1.6086   -6.2444   -1.3930 H         1 <0>         0.0619
     40 H12        -1.7069   -8.5736   -2.2380 H         1 <0>         0.0640
     41 H13        -1.5424   -8.5433   -0.4659 H         1 <0>         0.0626
     42 H14        -4.1553   -8.8896   -2.0054 H         1 <0>         0.0626
     43 H15        -3.2620  -10.1843   -1.1722 H         1 <0>         0.0630
     44 H16        -5.1122   -9.3287    0.2396 H         1 <0>         0.0657
     45 H17        -3.5311   -8.9843    0.9809 H         1 <0>         0.0630
     46 H18        -5.0139   -6.9996    1.0846 H         1 <0>         0.0671
     47 H19        -5.1783   -7.0298   -0.6875 H         1 <0>         0.0677
     48 H20         3.7667    2.2235    2.2708 H         1 <0>         0.4173
     49 H21         5.1389    3.0504    1.7649 H         1 <0>         0.4223
@<TRIPOS>BOND
     1    1    6 ar
     2    1    2 ar
     3    1   29 1
     4    2    3 ar
     5    2   30 1
     6    3    4 ar
     7    3   25 1
     8    4    5 ar
     9    4   31 1
    10    5    6 ar
    11    5   32 1
    12    6    7 1
    13    7   12 ar
    14    7    8 ar
    15    8    9 ar
    16    9   10 ar
    17    9   21 1
    18   10   11 ar
    19   10   33 1
    20   11   12 ar
    21   11   13 1
    22   13   14 1
    23   13   34 1
    24   14   15 1
    25   14   35 1
    26   14   36 1
    27   15   20 1
    28   15   16 1
    29   15   37 1
    30   16   17 1
    31   16   38 1
    32   16   39 1
    33   17   18 1
    34   17   40 1
    35   17   41 1
    36   18   19 1
    37   18   42 1
    38   18   43 1
    39   19   20 1
    40   19   44 1
    41   19   45 1
    42   20   46 1
    43   20   47 1
    44   21   22 1
    45   21   23 1
    46   21   24 1
    47   25   26 2
    48   25   27 2
    49   25   28 1
    50   28   48 1
    51   28   49 1
@<TRIPOS>MOLECULE
CHEMBL29397
   40    43     0     0     0
SMALL
USER_CHARGES

@<TRIPOS>ATOM
      1 C1          0.9301    0.9308   -1.5054 C.ar      1 <0>        -0.1138
      2 C2          2.0615    1.6380   -1.1220 C.ar      1 <0>        -0.0874
      3 C3          2.9473    1.0697   -0.2284 C.ar      1 <0>        -0.0745
      4 C4          2.6951   -0.1915    0.2699 C.ar      1 <0>        -0.1134
      5 C5          1.5541   -0.9293   -0.1038 C.ar      1 <0>        -0.0753
      6 C6          0.6722   -0.3133   -1.0200 C.ar      1 <0>        -0.0749
      7 C7          1.4466   -2.2481    0.5211 C.2       1 <0>        -0.0659
      8 C8          2.4176   -2.6441    1.3802 C.2       1 <0>        -0.1287
      9 S1          3.5425   -1.2620    1.4026 S.3       1 <0>         0.0784
     10 C9          0.3010   -3.1313    0.2218 C.2       1 <0>         0.1539
     11 C10        -1.0303   -2.7765    0.2305 C.2       1 <0>        -0.1992
     12 C11        -1.7726   -3.9083   -0.1088 C.2       1 <0>        -0.0035
     13 N1         -0.9488   -4.9044   -0.3151 N.2       1 <0>        -0.2171
     14 N2          0.3624   -4.4522   -0.1216 N.pl3     1 <0>        -0.3102
     15 C12         1.5279   -5.2179   -0.2534 C.ar      1 <0>         0.1985
     16 C13         2.6433   -4.6840   -0.8853 C.ar      1 <0>        -0.1338
     17 C14         3.7912   -5.4413   -1.0133 C.ar      1 <0>         0.0004
     18 C15         3.8304   -6.7299   -0.5131 C.ar      1 <0>        -0.6748
     19 C16         2.7214   -7.2644    0.1166 C.ar      1 <0>         0.0040
     20 C17         1.5723   -6.5104    0.2525 C.ar      1 <0>        -0.1246
     21 S2          5.2966   -7.6931   -0.6790 S.o2      1 <0>         2.7031
     22 O1          4.8973   -9.0552   -0.6129 O.2       1 <0>        -0.9561
     23 O2          6.0088   -7.1609   -1.7874 O.2       1 <0>        -0.9538
     24 N3          6.2250   -7.4064    0.6620 N.pl3     1 <0>        -1.2463
     25 C18        -3.2741   -3.9732   -0.2189 C.3       1 <0>         0.5578
     26 F1         -3.6596   -3.6632   -1.5275 F         1 <0>        -0.1636
     27 F2         -3.7099   -5.2632    0.1024 F         1 <0>        -0.1634
     28 F3         -3.8468   -3.0536    0.6662 F         1 <0>        -0.1607
     29 H1          0.2371    1.3803   -2.2011 H         1 <0>         0.1325
     30 H2          2.2474    2.6247   -1.5198 H         1 <0>         0.1391
     31 H3          3.8315    1.6087    0.0781 H         1 <0>         0.1365
     32 H4         -0.2172   -0.8366   -1.3387 H         1 <0>         0.1276
     33 H5          2.4919   -3.5756    1.9217 H         1 <0>         0.1894
     34 H6         -1.4278   -1.7987    0.4592 H         1 <0>         0.1730
     35 H7          2.6131   -3.6778   -1.2764 H         1 <0>         0.1424
     36 H8          4.6589   -5.0268   -1.5049 H         1 <0>         0.1572
     37 H9          2.7552   -8.2711    0.5062 H         1 <0>         0.1572
     38 H10         0.7078   -6.9269    0.7480 H         1 <0>         0.1480
     39 H11         6.8169   -8.0971    0.9988 H         1 <0>         0.4241
     40 H12         6.1770   -6.5477    1.1107 H         1 <0>         0.4177
@<TRIPOS>BOND
     1    1    6 ar
     2    1    2 ar
     3    1   29 1
     4    2    3 ar
     5    2   30 1
     6    3    4 ar
     7    3   31 1
     8    4    9 1
     9    4    5 ar
    10    5    6 ar
    11    5    7 1
    12    6   32 1
    13    7    8 2
    14    7   10 1
    15    8    9 1
    16    8   33 1
    17   10   14 1
    18   10   11 2
    19   11   12 1
    20   11   34 1
    21   12   13 2
    22   12   25 1
    23   13   14 1
    24   14   15 1
    25   15   20 ar
    26   15   16 ar
    27   16   17 ar
    28   16   35 1
    29   17   18 ar
    30   17   36 1
    31   18   19 ar
    32   18   21 1
    33   19   20 ar
    34   19   37 1
    35   20   38 1
    36   21   22 2
    37   21   23 2
    38   21   24 1
    39   24   39 1
    40   24   40 1
    41   25   26 1
    42   25   27 1
    43   25   28 1
@<TRIPOS>MOLECULE
CHEMBL279552
   44    47     0     0     0
SMALL
USER_CHARGES

@<TRIPOS>ATOM
      1 C1          5.4044   -9.2525   -4.1771 C.3       1 <0>        -0.6505
      2 S1          5.0839   -8.0838   -2.8274 S.o2      1 <0>         2.4988
      3 O1          3.8936   -8.4444   -2.1400 O.2       1 <0>        -0.9348
      4 O2          6.2831   -7.8223   -2.1112 O.2       1 <0>        -0.9340
      5 C2          4.6974   -6.5625   -3.6279 C.ar      1 <0>        -0.6541
      6 C3          5.7086   -5.6680   -3.9318 C.ar      1 <0>        -0.0178
      7 C4          5.4135   -4.4753   -4.5584 C.ar      1 <0>        -0.1090
      8 C5          4.0900   -4.1711   -4.8862 C.ar      1 <0>         0.0529
      9 C6          3.0744   -5.0789   -4.5763 C.ar      1 <0>        -0.1223
     10 C7          3.3849   -6.2703   -3.9547 C.ar      1 <0>        -0.0178
     11 C8          3.7663   -2.8967   -5.5562 C.2       1 <0>        -0.1487
     12 C9          4.2447   -1.6110   -5.3044 C.2       1 <0>         0.1281
     13 N1          3.8041   -0.6151   -6.0449 N.2       1 <0>        -0.4572
     14 C10         2.9242   -0.8085   -7.0147 C.2       1 <0>         0.1536
     15 S2          2.6577   -2.5733   -6.9216 S.3       1 <0>         0.0614
     16 C11         2.3234    0.1770   -7.9376 C.ar      1 <0>        -0.0153
     17 C12         1.3984   -0.2352   -8.8985 C.ar      1 <0>        -0.0806
     18 C13         0.8410    0.6897   -9.7565 C.ar      1 <0>        -0.1143
     19 C14         1.1964    2.0243   -9.6670 C.ar      1 <0>        -0.0841
     20 C15         2.1124    2.4406   -8.7181 C.ar      1 <0>        -0.1134
     21 C16         2.6741    1.5262   -7.8487 C.ar      1 <0>         0.0033
     22 Cl1         3.8183    2.0511   -6.6533 Cl        1 <0>        -0.0237
     23 C17         5.2294   -1.3701   -4.2241 C.ar      1 <0>        -0.0665
     24 C18         5.0777   -1.9945   -2.9864 C.ar      1 <0>        -0.0678
     25 C19         5.9980   -1.7664   -1.9839 C.ar      1 <0>        -0.1298
     26 C20         7.0702   -0.9198   -2.2033 C.ar      1 <0>        -0.0770
     27 C21         7.2276   -0.2963   -3.4276 C.ar      1 <0>        -0.1591
     28 C22         6.3166   -0.5214   -4.4426 C.ar      1 <0>         0.1330
     29 F1          6.4740    0.0831   -5.6405 F         1 <0>        -0.1232
     30 H1          4.5150   -9.3398   -4.8011 H         1 <0>         0.1321
     31 H2          6.2374   -8.8914   -4.7803 H         1 <0>         0.1323
     32 H3          5.6536  -10.2287   -3.7610 H         1 <0>         0.1346
     33 H4          6.7313   -5.9043   -3.6775 H         1 <0>         0.1490
     34 H5          6.2036   -3.7779   -4.7947 H         1 <0>         0.1361
     35 H6          2.0490   -4.8500   -4.8266 H         1 <0>         0.1367
     36 H7          2.6013   -6.9750   -3.7185 H         1 <0>         0.1491
     37 H8          1.1202   -1.2763   -8.9701 H         1 <0>         0.1351
     38 H9          0.1256    0.3716  -10.5004 H         1 <0>         0.1397
     39 H10         0.7566    2.7439  -10.3416 H         1 <0>         0.1400
     40 H11         2.3855    3.4835   -8.6539 H         1 <0>         0.1428
     41 H12         4.2412   -2.6552   -2.8127 H         1 <0>         0.1310
     42 H13         5.8808   -2.2498   -1.0253 H         1 <0>         0.1353
     43 H14         7.7871   -0.7448   -1.4147 H         1 <0>         0.1367
     44 H15         8.0664    0.3637   -3.5926 H         1 <0>         0.1392
@<TRIPOS>BOND
     1    1    2 1
     2    1   30 1
     3    1   31 1
     4    1   32 1
     5    2    3 2
     6    2    4 2
     7    2    5 1
     8    5   10 ar
     9    5    6 ar
    10    6    7 ar
    11    6   33 1
    12    7    8 ar
    13    7   34 1
    14    8    9 ar
    15    8   11 1
    16    9   10 ar
    17    9   35 1
    18   10   36 1
    19   11   15 1
    20   11   12 2
    21   12   13 1
    22   12   23 1
    23   13   14 2
    24   14   15 1
    25   14   16 1
    26   16   21 ar
    27   16   17 ar
    28   17   18 ar
    29   17   37 1
    30   18   19 ar
    31   18   38 1
    32   19   20 ar
    33   19   39 1
    34   20   21 ar
    35   20   40 1
    36   21   22 1
    37   23   28 ar
    38   23   24 ar
    39   24   25 ar
    40   24   41 1
    41   25   26 ar
    42   25   42 1
    43   26   27 ar
    44   26   43 1
    45   27   28 ar
    46   27   44 1
    47   28   29 1
@<TRIPOS>MOLECULE
CHEMBL53610
   35    37     0     0     0
SMALL
USER_CHARGES

@<TRIPOS>ATOM
      1 C1          0.6682    1.4949    4.7283 C.3       1 <0>        -0.1211
      2 C2          1.2271    0.2049    4.1857 C.ar      1 <0>        -0.0317
      3 C3          2.5732   -0.0789    4.3288 C.ar      1 <0>        -0.1450
      4 C4          3.0907   -1.2609    3.8322 C.ar      1 <0>        -0.0681
      5 C5          2.2638   -2.1639    3.1905 C.ar      1 <0>        -0.1035
      6 C6          0.9107   -1.8825    3.0452 C.ar      1 <0>         0.2456
      7 C7          0.3931   -0.6957    3.5507 C.ar      1 <0>        -0.0616
      8 Cl1        -1.2978   -0.3419    3.3785 Cl        1 <0>        -0.0493
      9 N1          0.0711   -2.7933    2.3963 N.pl3     1 <0>        -0.6881
     10 C8          0.4347   -4.1361    2.3087 C.ar      1 <0>         0.2171
     11 C9          0.8050   -4.6799    1.0868 C.ar      1 <0>        -0.1209
     12 C10         1.1644   -6.0110    1.0020 C.ar      1 <0>        -0.0834
     13 C11         1.1586   -6.8113    2.1320 C.ar      1 <0>        -0.1240
     14 C12         0.7933   -6.2873    3.3545 C.ar      1 <0>        -0.0735
     15 C13         0.4334   -4.9427    3.4561 C.ar      1 <0>        -0.0360
     16 C14         0.0473   -4.3742    4.7627 C.2       1 <0>         0.2085
     17 N2         -0.4172   -3.1666    4.9778 N.2       1 <0>        -0.2274
     18 N3         -0.6465   -3.0148    6.2346 N.2       1 <0>        -0.2931
     19 C15        -0.3377   -4.1185    6.8715 C.2       1 <0>         0.4022
     20 O1          0.1016   -5.0038    5.9567 O.3       1 <0>        -0.2250
     21 N4         -0.4481   -4.3359    8.2348 N.pl3     1 <0>        -0.5438
     22 C16        -0.9140   -3.3524    9.0421 C.1       1 <0>         0.4273
     23 N5         -1.3045   -2.5278    9.7190 N.1       1 <0>        -0.3632
     24 Cl2         2.9149   -3.6472    2.5664 Cl        1 <0>        -0.0532
     25 H1          0.3452    1.3460    5.7586 H         1 <0>         0.0798
     26 H2          1.4378    2.2661    4.6966 H         1 <0>         0.0730
     27 H3         -0.1828    1.8056    4.1221 H         1 <0>         0.0754
     28 H4          3.2218    0.6248    4.8293 H         1 <0>         0.1367
     29 H5          4.1424   -1.4789    3.9455 H         1 <0>         0.1361
     30 H6         -0.7642   -2.4906    2.0071 H         1 <0>         0.4182
     31 H7          0.8118   -4.0618    0.2012 H         1 <0>         0.1384
     32 H8          1.4511   -6.4299    0.0488 H         1 <0>         0.1343
     33 H9          1.4412   -7.8509    2.0557 H         1 <0>         0.1344
     34 H10         0.7901   -6.9157    4.2329 H         1 <0>         0.1333
     35 H11        -0.1920   -5.1921    8.6117 H         1 <0>         0.4517
@<TRIPOS>BOND
     1    1    2 1
     2    1   25 1
     3    1   26 1
     4    1   27 1
     5    2    7 ar
     6    2    3 ar
     7    3    4 ar
     8    3   28 1
     9    4    5 ar
    10    4   29 1
    11    5    6 ar
    12    5   24 1
    13    6    7 ar
    14    6    9 1
    15    7    8 1
    16    9   10 1
    17    9   30 1
    18   10   15 ar
    19   10   11 ar
    20   11   12 ar
    21   11   31 1
    22   12   13 ar
    23   12   32 1
    24   13   14 ar
    25   13   33 1
    26   14   15 ar
    27   14   34 1
    28   15   16 1
    29   16   20 1
    30   16   17 2
    31   17   18 1
    32   18   19 2
    33   19   20 1
    34   19   21 1
    35   21   22 1
    36   21   35 1
    37   22   23 3
@<TRIPOS>MOLECULE
CHEMBL576416
   45    48     0     0     0
SMALL
USER_CHARGES

@<TRIPOS>ATOM
      1 C1         -0.0349    1.7083    0.0631 C.3       1 <0>        -0.6517
      2 S1         -0.0105   -0.1051    0.0235 S.o2      1 <0>         2.5020
      3 O1          0.8204   -0.6062    1.0616 O.2       1 <0>        -0.9395
      4 O2         -1.3270   -0.6085   -0.1574 O.2       1 <0>        -0.9409
      5 C2          0.8359   -0.5141   -1.4668 C.ar      1 <0>        -0.6606
      6 C3          0.1243   -0.6695   -2.6429 C.ar      1 <0>        -0.0315
      7 C4          0.7818   -0.9893   -3.8133 C.ar      1 <0>        -0.1037
      8 C5          2.1659   -1.1559   -3.8088 C.ar      1 <0>         0.0224
      9 C6          2.8777   -0.9980   -2.6206 C.ar      1 <0>        -0.1213
     10 C7          2.2100   -0.6730   -1.4574 C.ar      1 <0>        -0.0261
     11 C8          2.8781   -1.5000   -5.0629 C.ar      1 <0>         0.1754
     12 C9          4.2707   -1.6670   -5.0271 C.ar      1 <0>        -0.1474
     13 C10         4.9481   -1.9896   -6.1961 C.ar      1 <0>        -0.0574
     14 C11         4.1506   -2.1377   -7.4152 C.ar      1 <0>        -0.0795
     15 C12         4.7440   -2.4621   -8.6395 C.ar      1 <0>        -0.0705
     16 C13         3.9733   -2.5941   -9.7580 C.ar      1 <0>        -0.1413
     17 C14         2.5966   -2.4108   -9.7042 C.ar      1 <0>        -0.0872
     18 C15         1.9712   -2.0887   -8.5130 C.ar      1 <0>        -0.0511
     19 C16         2.7489   -1.9461   -7.3360 C.ar      1 <0>         0.1365
     20 N1          2.1813   -1.6437   -6.1708 N.ar      1 <0>        -0.4687
     21 C17         0.5036   -1.8947   -8.4675 C.ar      1 <0>        -0.0215
     22 C18        -0.2594   -2.5474   -7.4993 C.ar      1 <0>        -0.0808
     23 C19        -1.6262   -2.3626   -7.4622 C.ar      1 <0>        -0.1245
     24 C20        -2.2402   -1.5321   -8.3827 C.ar      1 <0>        -0.1248
     25 C21        -1.4888   -0.8819   -9.3454 C.ar      1 <0>        -0.1250
     26 C22        -0.1205   -1.0541   -9.3892 C.ar      1 <0>        -0.1110
     27 C23         6.4125   -2.1750   -6.2090 C.2       1 <0>         0.5260
     28 O3          7.0675   -1.9392   -5.2036 O.co2     1 <0>        -0.6676
     29 O4          6.9706   -2.5643   -7.2251 O.co2     1 <0>        -0.6666
     30 H1          0.9877    2.0855    0.0637 H         1 <0>         0.1320
     31 H2         -0.5602    2.0839   -0.8150 H         1 <0>         0.1311
     32 H3         -0.5469    2.0451    0.9645 H         1 <0>         0.1302
     33 H4         -0.9480   -0.5406   -2.6451 H         1 <0>         0.1415
     34 H5          0.2252   -1.1108   -4.7308 H         1 <0>         0.1449
     35 H6          3.9501   -1.1258   -2.6112 H         1 <0>         0.1439
     36 H7          2.7610   -0.5460   -0.5372 H         1 <0>         0.1447
     37 H8          4.8107   -1.5456   -4.0997 H         1 <0>         0.1456
     38 H9          5.8124   -2.6078   -8.6998 H         1 <0>         0.1773
     39 H10         4.4402   -2.8444  -10.6992 H         1 <0>         0.1256
     40 H11         2.0082   -2.5207  -10.6031 H         1 <0>         0.1243
     41 H12         0.2187   -3.1963   -6.7804 H         1 <0>         0.1215
     42 H13        -2.2181   -2.8677   -6.7132 H         1 <0>         0.1197
     43 H14        -3.3104   -1.3909   -8.3498 H         1 <0>         0.1170
     44 H15        -1.9737   -0.2348  -10.0613 H         1 <0>         0.1186
     45 H16         0.4656   -0.5423  -10.1382 H         1 <0>         0.1200
@<TRIPOS>BOND
     1    1    2 1
     2    1   30 1
     3    1   31 1
     4    1   32 1
     5    2    3 2
     6    2    4 2
     7    2    5 1
     8    5   10 ar
     9    5    6 ar
    10    6    7 ar
    11    6   33 1
    12    7    8 ar
    13    7   34 1
    14    8    9 ar
    15    8   11 1
    16    9   10 ar
    17    9   35 1
    18   10   36 1
    19   11   20 ar
    20   11   12 ar
    21   12   13 ar
    22   12   37 1
    23   13   14 ar
    24   13   27 1
    25   14   19 ar
    26   14   15 ar
    27   15   16 ar
    28   15   38 1
    29   16   17 ar
    30   16   39 1
    31   17   18 ar
    32   17   40 1
    33   18   19 ar
    34   18   21 1
    35   19   20 ar
    36   21   26 ar
    37   21   22 ar
    38   22   23 ar
    39   22   41 1
    40   23   24 ar
    41   23   42 1
    42   24   25 ar
    43   24   43 1
    44   25   26 ar
    45   25   44 1
    46   26   45 1
    47   27   28 2
    48   27   29 1
@<TRIPOS>MOLECULE
CHEMBL316823
   34    36     0     0     0
SMALL
USER_CHARGES

@<TRIPOS>ATOM
      1 C1         -0.0168    1.3897    0.0097 C.ar      1 <0>        -0.0772
      2 C2          1.1699    2.0936    0.0021 C.ar      1 <0>        -0.1508
      3 C3          2.3789    1.4173   -0.0135 C.ar      1 <0>         0.1039
      4 C4          2.4025    0.0322   -0.0216 C.ar      1 <0>        -0.1517
      5 C5          1.2209   -0.6802   -0.0142 C.ar      1 <0>        -0.0702
      6 C6          0.0021   -0.0041    0.0020 C.ar      1 <0>        -0.0441
      7 C7         -1.2707   -0.7652    0.0106 C.2       1 <0>        -0.0731
      8 C8         -2.2533   -0.4843    0.9118 C.2       1 <0>        -0.1580
      9 S1         -3.5228   -1.6624    0.4890 S.3       1 <0>         0.0700
     10 C9         -2.7042   -2.4828   -0.8657 C.2       1 <0>        -0.1508
     11 C10        -1.5128   -1.8248   -0.9394 C.2       1 <0>        -0.0919
     12 C11        -0.4978   -2.1888   -1.9571 C.ar      1 <0>         0.0343
     13 C12         0.0884   -1.1999   -2.7455 C.ar      1 <0>        -0.1196
     14 C13         1.0325   -1.5445   -3.6911 C.ar      1 <0>        -0.0143
     15 C14         1.3971   -2.8685   -3.8578 C.ar      1 <0>        -0.6755
     16 C15         0.8185   -3.8542   -3.0786 C.ar      1 <0>        -0.0144
     17 C16        -0.1219   -3.5206   -2.1252 C.ar      1 <0>        -0.1316
     18 S2          2.6029   -3.3011   -5.0676 S.o2      1 <0>         2.6998
     19 O1          2.3713   -4.6623   -5.4032 O.2       1 <0>        -0.9624
     20 O2          2.5931   -2.2645   -6.0395 O.2       1 <0>        -0.9620
     21 N1          4.0829   -3.2415   -4.3270 N.pl3     1 <0>        -1.2497
     22 F1          3.5383    2.1107   -0.0213 F         1 <0>        -0.1370
     23 H1         -0.9588    1.9177    0.0260 H         1 <0>         0.1354
     24 H2          1.1562    3.1735    0.0081 H         1 <0>         0.1393
     25 H3          3.3474   -0.4909   -0.0342 H         1 <0>         0.1378
     26 H4          1.2403   -1.7600   -0.0212 H         1 <0>         0.1309
     27 H5         -2.2610    0.2654    1.6891 H         1 <0>         0.1917
     28 H6         -3.0646   -3.2957   -1.4785 H         1 <0>         0.1921
     29 H7         -0.1961   -0.1660   -2.6167 H         1 <0>         0.1336
     30 H8          1.4873   -0.7792   -4.3025 H         1 <0>         0.1445
     31 H9          1.1068   -4.8863   -3.2132 H         1 <0>         0.1461
     32 H10        -0.5692   -4.2903   -1.5139 H         1 <0>         0.1367
     33 H11         4.1469   -2.9988   -3.3900 H         1 <0>         0.4165
     34 H12         4.8857   -3.4493   -4.8301 H         1 <0>         0.4218
@<TRIPOS>BOND
     1    1    6 ar
     2    1    2 ar
     3    1   23 1
     4    2    3 ar
     5    2   24 1
     6    3    4 ar
     7    3   22 1
     8    4    5 ar
     9    4   25 1
    10    5    6 ar
    11    5   26 1
    12    6    7 1
    13    7   11 1
    14    7    8 2
    15    8    9 1
    16    8   27 1
    17    9   10 1
    18   10   11 2
    19   10   28 1
    20   11   12 1
    21   12   17 ar
    22   12   13 ar
    23   13   14 ar
    24   13   29 1
    25   14   15 ar
    26   14   30 1
    27   15   16 ar
    28   15   18 1
    29   16   17 ar
    30   16   31 1
    31   17   32 1
    32   18   19 2
    33   18   20 2
    34   18   21 1
    35   21   33 1
    36   21   34 1
@<TRIPOS>MOLECULE
CHEMBL606555
   63    66     0     0     0
SMALL
USER_CHARGES

@<TRIPOS>ATOM
      1 C1          0.7191    2.3914    0.5685 C.3       1 <0>        -0.1471
      2 C2          1.1349    0.9692    0.9498 C.3       1 <0>         0.0345
      3 C3          1.9484    0.1672   -0.0679 C.3       1 <0>         0.0079
      4 O1          2.5290    0.7065    1.1213 O.3       1 <0>        -0.3172
      5 C4          1.7225   -1.3448   -0.1287 C.3       1 <0>        -0.1291
      6 C5          2.2856    0.8319   -1.3777 C.2       1 <0>         0.4928
      7 O2          1.5883    1.7238   -1.7998 O.2       1 <0>        -0.4816
      8 O3          3.3606    0.4329   -2.0756 O.3       1 <0>        -0.3151
      9 C6          3.6205    1.1070   -3.3085 C.3       1 <0>         0.0931
     10 H1          3.2595    2.1338   -3.2485 H         1 <0>         0.1201
     11 C7          5.1238    1.1054   -3.5893 C.3       1 <0>        -0.0801
     12 C8          5.6452    2.4899   -4.0047 C.3       1 <0>         0.1040
     13 H2          6.3599    2.3748   -4.8246 H         1 <0>         0.1078
     14 C9          4.5124    3.4219   -4.4390 C.3       1 <0>        -0.0212
     15 H3          3.5242    3.1932   -4.0423 H         1 <0>         0.1318
     16 C10         4.6043    4.0895   -5.8107 C.3       1 <0>         0.0306
     17 O4          4.8657    4.7997   -4.5972 O.3       1 <0>        -0.3247
     18 C11         3.3301    4.4819   -6.5589 C.3       1 <0>        -0.0982
     19 C12         2.5797    3.2276   -7.0160 C.3       1 <0>        -0.1070
     20 C13         2.3713    2.3391   -5.8169 C.2       1 <0>        -0.0581
     21 C14         3.0799    1.2200   -5.6984 C.2       1 <0>        -0.1886
     22 C15         2.9095    0.3746   -4.4588 C.3       1 <0>         0.1315
     23 O5          3.5046   -0.9089   -4.6602 O.3       1 <0>        -0.3318
     24 C16         2.7082   -1.8833   -5.1270 C.2       1 <0>         0.4551
     25 O6          1.5443   -1.6542   -5.3570 O.2       1 <0>        -0.4986
     26 C17         3.2656   -3.2632   -5.3642 C.3       1 <0>        -0.1473
     27 C18         4.0213    0.8169   -6.7485 C.2       1 <0>         0.5173
     28 O7          5.1971    0.6611   -6.4833 O.2       1 <0>        -0.4809
     29 O8          3.5823    0.6194   -8.0076 O.3       1 <0>        -0.3441
     30 C19         4.5541    0.2280   -8.9795 C.3       1 <0>         0.0287
     31 C20         5.8008    3.7267   -6.6956 C.3       1 <0>        -0.1478
     32 O9          6.3219    3.0320   -2.8637 O.3       1 <0>        -0.2929
     33 C21         6.6079    2.0531   -1.9741 C.2       1 <0>         0.0846
     34 C22         7.4271    2.1953   -0.9311 C.2       1 <0>        -0.2346
     35 C23         5.8930    0.8080   -2.3115 C.2       1 <0>        -0.1331
     36 C24         5.9165   -0.3366   -1.6388 C.2       1 <0>        -0.1068
     37 H4          1.6067    2.9788    0.3334 H         1 <0>         0.0666
     38 H5          0.0647    2.3574   -0.3025 H         1 <0>         0.0932
     39 H6          0.1896    2.8513    1.4030 H         1 <0>         0.0746
     40 H7          0.4338    0.4252    1.5829 H         1 <0>         0.1419
     41 H8          0.6799   -1.5468   -0.3740 H         1 <0>         0.0848
     42 H9          2.3663   -1.7778   -0.8943 H         1 <0>         0.0799
     43 H10         1.9604   -1.7869    0.8388 H         1 <0>         0.0866
     44 H11         5.3744    0.3642   -4.3561 H         1 <0>         0.1433
     45 H12         2.6888    5.0662   -5.8989 H         1 <0>         0.0858
     46 H13         3.5927    5.0832   -7.4293 H         1 <0>         0.0954
     47 H14         1.6145    3.5095   -7.4367 H         1 <0>         0.1042
     48 H15         3.1685    2.7000   -7.7665 H         1 <0>         0.0874
     49 H16         1.6530    2.6154   -5.0585 H         1 <0>         0.1440
     50 H17         1.8501    0.2618   -4.2286 H         1 <0>         0.1153
     51 H18         3.6520   -3.6650   -4.4275 H         1 <0>         0.1046
     52 H19         2.4765   -3.9141   -5.7406 H         1 <0>         0.1058
     53 H20         4.0715   -3.2086   -6.0960 H         1 <0>         0.1012
     54 H21         4.0695    0.1029   -9.9478 H         1 <0>         0.1061
     55 H22         5.3229    0.9970   -9.0546 H         1 <0>         0.0644
     56 H23         5.0110   -0.7143   -8.6774 H         1 <0>         0.0636
     57 H24         5.7360    2.6769   -6.9816 H         1 <0>         0.0833
     58 H25         5.7924    4.3484   -7.5908 H         1 <0>         0.0762
     59 H26         6.7254    3.8965   -6.1439 H         1 <0>         0.0742
     60 H27         7.9143    3.1425   -0.7523 H         1 <0>         0.1106
     61 H28         7.6033    1.3633   -0.2654 H         1 <0>         0.1237
     62 H29         5.3455   -1.1824   -1.9921 H         1 <0>         0.1173
     63 H30         6.5066   -0.4216   -0.7383 H         1 <0>         0.1120
@<TRIPOS>BOND
     1    1    2 1
     2    1   37 1
     3    1   38 1
     4    1   39 1
     5    2    4 1
     6    2    3 1
     7    2   40 1
     8    3    4 1
     9    3    5 1
    10    3    6 1
    11    5   41 1
    12    5   42 1
    13    5   43 1
    14    6    7 2
    15    6    8 1
    16    8    9 1
    17    9   10 1
    18    9   22 1
    19    9   11 1
    20   11   35 1
    21   11   12 1
    22   11   44 1
    23   12   13 1
    24   12   14 1
    25   12   32 1
    26   14   15 1
    27   14   17 1
    28   14   16 1
    29   16   17 1
    30   16   18 1
    31   16   31 1
    32   18   19 1
    33   18   45 1
    34   18   46 1
    35   19   20 1
    36   19   47 1
    37   19   48 1
    38   20   21 2
    39   20   49 1
    40   21   22 1
    41   21   27 1
    42   22   23 1
    43   22   50 1
    44   23   24 1
    45   24   25 2
    46   24   26 1
    47   26   51 1
    48   26   52 1
    49   26   53 1
    50   27   28 2
    51   27   29 1
    52   29   30 1
    53   30   54 1
    54   30   55 1
    55   30   56 1
    56   31   57 1
    57   31   58 1
    58   31   59 1
    59   32   33 1
    60   33   34 2
    61   33   35 1
    62   34   60 1
    63   34   61 1
    64   35   36 2
    65   36   62 1
    66   36   63 1
@<TRIPOS>MOLECULE
CHEMBL117943
   63    68     0     0     0
SMALL
USER_CHARGES

@<TRIPOS>ATOM
      1 C1          0.3078    0.6264   -1.3503 C.ar      1 <0>        -0.1131
      2 C2          1.4867    1.3482   -1.3570 C.ar      1 <0>        -0.1215
      3 C3          2.6954    0.6993   -1.1874 C.ar      1 <0>        -0.0993
      4 C4          2.7252   -0.6714   -1.0105 C.ar      1 <0>        -0.1088
      5 C5          1.5462   -1.3931   -1.0029 C.ar      1 <0>        -0.1007
      6 C6          0.3376   -0.7444   -1.1740 C.ar      1 <0>        -0.1230
      7 C7          4.0430   -1.3790   -0.8265 C.3       1 <0>         0.1608
      8 N1          4.3727   -1.4340    0.5998 N.am      1 <0>        -0.7238
      9 C8          5.5141   -2.0251    1.0053 C.2       1 <0>         0.5642
     10 O1          6.2701   -2.5126    0.1873 O.2       1 <0>        -0.5327
     11 C9          5.8463   -2.0805    2.4424 C.ar      1 <0>        -0.1300
     12 C10         4.9710   -1.5232    3.3847 C.ar      1 <0>        -0.0989
     13 C11         5.2658   -1.5677    4.7136 C.ar      1 <0>        -0.0718
     14 C12         6.4503   -2.1736    5.1498 C.ar      1 <0>         0.0738
     15 C13         7.3334   -2.7356    4.2093 C.ar      1 <0>         0.0338
     16 C14         7.0270   -2.6921    2.8602 C.ar      1 <0>        -0.0308
     17 N2          8.3904   -3.2468    4.9379 N.pl3     1 <0>        -0.4769
     18 C15         8.1363   -2.9945    6.2484 C.2       1 <0>         0.2808
     19 N3          7.0020   -2.3671    6.3727 N.2       1 <0>        -0.5019
     20 C16         9.5663   -3.9336    4.3976 C.3       1 <0>         0.1359
     21 C17        10.5993   -2.9152    3.9892 C.2       1 <0>        -0.1737
     22 C18        11.8523   -3.0111    4.4499 C.2       1 <0>         0.0016
     23 C19        12.2616   -4.2166    5.2083 C.ar      1 <0>        -0.0353
     24 C20        11.8213   -5.4492    4.7014 C.ar      1 <0>        -0.1139
     25 C21        12.1443   -6.6263    5.3356 C.ar      1 <0>        -0.1194
     26 C22        12.9123   -6.5904    6.4862 C.ar      1 <0>        -0.1129
     27 C23        13.3482   -5.3841    6.9860 C.ar      1 <0>        -0.1200
     28 C24        13.0317   -4.1800    6.3554 C.ar      1 <0>        -0.0977
     29 C25        13.5893   -2.9475    7.0178 C.3       1 <0>         0.1152
     30 O2         13.0681   -1.7339    6.5408 O.3       1 <0>        -0.3229
     31 C26        13.3722   -1.2915    5.3073 C.ar      1 <0>         0.0992
     32 C27        12.8128   -1.9128    4.1894 C.ar      1 <0>        -0.1081
     33 C28        13.1359   -1.5148    2.9046 C.ar      1 <0>        -0.0485
     34 C29        14.0296   -0.4516    2.7277 C.ar      1 <0>        -0.1333
     35 C30        14.5768    0.1887    3.8455 C.ar      1 <0>        -0.0660
     36 C31        14.2491   -0.2251    5.1320 C.ar      1 <0>        -0.1469
     37 C32        14.3928   -0.0091    1.3709 C.2       1 <0>         0.5205
     38 O3         13.9134   -0.5707    0.3955 O.co2     1 <0>        -0.6831
     39 O4         15.1739    0.9201    1.2191 O.co2     1 <0>        -0.6842
     40 H1         -0.6369    1.1339   -1.4784 H         1 <0>         0.1224
     41 H2          1.4634    2.4191   -1.4952 H         1 <0>         0.1244
     42 H3          3.6165    1.2631   -1.1933 H         1 <0>         0.1261
     43 H4          1.5695   -2.4640   -0.8651 H         1 <0>         0.1243
     44 H5         -0.5835   -1.3083   -1.1684 H         1 <0>         0.1234
     45 H6          3.9697   -2.3921   -1.2219 H         1 <0>         0.0780
     46 H7          4.8241   -0.8366   -1.3594 H         1 <0>         0.0797
     47 H8          3.7696   -1.0451    1.2524 H         1 <0>         0.4014
     48 H9          4.0559   -1.0545    3.0543 H         1 <0>         0.1289
     49 H10         4.5852   -1.1348    5.4318 H         1 <0>         0.1341
     50 H11         7.7004   -3.1256    2.1357 H         1 <0>         0.1375
     51 H12         8.7813   -3.2742    7.0683 H         1 <0>         0.2129
     52 H13         9.9853   -4.5907    5.1597 H         1 <0>         0.1121
     53 H14         9.2750   -4.5240    3.5290 H         1 <0>         0.1001
     54 H15        10.3286   -2.1079    3.3248 H         1 <0>         0.1301
     55 H16        11.2218   -5.4737    3.8034 H         1 <0>         0.1273
     56 H17        11.8012   -7.5704    4.9391 H         1 <0>         0.1274
     57 H18        13.1694   -7.5091    6.9924 H         1 <0>         0.1248
     58 H19        13.9469   -5.3691    7.8848 H         1 <0>         0.1246
     59 H20        13.3892   -3.0112    8.0874 H         1 <0>         0.1127
     60 H21        14.6697   -2.9383    6.8739 H         1 <0>         0.0643
     61 H22        12.7049   -2.0164    2.0507 H         1 <0>         0.1346
     62 H23        15.2588    1.0149    3.7086 H         1 <0>         0.1348
     63 H24        14.6750    0.2720    5.9910 H         1 <0>         0.1274
@<TRIPOS>BOND
     1    1    6 ar
     2    1    2 ar
     3    1   40 1
     4    2    3 ar
     5    2   41 1
     6    3    4 ar
     7    3   42 1
     8    4    5 ar
     9    4    7 1
    10    5    6 ar
    11    5   43 1
    12    6   44 1
    13    7    8 1
    14    7   45 1
    15    7   46 1
    16    8    9 am
    17    8   47 1
    18    9   10 2
    19    9   11 1
    20   11   16 ar
    21   11   12 ar
    22   12   13 ar
    23   12   48 1
    24   13   14 ar
    25   13   49 1
    26   14   19 1
    27   14   15 ar
    28   15   16 ar
    29   15   17 1
    30   16   50 1
    31   17   18 1
    32   17   20 1
    33   18   19 2
    34   18   51 1
    35   20   21 1
    36   20   52 1
    37   20   53 1
    38   21   22 2
    39   21   54 1
    40   22   32 1
    41   22   23 1
    42   23   28 ar
    43   23   24 ar
    44   24   25 ar
    45   24   55 1
    46   25   26 ar
    47   25   56 1
    48   26   27 ar
    49   26   57 1
    50   27   28 ar
    51   27   58 1
    52   28   29 1
    53   29   30 1
    54   29   59 1
    55   29   60 1
    56   30   31 1
    57   31   36 ar
    58   31   32 ar
    59   32   33 ar
    60   33   34 ar
    61   33   61 1
    62   34   35 ar
    63   34   37 1
    64   35   36 ar
    65   35   62 1
    66   36   63 1
    67   37   38 2
    68   37   39 1
@<TRIPOS>MOLECULE
CHEMBL283633
   41    44     0     0     0
SMALL
USER_CHARGES

@<TRIPOS>ATOM
      1 C1          0.0520    1.2913    0.4911 C.ar      1 <0>        -0.0722
      2 C2          1.2383    1.9949    0.4669 C.ar      1 <0>        -0.1060
      3 C3          2.3776    1.4182   -0.0686 C.ar      1 <0>        -0.0200
      4 C4          2.3335    0.1333   -0.5826 C.ar      1 <0>        -0.1047
      5 C5          1.1527   -0.5798   -0.5637 C.ar      1 <0>        -0.0938
      6 C6          0.0017   -0.0040   -0.0249 C.ar      1 <0>        -0.0430
      7 C7         -1.2675   -0.7639   -0.0013 C.2       1 <0>         0.1389
      8 C8         -2.5239   -0.2338    0.0127 C.2       1 <0>        -0.2207
      9 C9         -3.4406   -1.3014    0.0330 C.2       1 <0>         0.1670
     10 N1         -2.7603   -2.4313    0.0313 N.2       1 <0>        -0.2501
     11 N2         -1.3939   -2.1248    0.0045 N.pl3     1 <0>        -0.3285
     12 C10        -0.3430   -3.0493   -0.0109 C.ar      1 <0>         0.2059
     13 C11         0.7467   -2.8785    0.8333 C.ar      1 <0>        -0.1378
     14 C12         1.7817   -3.7927    0.8160 C.ar      1 <0>        -0.0035
     15 C13         1.7340   -4.8773   -0.0406 C.ar      1 <0>        -0.6774
     16 C14         0.6505   -5.0503   -0.8824 C.ar      1 <0>         0.0036
     17 C15        -0.3902   -4.1426   -0.8663 C.ar      1 <0>        -0.1268
     18 S1          3.0568   -6.0410   -0.0600 S.o2      1 <0>         2.7030
     19 O1          3.0285   -6.6670   -1.3354 O.2       1 <0>        -0.9575
     20 O2          4.2041   -5.3600    0.4290 O.2       1 <0>        -0.9546
     21 N3          2.6934   -7.2140    1.0510 N.pl3     1 <0>        -1.2467
     22 C16        -4.9140   -1.1776    0.0536 C.2       1 <0>        -0.0900
     23 C17        -5.8618   -2.1645    0.0795 C.2       1 <0>        -0.1126
     24 C18        -7.1925   -1.8053    0.0956 C.2       1 <0>        -0.1392
     25 C19        -7.5215   -0.4871    0.0854 C.2       1 <0>        -0.1170
     26 S2         -5.9186    0.2983    0.0591 S.3       1 <0>         0.1471
     27 Cl1        -9.0955    0.2451    0.1001 Cl        1 <0>         0.0252
     28 Cl2         3.8668    2.3099   -0.0963 Cl        1 <0>        -0.0568
     29 H1         -0.8350    1.7405    0.9128 H         1 <0>         0.1425
     30 H2          1.2785    2.9977    0.8660 H         1 <0>         0.1439
     31 H3          3.2250   -0.3114   -0.9994 H         1 <0>         0.1425
     32 H4          1.1193   -1.5819   -0.9651 H         1 <0>         0.1340
     33 H5         -2.7712    0.8175    0.0088 H         1 <0>         0.1641
     34 H6          0.7847   -2.0315    1.5022 H         1 <0>         0.1438
     35 H7          2.6294   -3.6603    1.4719 H         1 <0>         0.1563
     36 H8          0.6162   -5.8984   -1.5502 H         1 <0>         0.1557
     37 H9         -1.2382   -4.2806   -1.5207 H         1 <0>         0.1465
     38 H10         3.0098   -8.1214    0.9194 H         1 <0>         0.4238
     39 H11         2.1640   -6.9936    1.8334 H         1 <0>         0.4181
     40 H12        -5.5727   -3.2050    0.0868 H         1 <0>         0.1483
     41 H13        -7.9633   -2.5615    0.1158 H         1 <0>         0.1486
@<TRIPOS>BOND
     1    1    6 ar
     2    1    2 ar
     3    1   29 1
     4    2    3 ar
     5    2   30 1
     6    3    4 ar
     7    3   28 1
     8    4    5 ar
     9    4   31 1
    10    5    6 ar
    11    5   32 1
    12    6    7 1
    13    7   11 1
    14    7    8 2
    15    8    9 1
    16    8   33 1
    17    9   10 2
    18    9   22 1
    19   10   11 1
    20   11   12 1
    21   12   17 ar
    22   12   13 ar
    23   13   14 ar
    24   13   34 1
    25   14   15 ar
    26   14   35 1
    27   15   16 ar
    28   15   18 1
    29   16   17 ar
    30   16   36 1
    31   17   37 1
    32   18   19 2
    33   18   20 2
    34   18   21 1
    35   21   38 1
    36   21   39 1
    37   22   26 1
    38   22   23 2
    39   23   24 1
    40   23   40 1
    41   24   25 2
    42   24   41 1
    43   25   26 1
    44   25   27 1
@<TRIPOS>MOLECULE
CHEMBL421385
   56    59     0     0     0
SMALL
USER_CHARGES

@<TRIPOS>ATOM
      1 C1         -0.0182    1.5027    0.0102 C.3       1 <0>        -0.1052
      2 C2          0.0021   -0.0042    0.0020 C.2       1 <0>         0.1236
      3 C3          0.0074   -0.7679   -1.0995 C.2       1 <0>        -0.1454
      4 C4          0.0293   -2.1662   -0.6567 C.ar      1 <0>        -0.0346
      5 C5          0.0428   -3.3917   -1.3243 C.ar      1 <0>        -0.1103
      6 C6          0.0625   -4.5656   -0.5961 C.ar      1 <0>         0.1131
      7 C7          0.0688   -4.5275    0.7953 C.ar      1 <0>        -0.1752
      8 C8          0.0551   -3.3226    1.4635 C.ar      1 <0>        -0.0826
      9 C9          0.0357   -2.1316    0.7482 C.ar      1 <0>         0.0768
     10 N1          0.0240   -0.7990    1.1223 N.am      1 <0>        -0.5040
     11 C10         0.0297   -0.3494    2.3928 C.2       1 <0>         0.6029
     12 O1         -1.0174   -0.0751    2.9450 O.2       1 <0>        -0.4281
     13 C11         1.3084   -0.1902    3.1139 C.ar      1 <0>        -0.1665
     14 C12         2.5190   -0.3985    2.4491 C.ar      1 <0>        -0.0418
     15 C13         3.7097   -0.2483    3.1279 C.ar      1 <0>        -0.1204
     16 C14         3.7070    0.1084    4.4664 C.ar      1 <0>         0.0042
     17 C15         2.5096    0.3160    5.1314 C.ar      1 <0>        -0.1236
     18 C16         1.3125    0.1750    4.4621 C.ar      1 <0>        -0.0381
     19 Cl1         5.2103    0.2955    5.3141 Cl        1 <0>        -0.0523
     20 O2          0.0753   -5.7626   -1.2410 O.3       1 <0>        -0.3165
     21 C17         0.0954   -6.9375   -0.4278 C.3       1 <0>         0.0271
     22 C18        -0.0069   -0.2812   -2.5257 C.3       1 <0>        -0.0511
     23 C19         1.4090   -0.0991   -3.0085 C.2       1 <0>         0.5228
     24 O3          2.3382   -0.3408   -2.2676 O.2       1 <0>        -0.5051
     25 N2          1.6427    0.3323   -4.2638 N.am      1 <0>        -0.6047
     26 O4          2.9731    0.5033   -4.7176 O.3       1 <0>        -0.1373
     27 C20         3.0723    0.9650   -6.0663 C.3       1 <0>         0.0755
     28 C21         4.5245    1.1108   -6.4417 C.ar      1 <0>        -0.0952
     29 C22         5.1783    2.3087   -6.2220 C.ar      1 <0>        -0.0939
     30 C23         6.5104    2.4425   -6.5663 C.ar      1 <0>        -0.1230
     31 C24         7.1888    1.3781   -7.1300 C.ar      1 <0>        -0.1073
     32 C25         6.5352    0.1798   -7.3490 C.ar      1 <0>        -0.1228
     33 C26         5.2043    0.0447   -7.0007 C.ar      1 <0>        -0.0935
     34 H1          1.0044    1.8799    0.0025 H         1 <0>         0.0872
     35 H2         -0.5453    1.8638   -0.8729 H         1 <0>         0.0927
     36 H3         -0.5284    1.8543    0.9070 H         1 <0>         0.0712
     37 H4          0.0376   -3.4222   -2.4038 H         1 <0>         0.1330
     38 H5          0.0842   -5.4504    1.3560 H         1 <0>         0.1356
     39 H6          0.0595   -3.3039    2.5434 H         1 <0>         0.1227
     40 H7          2.5224   -0.6770    1.4056 H         1 <0>         0.1449
     41 H8          4.6464   -0.4095    2.6151 H         1 <0>         0.1454
     42 H9          2.5140    0.5936    6.1751 H         1 <0>         0.1463
     43 H10         0.3798    0.3418    4.9804 H         1 <0>         0.1476
     44 H11        -0.7911   -6.9558    0.2062 H         1 <0>         0.0553
     45 H12         0.1040   -7.8210   -1.0660 H         1 <0>         0.1004
     46 H13         0.9887   -6.9318    0.1968 H         1 <0>         0.0553
     47 H14        -0.5139   -1.0132   -3.1543 H         1 <0>         0.1109
     48 H15        -0.5343    0.6712   -2.5793 H         1 <0>         0.1083
     49 H16         0.8995    0.5256   -4.8565 H         1 <0>         0.4062
     50 H17         2.5953    0.2461   -6.7324 H         1 <0>         0.0710
     51 H18         2.5748    1.9305   -6.1574 H         1 <0>         0.0707
     52 H19         4.6483    3.1403   -5.7815 H         1 <0>         0.1246
     53 H20         7.0210    3.3786   -6.3953 H         1 <0>         0.1263
     54 H21         8.2293    1.4828   -7.3997 H         1 <0>         0.1254
     55 H22         7.0652   -0.6516   -7.7897 H         1 <0>         0.1265
     56 H23         4.6947   -0.8926   -7.1683 H         1 <0>         0.1250
@<TRIPOS>BOND
     1    1    2 1
     2    1   34 1
     3    1   35 1
     4    1   36 1
     5    2   10 1
     6    2    3 2
     7    3    4 1
     8    3   22 1
     9    4    9 ar
    10    4    5 ar
    11    5    6 ar
    12    5   37 1
    13    6    7 ar
    14    6   20 1
    15    7    8 ar
    16    7   38 1
    17    8    9 ar
    18    8   39 1
    19    9   10 1
    20   10   11 am
    21   11   12 2
    22   11   13 1
    23   13   18 ar
    24   13   14 ar
    25   14   15 ar
    26   14   40 1
    27   15   16 ar
    28   15   41 1
    29   16   17 ar
    30   16   19 1
    31   17   18 ar
    32   17   42 1
    33   18   43 1
    34   20   21 1
    35   21   44 1
    36   21   45 1
    37   21   46 1
    38   22   23 1
    39   22   47 1
    40   22   48 1
    41   23   24 2
    42   23   25 am
    43   25   26 1
    44   25   49 1
    45   26   27 1
    46   27   28 1
    47   27   50 1
    48   27   51 1
    49   28   33 ar
    50   28   29 ar
    51   29   30 ar
    52   29   52 1
    53   30   31 ar
    54   30   53 1
    55   31   32 ar
    56   31   54 1
    57   32   33 ar
    58   32   55 1
    59   33   56 1
@<TRIPOS>MOLECULE
CHEMBL549393
   43    44     0     0     0
SMALL
USER_CHARGES

@<TRIPOS>ATOM
      1 C1         -0.0187    1.5258    0.0104 C.3       1 <0>        -0.1536
      2 C2          0.0021   -0.0041    0.0020 C.3       1 <0>        -0.1206
      3 C3         -1.4333   -0.5336    0.0129 C.3       1 <0>        -0.1334
      4 C4         -1.4126   -2.0635    0.0045 C.3       1 <0>         0.1308
      5 N1         -2.7870   -2.5706    0.0149 N.pl3     1 <0>        -0.6888
      6 C5         -3.0214   -3.9347    0.0098 C.ar      1 <0>         0.5819
      7 N2         -4.2700   -4.3745    0.0139 N.ar      1 <0>        -0.5405
      8 C6         -4.5287   -5.6800    0.0092 C.ar      1 <0>         0.2668
      9 C7         -3.4611   -6.5819   -0.0002 C.ar      1 <0>        -0.2338
     10 C8         -2.1728   -6.0780   -0.0042 C.ar      1 <0>         0.1439
     11 N3         -1.9903   -4.7669   -0.0045 N.ar      1 <0>        -0.5303
     12 C9         -0.9899   -7.0116   -0.0138 C.3       1 <0>         0.5257
     13 F1         -0.6302   -7.2950   -1.3357 F         1 <0>        -0.1635
     14 F2          0.0870   -6.4067    0.6431 F         1 <0>        -0.1585
     15 F3         -1.3284   -8.2000    0.6423 F         1 <0>        -0.1642
     16 C10        -5.9284   -6.1702    0.0144 C.ar      1 <0>        -0.0096
     17 C11        -6.1901   -7.5393    0.0151 C.ar      1 <0>        -0.1075
     18 C12        -7.4946   -7.9897    0.0199 C.ar      1 <0>        -0.0267
     19 C13        -8.5413   -7.0854    0.0234 C.ar      1 <0>        -0.6427
     20 C14        -8.2875   -5.7256    0.0222 C.ar      1 <0>        -0.0294
     21 C15        -6.9870   -5.2637    0.0242 C.ar      1 <0>        -0.0883
     22 S1        -10.2043   -7.6678    0.0289 S.o2      1 <0>         2.4984
     23 O1        -10.9566   -6.6224   -0.5714 O.2       1 <0>        -0.9336
     24 O2        -10.1404   -8.9529   -0.5743 O.2       1 <0>        -0.9334
     25 C16       -10.6384   -7.8220    1.7834 C.3       1 <0>        -0.6493
     26 H1          1.0039    1.9031    0.0027 H         1 <0>         0.0577
     27 H2         -0.5459    1.8868   -0.8726 H         1 <0>         0.0550
     28 H3         -0.5289    1.8773    0.9072 H         1 <0>         0.0549
     29 H4          0.5123   -0.3556   -0.8948 H         1 <0>         0.0665
     30 H5          0.5293   -0.3651    0.8851 H         1 <0>         0.0665
     31 H6         -1.9435   -0.1821    0.9097 H         1 <0>         0.0710
     32 H7         -1.9605   -0.1726   -0.8702 H         1 <0>         0.0711
     33 H8         -0.9024   -2.4150   -0.8923 H         1 <0>         0.0717
     34 H9         -0.8854   -2.4246    0.8875 H         1 <0>         0.0722
     35 H10        -3.5327   -1.9503    0.0253 H         1 <0>         0.4190
     36 H11        -3.6378   -7.6473   -0.0038 H         1 <0>         0.1625
     37 H12        -5.3736   -8.2462    0.0117 H         1 <0>         0.1424
     38 H13        -7.6985   -9.0503    0.0205 H         1 <0>         0.1515
     39 H14        -9.1087   -5.0240    0.0246 H         1 <0>         0.1499
     40 H15        -6.7900   -4.2018    0.0285 H         1 <0>         0.1478
     41 H16       -10.5505   -6.8488    2.2663 H         1 <0>         0.1325
     42 H17       -11.6636   -8.1812    1.8738 H         1 <0>         0.1352
     43 H18        -9.9621   -8.5287    2.2643 H         1 <0>         0.1328
@<TRIPOS>BOND
     1    1    2 1
     2    1   26 1
     3    1   27 1
     4    1   28 1
     5    2    3 1
     6    2   29 1
     7    2   30 1
     8    3    4 1
     9    3   31 1
    10    3   32 1
    11    4    5 1
    12    4   33 1
    13    4   34 1
    14    5    6 1
    15    5   35 1
    16    6   11 ar
    17    6    7 ar
    18    7    8 ar
    19    8    9 ar
    20    8   16 1
    21    9   10 ar
    22    9   36 1
    23   10   11 ar
    24   10   12 1
    25   12   13 1
    26   12   14 1
    27   12   15 1
    28   16   21 ar
    29   16   17 ar
    30   17   18 ar
    31   17   37 1
    32   18   19 ar
    33   18   38 1
    34   19   20 ar
    35   19   22 1
    36   20   21 ar
    37   20   39 1
    38   21   40 1
    39   22   23 2
    40   22   24 2
    41   22   25 1
    42   25   41 1
    43   25   42 1
    44   25   43 1
@<TRIPOS>MOLECULE
CHEMBL363756
   38    40     0     0     0
SMALL
USER_CHARGES

@<TRIPOS>ATOM
      1 C1          0.0578    1.4783    0.0266 C.3       1 <0>        -0.1014
      2 C2          0.0363   -0.0284    0.0042 C.2       1 <0>         0.1103
      3 C3          0.0088   -0.7823   -1.1061 C.2       1 <0>        -0.1739
      4 C4         -0.0034   -2.1818   -0.6733 C.ar      1 <0>        -0.0419
      5 C5         -0.0304   -3.4053   -1.3456 C.ar      1 <0>        -0.0859
      6 C6         -0.0351   -4.5708   -0.6328 C.ar      1 <0>        -0.0650
      7 C7         -0.0133   -4.5487    0.7552 C.ar      1 <0>        -0.6404
      8 C8          0.0135   -3.3530    1.4385 C.ar      1 <0>        -0.0182
      9 C9          0.0188   -2.1539    0.7330 C.ar      1 <0>         0.0722
     10 N1          0.0477   -0.8307    1.1126 N.pl3     1 <0>        -0.5877
     11 H1          0.0709   -0.5144    2.0293 H         1 <0>         0.4188
     12 S1         -0.0205   -6.0655    1.6518 S.o2      1 <0>         2.5026
     13 O1         -0.5995   -5.7413    2.9083 O.2       1 <0>        -0.9409
     14 O2         -0.6499   -6.9973    0.7830 O.2       1 <0>        -0.9355
     15 C10         1.7303   -6.4912    1.8618 C.3       1 <0>        -0.6510
     16 C11        -0.0065   -0.2837   -2.5281 C.3       1 <0>        -0.0108
     17 C12         1.4026    0.0152   -2.9708 C.ar      1 <0>        -0.0644
     18 C13         1.9327    1.2782   -2.7843 C.ar      1 <0>        -0.1073
     19 C14         3.2251    1.5525   -3.1903 C.ar      1 <0>        -0.1134
     20 C15         3.9886    0.5639   -3.7832 C.ar      1 <0>        -0.1124
     21 C16         3.4598   -0.6991   -3.9702 C.ar      1 <0>        -0.1087
     22 C17         2.1680   -0.9759   -3.5587 C.ar      1 <0>        -0.0305
     23 Cl1         1.5053   -2.5640   -3.7873 Cl        1 <0>        -0.0635
     24 H2          1.0903    1.8271    0.0114 H         1 <0>         0.0832
     25 H3         -0.4684    1.8621   -0.8474 H         1 <0>         0.0890
     26 H4         -0.4331    1.8352    0.9320 H         1 <0>         0.0734
     27 H5         -0.0478   -3.4302   -2.4251 H         1 <0>         0.1311
     28 H6         -0.0563   -5.5169   -1.1532 H         1 <0>         0.1400
     29 H7          0.0300   -3.3463    2.5184 H         1 <0>         0.1401
     30 H8          2.2332   -5.6982    2.4152 H         1 <0>         0.1301
     31 H9          1.8129   -7.4278    2.4134 H         1 <0>         0.1326
     32 H10         2.1969   -6.6036    0.8832 H         1 <0>         0.1324
     33 H11        -0.4368   -1.0471   -3.1762 H         1 <0>         0.0883
     34 H12        -0.6065    0.6243   -2.5883 H         1 <0>         0.0859
     35 H13         1.3367    2.0509   -2.3216 H         1 <0>         0.1305
     36 H14         3.6387    2.5395   -3.0447 H         1 <0>         0.1286
     37 H15         4.9983    0.7789   -4.1005 H         1 <0>         0.1310
     38 H16         4.0562   -1.4711   -4.4335 H         1 <0>         0.1326
@<TRIPOS>BOND
     1    1    2 1
     2    1   24 1
     3    1   25 1
     4    1   26 1
     5    2   10 1
     6    2    3 2
     7    3    4 1
     8    3   16 1
     9    4    9 ar
    10    4    5 ar
    11    5    6 ar
    12    5   27 1
    13    6    7 ar
    14    6   28 1
    15    7    8 ar
    16    7   12 1
    17    8    9 ar
    18    8   29 1
    19    9   10 1
    20   10   11 1
    21   12   13 2
    22   12   14 2
    23   12   15 1
    24   15   30 1
    25   15   31 1
    26   15   32 1
    27   16   17 1
    28   16   33 1
    29   16   34 1
    30   17   22 ar
    31   17   18 ar
    32   18   19 ar
    33   18   35 1
    34   19   20 ar
    35   19   36 1
    36   20   21 ar
    37   20   37 1
    38   21   22 ar
    39   21   38 1
    40   22   23 1
@<TRIPOS>MOLECULE
CHEMBL29469
   45    48     0     0     0
SMALL
USER_CHARGES

@<TRIPOS>ATOM
      1 C1          0.8734    0.0744   -0.8148 C.ar      1 <0>        -0.1318
      2 C2          2.1187    0.6505   -0.6574 C.ar      1 <0>        -0.0001
      3 C3          2.6089    0.9058    0.6102 C.ar      1 <0>        -0.6726
      4 C4          1.8545    0.5852    1.7239 C.ar      1 <0>         0.0017
      5 C5          0.6087    0.0084    1.5732 C.ar      1 <0>        -0.1237
      6 C6          0.1134   -0.2487    0.3016 C.ar      1 <0>         0.1984
      7 N1         -1.1502   -0.8327    0.1454 N.pl3     1 <0>        -0.3165
      8 C7         -1.4644   -1.8601   -0.6981 C.2       1 <0>         0.1498
      9 C8         -2.7965   -2.1226   -0.5394 C.2       1 <0>        -0.2038
     10 C9         -3.2959   -1.2381    0.4170 C.2       1 <0>        -0.0034
     11 N2         -2.3176   -0.4724    0.8305 N.2       1 <0>        -0.2169
     12 C10        -4.7228   -1.1776    0.8980 C.3       1 <0>         0.5580
     13 F1         -4.8804   -2.0272    1.9983 F         1 <0>        -0.1637
     14 F2         -5.0333    0.1339    1.2734 F         1 <0>        -0.1638
     15 F3         -5.5794   -1.5834   -0.1309 F         1 <0>        -0.1612
     16 C11        -0.5361   -2.5582   -1.6132 C.ar      1 <0>        -0.0534
     17 C12         0.8306   -2.5978   -1.3291 C.ar      1 <0>        -0.0899
     18 C13         1.6807   -3.2436   -2.1948 C.ar      1 <0>        -0.0932
     19 C14         1.1914   -3.8632   -3.3475 C.ar      1 <0>        -0.0564
     20 C15        -0.1635   -3.8416   -3.6300 C.ar      1 <0>        -0.0805
     21 C16        -1.0217   -3.1828   -2.7571 C.ar      1 <0>        -0.0672
     22 C17        -0.7981   -4.5109   -4.8133 C.3       1 <0>        -0.0900
     23 C18         0.1516   -4.7185   -5.9798 C.3       1 <0>        -0.1239
     24 C19         1.3049   -5.6283   -5.5322 C.3       1 <0>        -0.1085
     25 S1          2.3550   -4.6526   -4.4153 S.3       1 <0>        -0.1087
     26 S2          4.1984    1.6404    0.8066 S.o2      1 <0>         2.7029
     27 O1          4.6572    1.2756    2.1011 O.2       1 <0>        -0.9569
     28 O2          4.9319    1.3430   -0.3735 O.2       1 <0>        -0.9563
     29 N3          3.9799    3.2818    0.8271 N.pl3     1 <0>        -1.2487
     30 H1          0.4893   -0.1206   -1.8051 H         1 <0>         0.1460
     31 H2          2.7104    0.9017   -1.5253 H         1 <0>         0.1584
     32 H3          2.2401    0.7858    2.7126 H         1 <0>         0.1580
     33 H4          0.0203   -0.2423    2.4434 H         1 <0>         0.1480
     34 H5         -3.3620   -2.8798   -1.0621 H         1 <0>         0.1728
     35 H6          1.2160   -2.1252   -0.4377 H         1 <0>         0.1307
     36 H7          2.7391   -3.2721   -1.9818 H         1 <0>         0.1372
     37 H8         -2.0795   -3.1516   -2.9726 H         1 <0>         0.1350
     38 H9         -1.1821   -5.4817   -4.4999 H         1 <0>         0.0837
     39 H10        -1.6360   -3.9008   -5.1507 H         1 <0>         0.0880
     40 H11        -0.3828   -5.1873   -6.8060 H         1 <0>         0.0889
     41 H12         0.5501   -3.7562   -6.3011 H         1 <0>         0.0811
     42 H13         0.9097   -6.4971   -5.0058 H         1 <0>         0.0948
     43 H14         1.8826   -5.9493   -6.3990 H         1 <0>         0.1163
     44 H15         3.0884    3.6536    0.7383 H         1 <0>         0.4178
     45 H16         4.7435    3.8715    0.9280 H         1 <0>         0.4235
@<TRIPOS>BOND
     1    1    6 ar
     2    1    2 ar
     3    1   30 1
     4    2    3 ar
     5    2   31 1
     6    3    4 ar
     7    3   26 1
     8    4    5 ar
     9    4   32 1
    10    5    6 ar
    11    5   33 1
    12    6    7 1
    13    7   11 1
    14    7    8 1
    15    8    9 2
    16    8   16 1
    17    9   10 1
    18    9   34 1
    19   10   11 2
    20   10   12 1
    21   12   13 1
    22   12   14 1
    23   12   15 1
    24   16   21 ar
    25   16   17 ar
    26   17   18 ar
    27   17   35 1
    28   18   19 ar
    29   18   36 1
    30   19   25 1
    31   19   20 ar
    32   20   21 ar
    33   20   22 1
    34   21   37 1
    35   22   23 1
    36   22   38 1
    37   22   39 1
    38   23   24 1
    39   23   40 1
    40   23   41 1
    41   24   25 1
    42   24   42 1
    43   24   43 1
    44   26   27 2
    45   26   28 2
    46   26   29 1
    47   29   44 1
    48   29   45 1
@<TRIPOS>MOLECULE
CHEMBL17276
   47    50     0     0     0
SMALL
USER_CHARGES

@<TRIPOS>ATOM
      1 C1          0.8977   -1.2088    1.3515 C.3       1 <0>        -0.6503
      2 S1         -0.0075   -0.2932    0.0737 S.o2      1 <0>         2.4981
      3 O1         -1.3053   -0.8460   -0.0979 O.2       1 <0>        -0.9351
      4 O2          0.1656    1.1051    0.2582 O.2       1 <0>        -0.9346
      5 C2          0.8383   -0.6565   -1.4287 C.ar      1 <0>        -0.6549
      6 C3          1.8874    0.1466   -1.8399 C.ar      1 <0>        -0.0179
      7 C4          2.5539   -0.1320   -3.0150 C.ar      1 <0>        -0.1105
      8 C5          2.1677   -1.2276   -3.7902 C.ar      1 <0>         0.0550
      9 C6          1.1079   -2.0338   -3.3691 C.ar      1 <0>        -0.1242
     10 C7          0.4539   -1.7469   -2.1890 C.ar      1 <0>        -0.0179
     11 C8          2.8761   -1.5318   -5.0494 C.2       1 <0>        -0.1833
     12 C9          4.2431   -1.6111   -5.3053 C.2       1 <0>         0.1337
     13 N1          4.5814   -1.9070   -6.5499 N.2       1 <0>        -0.4996
     14 C10         3.6804   -2.1106   -7.4752 C.2       1 <0>         0.0669
     15 S2          2.2191   -1.9081   -6.6665 S.3       1 <0>         0.1562
     16 C11         3.8997   -2.4531   -8.9263 C.3       1 <0>         0.0070
     17 C12         3.9524   -3.9507   -9.0865 C.ar      1 <0>        -0.0910
     18 C13         5.1600   -4.6150   -8.9809 C.ar      1 <0>        -0.0992
     19 C14         5.2084   -5.9886   -9.1279 C.ar      1 <0>        -0.1193
     20 C15         4.0491   -6.6980   -9.3800 C.ar      1 <0>        -0.1147
     21 C16         2.8413   -6.0338   -9.4847 C.ar      1 <0>        -0.1189
     22 C17         2.7923   -4.6606   -9.3335 C.ar      1 <0>        -0.1110
     23 C18         5.2556   -1.3781   -4.2494 C.ar      1 <0>        -0.0347
     24 C19         5.0761   -1.9190   -2.9764 C.ar      1 <0>        -0.0660
     25 C20         6.0218   -1.6992   -1.9964 C.ar      1 <0>        -0.1533
     26 C21         7.1486   -0.9424   -2.2751 C.ar      1 <0>         0.1103
     27 C22         7.3315   -0.4030   -3.5382 C.ar      1 <0>        -0.1542
     28 C23         6.3943   -0.6219   -4.5266 C.ar      1 <0>        -0.0542
     29 F1          8.0718   -0.7295   -1.3120 F         1 <0>        -0.1358
     30 H1          0.8723   -2.2741    1.1219 H         1 <0>         0.1322
     31 H2          1.9326   -0.8676    1.3787 H         1 <0>         0.1324
     32 H3          0.4322   -1.0350    2.3216 H         1 <0>         0.1345
     33 H4          2.1848    0.9937   -1.2396 H         1 <0>         0.1483
     34 H5          3.3724    0.4958   -3.3349 H         1 <0>         0.1362
     35 H6          0.8041   -2.8826   -3.9638 H         1 <0>         0.1362
     36 H7         -0.3627   -2.3723   -1.8597 H         1 <0>         0.1485
     37 H8          3.0795   -2.0526   -9.5221 H         1 <0>         0.1034
     38 H9          4.8403   -2.0182   -9.2641 H         1 <0>         0.1105
     39 H10         6.0658   -4.0607   -8.7839 H         1 <0>         0.1251
     40 H11         6.1520   -6.5076   -9.0461 H         1 <0>         0.1241
     41 H12         4.0870   -7.7712   -9.4956 H         1 <0>         0.1236
     42 H13         1.9356   -6.5880   -9.6821 H         1 <0>         0.1249
     43 H14         1.8481   -4.1421   -9.4116 H         1 <0>         0.1229
     44 H15         4.1980   -2.5087   -2.7581 H         1 <0>         0.1321
     45 H16         5.8836   -2.1172   -1.0103 H         1 <0>         0.1401
     46 H17         8.2112    0.1865   -3.7505 H         1 <0>         0.1408
     47 H18         6.5401   -0.2051   -5.5122 H         1 <0>         0.1374
@<TRIPOS>BOND
     1    1    2 1
     2    1   30 1
     3    1   31 1
     4    1   32 1
     5    2    3 2
     6    2    4 2
     7    2    5 1
     8    5   10 ar
     9    5    6 ar
    10    6    7 ar
    11    6   33 1
    12    7    8 ar
    13    7   34 1
    14    8    9 ar
    15    8   11 1
    16    9   10 ar
    17    9   35 1
    18   10   36 1
    19   11   15 1
    20   11   12 2
    21   12   13 1
    22   12   23 1
    23   13   14 2
    24   14   15 1
    25   14   16 1
    26   16   17 1
    27   16   37 1
    28   16   38 1
    29   17   22 ar
    30   17   18 ar
    31   18   19 ar
    32   18   39 1
    33   19   20 ar
    34   19   40 1
    35   20   21 ar
    36   20   41 1
    37   21   22 ar
    38   21   42 1
    39   22   43 1
    40   23   28 ar
    41   23   24 ar
    42   24   25 ar
    43   24   44 1
    44   25   26 ar
    45   25   45 1
    46   26   27 ar
    47   26   29 1
    48   27   28 ar
    49   27   46 1
    50   28   47 1
@<TRIPOS>MOLECULE
CHEMBL292413
   39    41     0     0     0
SMALL
USER_CHARGES

@<TRIPOS>ATOM
      1 C1         -0.0184    1.5028    0.0103 C.3       1 <0>        -0.1097
      2 C2          0.0021   -0.0041    0.0020 C.ar      1 <0>         0.1375
      3 C3          0.0055   -0.6781   -1.2059 C.ar      1 <0>        -0.1692
      4 C4          0.0243   -2.0619   -1.2090 C.ar      1 <0>        -0.0544
      5 C5          0.0392   -2.7276    0.0207 C.ar      1 <0>        -0.1183
      6 C6          0.0345   -1.9756    1.1941 C.ar      1 <0>         0.1336
      7 N1          0.0218   -0.6592    1.1466 N.ar      1 <0>        -0.4788
      8 C7          0.0591   -4.2088    0.0752 C.ar      1 <0>        -0.0045
      9 C8         -0.8534   -4.9485   -0.6723 C.ar      1 <0>        -0.1118
     10 C9         -0.8317   -6.3291   -0.6194 C.ar      1 <0>         0.0826
     11 C10         0.0973   -6.9854    0.1776 C.ar      1 <0>         0.0764
     12 C11         1.0087   -6.2638    0.9246 C.ar      1 <0>        -0.1038
     13 C12         1.0018   -4.8723    0.8763 C.ar      1 <0>        -0.0309
     14 C13         1.9819   -4.0948    1.6715 C.ar      1 <0>         0.0078
     15 C14         2.7267   -3.0825    1.0681 C.ar      1 <0>        -0.1170
     16 C15         3.6376   -2.3621    1.8134 C.ar      1 <0>        -0.0156
     17 C16         3.8128   -2.6431    3.1565 C.ar      1 <0>        -0.6702
     18 C17         3.0766   -3.6464    3.7606 C.ar      1 <0>        -0.0108
     19 C18         2.1583   -4.3693    3.0269 C.ar      1 <0>        -0.1261
     20 S1          4.9787   -1.7197    4.1015 S.o2      1 <0>         2.7004
     21 O1          5.3484   -2.5384    5.2025 O.2       1 <0>        -0.9606
     22 O2          5.9312   -1.2053    3.1809 O.2       1 <0>        -0.9589
     23 N2          4.1758   -0.4151    4.7303 N.pl3     1 <0>        -1.2468
     24 F1          0.1098   -8.3356    0.2231 F         1 <0>        -0.1210
     25 F2         -1.7186   -7.0438   -1.3460 F         1 <0>        -0.1210
     26 H1          1.0042    1.8801    0.0026 H         1 <0>         0.0823
     27 H2         -0.5455    1.8639   -0.8728 H         1 <0>         0.0775
     28 H3         -0.5286    1.8543    0.9071 H         1 <0>         0.0800
     29 H4         -0.0067   -0.1304   -2.1366 H         1 <0>         0.1407
     30 H5          0.0270   -2.6136   -2.1374 H         1 <0>         0.1394
     31 H6          0.0459   -2.4765    2.1509 H         1 <0>         0.1545
     32 H7         -1.5784   -4.4431   -1.2932 H         1 <0>         0.1534
     33 H8          1.7289   -6.7791    1.5427 H         1 <0>         0.1553
     34 H9          2.5912   -2.8627    0.0194 H         1 <0>         0.1332
     35 H10         4.2152   -1.5776    1.3471 H         1 <0>         0.1448
     36 H11         3.2179   -3.8616    4.8095 H         1 <0>         0.1483
     37 H12         1.5806   -5.1492    3.5006 H         1 <0>         0.1401
     38 H13         4.4554   -0.0361    5.5783 H         1 <0>         0.4227
     39 H14         3.4258   -0.0298    4.2506 H         1 <0>         0.4186
@<TRIPOS>BOND
     1    1    2 1
     2    1   26 1
     3    1   27 1
     4    1   28 1
     5    2    7 ar
     6    2    3 ar
     7    3    4 ar
     8    3   29 1
     9    4    5 ar
    10    4   30 1
    11    5    6 ar
    12    5    8 1
    13    6    7 ar
    14    6   31 1
    15    8   13 ar
    16    8    9 ar
    17    9   10 ar
    18    9   32 1
    19   10   11 ar
    20   10   25 1
    21   11   12 ar
    22   11   24 1
    23   12   13 ar
    24   12   33 1
    25   13   14 1
    26   14   19 ar
    27   14   15 ar
    28   15   16 ar
    29   15   34 1
    30   16   17 ar
    31   16   35 1
    32   17   18 ar
    33   17   20 1
    34   18   19 ar
    35   18   36 1
    36   19   37 1
    37   20   21 2
    38   20   22 2
    39   20   23 1
    40   23   38 1
    41   23   39 1
@<TRIPOS>MOLECULE
CHEMBL320926
   36    38     0     0     0
SMALL
USER_CHARGES

@<TRIPOS>ATOM
      1 C1         -0.0184    1.5028    0.0103 C.3       1 <0>        -0.0727
      2 C2          0.0021   -0.0041    0.0020 C.2       1 <0>         0.0669
      3 N1          0.0090   -0.8110   -1.0316 N.2       1 <0>        -0.5169
      4 C3          0.0273   -2.1162   -0.8848 C.2       1 <0>         0.1149
      5 C4          0.0387   -2.5896    0.4056 C.2       1 <0>        -0.1804
      6 S1          0.0288   -1.0540    1.3171 S.3       1 <0>         0.1464
      7 C5          0.0595   -3.9762    0.8988 C.2       1 <0>         0.3276
      8 N2         -0.1993   -5.0531    0.1860 N.2       1 <0>        -0.4177
      9 C6         -0.0848   -6.1367    0.9637 C.2       1 <0>        -0.0779
     10 C7          0.2563   -5.7383    2.2053 C.2       1 <0>         0.0426
     11 N3          0.3567   -4.3692    2.1755 N.pl3     1 <0>        -0.4148
     12 C8          0.6957   -3.5338    3.2481 C.ar      1 <0>         0.1634
     13 C9          1.6789   -2.5659    3.0923 C.ar      1 <0>        -0.1277
     14 C10         2.0108   -1.7439    4.1514 C.ar      1 <0>         0.0065
     15 C11         1.3651   -1.8843    5.3661 C.ar      1 <0>        -0.6681
     16 C12         0.3858   -2.8476    5.5246 C.ar      1 <0>         0.0039
     17 C13         0.0451   -3.6684    4.4673 C.ar      1 <0>        -0.1271
     18 S2          1.7914   -0.8338    6.7150 S.o2      1 <0>         2.7021
     19 O1          1.4273   -1.5273    7.9006 O.2       1 <0>        -0.9550
     20 O2          3.1164   -0.3807    6.4738 O.2       1 <0>        -0.9547
     21 N4          0.8121    0.4987    6.6264 N.pl3     1 <0>        -1.2480
     22 C14        -0.3015   -7.5620    0.5249 C.3       1 <0>         0.5570
     23 F1         -0.5314   -7.5954   -0.8547 F         1 <0>        -0.1611
     24 F2          0.8344   -8.3207    0.8269 F         1 <0>        -0.1698
     25 F3         -1.4087   -8.0930    1.1952 F         1 <0>        -0.1699
     26 H1          1.0042    1.8801    0.0026 H         1 <0>         0.0970
     27 H2         -0.5455    1.8639   -0.8728 H         1 <0>         0.0991
     28 H3         -0.5286    1.8543    0.9071 H         1 <0>         0.0897
     29 H4          0.0328   -2.7831   -1.7343 H         1 <0>         0.1873
     30 H5          0.4231   -6.3758    3.0610 H         1 <0>         0.2024
     31 H6          2.1838   -2.4560    2.1439 H         1 <0>         0.1447
     32 H7          2.7758   -0.9911    4.0310 H         1 <0>         0.1600
     33 H8         -0.1163   -2.9553    6.4747 H         1 <0>         0.1599
     34 H9         -0.7235   -4.4172    4.5901 H         1 <0>         0.1485
     35 H10         0.1587    0.5738    5.9134 H         1 <0>         0.4174
     36 H11         0.8918    1.2039    7.2875 H         1 <0>         0.4244
@<TRIPOS>BOND
     1    1    2 1
     2    1   26 1
     3    1   27 1
     4    1   28 1
     5    2    6 1
     6    2    3 2
     7    3    4 1
     8    4    5 2
     9    4   29 1
    10    5    6 1
    11    5    7 1
    12    7   11 1
    13    7    8 2
    14    8    9 1
    15    9   10 2
    16    9   22 1
    17   10   11 1
    18   10   30 1
    19   11   12 1
    20   12   17 ar
    21   12   13 ar
    22   13   14 ar
    23   13   31 1
    24   14   15 ar
    25   14   32 1
    26   15   16 ar
    27   15   18 1
    28   16   17 ar
    29   16   33 1
    30   17   34 1
    31   18   19 2
    32   18   20 2
    33   18   21 1
    34   21   35 1
    35   21   36 1
    36   22   23 1
    37   22   24 1
    38   22   25 1
@<TRIPOS>MOLECULE
CHEMBL320585
   42    44     0     0     0
SMALL
USER_CHARGES

@<TRIPOS>ATOM
      1 C1         -0.0807    0.9471    0.8385 C.3       1 <0>        -0.1545
      2 C2          0.0628   -0.5155    0.4129 C.3       1 <0>         0.1358
      3 C3          0.7943   -0.6020   -0.9062 C.2       1 <0>        -0.0537
      4 C4          1.9187   -1.3195   -0.6765 C.2       1 <0>         0.0032
      5 C5          1.9493   -1.7034    0.7366 C.2       1 <0>         0.5017
      6 O1          2.8301   -2.3548    1.2639 O.2       1 <0>        -0.4288
      7 O2          0.8585   -1.2278    1.3650 O.3       1 <0>        -0.2950
      8 O3          2.8626   -1.6320   -1.6033 O.3       1 <0>        -0.2044
      9 C6          4.1033   -1.1046   -1.4516 C.ar      1 <0>         0.3143
     10 C7          5.1230   -1.4856   -2.3149 C.ar      1 <0>        -0.1625
     11 C8          6.3840   -0.9403   -2.1501 C.ar      1 <0>        -0.0292
     12 C9          6.5817   -0.0276   -1.1215 C.ar      1 <0>        -0.1187
     13 C10         5.5213    0.3052   -0.3006 C.ar      1 <0>         0.1595
     14 N1          4.3289   -0.2286   -0.4866 N.ar      1 <0>        -0.5139
     15 Cl1         8.1440    0.6863   -0.8700 Cl        1 <0>        -0.0432
     16 C11         0.3680   -0.0204   -2.1887 C.ar      1 <0>         0.0106
     17 C12         0.3211    1.3682   -2.3498 C.ar      1 <0>        -0.1167
     18 C13        -0.0796    1.9055   -3.5548 C.ar      1 <0>        -0.0206
     19 C14        -0.4352    1.0747   -4.6031 C.ar      1 <0>        -0.6512
     20 C15        -0.3914   -0.3003   -4.4515 C.ar      1 <0>        -0.0181
     21 C16         0.0130   -0.8531   -3.2548 C.ar      1 <0>        -0.1091
     22 S1         -0.9468    1.7713   -6.1385 S.o2      1 <0>         2.4985
     23 O4         -1.7001    0.7447   -6.7693 O.2       1 <0>        -0.9337
     24 O5         -1.5558    3.0072   -5.7910 O.2       1 <0>        -0.9332
     25 C17         0.5922    2.0679   -7.0518 C.3       1 <0>        -0.6499
     26 C18        -1.3175   -1.1645    0.2924 C.3       1 <0>        -0.1533
     27 H1          0.9072    1.4000    0.9213 H         1 <0>         0.0742
     28 H2         -0.6663    1.4863    0.0939 H         1 <0>         0.0884
     29 H3         -0.5854    0.9969    1.8033 H         1 <0>         0.0885
     30 H4          4.9340   -2.1984   -3.1041 H         1 <0>         0.1568
     31 H5          7.1959   -1.2180   -2.8059 H         1 <0>         0.1588
     32 H6          5.6693    1.0138    0.5008 H         1 <0>         0.1729
     33 H7          0.5975    2.0177   -1.5325 H         1 <0>         0.1402
     34 H8         -0.1163    2.9775   -3.6808 H         1 <0>         0.1489
     35 H9         -0.6707   -0.9420   -5.2741 H         1 <0>         0.1517
     36 H10         0.0509   -1.9263   -3.1395 H         1 <0>         0.1397
     37 H11         1.0803    1.1159   -7.2603 H         1 <0>         0.1328
     38 H12         0.3659    2.5735   -7.9905 H         1 <0>         0.1356
     39 H13         1.2552    2.6927   -6.4532 H         1 <0>         0.1317
     40 H14        -1.9017   -0.6382   -0.4625 H         1 <0>         0.0877
     41 H15        -1.2039   -2.2087    0.0011 H         1 <0>         0.0719
     42 H16        -1.8302   -1.1088    1.2527 H         1 <0>         0.0866
@<TRIPOS>BOND
     1    1    2 1
     2    1   27 1
     3    1   28 1
     4    1   29 1
     5    2    7 1
     6    2    3 1
     7    2   26 1
     8    3    4 2
     9    3   16 1
    10    4    5 1
    11    4    8 1
    12    5    6 2
    13    5    7 1
    14    8    9 1
    15    9   14 ar
    16    9   10 ar
    17   10   11 ar
    18   10   30 1
    19   11   12 ar
    20   11   31 1
    21   12   13 ar
    22   12   15 1
    23   13   14 ar
    24   13   32 1
    25   16   21 ar
    26   16   17 ar
    27   17   18 ar
    28   17   33 1
    29   18   19 ar
    30   18   34 1
    31   19   20 ar
    32   19   22 1
    33   20   21 ar
    34   20   35 1
    35   21   36 1
    36   22   23 2
    37   22   24 2
    38   22   25 1
    39   25   37 1
    40   25   38 1
    41   25   39 1
    42   26   40 1
    43   26   41 1
    44   26   42 1
@<TRIPOS>MOLECULE
CHEMBL323267
   48    51     0     0     0
SMALL
USER_CHARGES

@<TRIPOS>ATOM
      1 C1         -0.2314    1.5146    0.0519 C.3       1 <0>        -0.1576
      2 C2         -0.0850   -0.0081    0.0240 C.3       1 <0>         0.1328
      3 C3          0.7103   -0.4301   -1.1892 C.2       1 <0>        -0.0511
      4 C4          1.8129   -1.0638   -0.7253 C.2       1 <0>        -0.0152
      5 C5          1.7678   -1.0715    0.7387 C.2       1 <0>         0.4882
      6 O1          2.6126   -1.5653    1.4604 O.2       1 <0>        -0.4232
      7 O2          0.6530   -0.4511    1.1667 O.3       1 <0>        -0.2933
      8 O3          2.7976   -1.6035   -1.4907 O.3       1 <0>        -0.2086
      9 C6          2.9488   -2.9526   -1.4766 C.ar      1 <0>         0.1220
     10 C7          2.0530   -3.7471   -0.7942 C.ar      1 <0>        -0.1741
     11 C8          2.1995   -5.1311   -0.7738 C.ar      1 <0>        -0.0810
     12 C9          3.2292   -5.7407   -1.4250 C.ar      1 <0>        -0.1092
     13 C10         4.1628   -4.9671   -2.1315 C.ar      1 <0>        -0.0827
     14 C11         4.0186   -3.5559   -2.1635 C.ar      1 <0>        -0.0299
     15 C12         4.9647   -2.8060   -2.8832 C.ar      1 <0>        -0.1379
     16 C13         5.9721   -3.4644   -3.5216 C.ar      1 <0>         0.0739
     17 N1          6.0810   -4.7852   -3.4808 N.ar      1 <0>        -0.4780
     18 C14         5.2421   -5.5470   -2.8187 C.ar      1 <0>         0.1448
     19 C15         0.3558   -0.1983   -2.5982 C.ar      1 <0>         0.0090
     20 C16         0.3385    1.1016   -3.1140 C.ar      1 <0>        -0.1145
     21 C17         0.0052    1.3106   -4.4355 C.ar      1 <0>        -0.0198
     22 C18        -0.3118    0.2381   -5.2510 C.ar      1 <0>        -0.6488
     23 C19        -0.2970   -1.0512   -4.7481 C.ar      1 <0>        -0.0173
     24 C20         0.0398   -1.2773   -3.4302 C.ar      1 <0>        -0.1085
     25 S1         -0.7370    0.5158   -6.9382 S.o2      1 <0>         2.4976
     26 O4         -1.4607   -0.6442   -7.3254 O.2       1 <0>        -0.9335
     27 O5         -1.3573    1.7942   -6.9502 O.2       1 <0>        -0.9326
     28 C21         0.8502    0.5833   -7.8139 C.3       1 <0>        -0.6496
     29 C22        -1.4656   -0.6673    0.0031 C.3       1 <0>        -0.1511
     30 H1          0.7568    1.9744    0.0665 H         1 <0>         0.0733
     31 H2         -0.7722    1.8439   -0.8353 H         1 <0>         0.0904
     32 H3         -0.7830    1.8103    0.9443 H         1 <0>         0.0887
     33 H4          1.2275   -3.2902   -0.2685 H         1 <0>         0.1219
     34 H5          1.4845   -5.7323   -0.2320 H         1 <0>         0.1350
     35 H6          3.3269   -6.8159   -1.3973 H         1 <0>         0.1410
     36 H7          4.8942   -1.7293   -2.9295 H         1 <0>         0.1415
     37 H8          6.7024   -2.8944   -4.0768 H         1 <0>         0.1572
     38 H9          5.3731   -6.6190   -2.8140 H         1 <0>         0.1700
     39 H10         0.5853    1.9395   -2.4788 H         1 <0>         0.1415
     40 H11        -0.0090    2.3138   -4.8353 H         1 <0>         0.1501
     41 H12        -0.5456   -1.8829   -5.3907 H         1 <0>         0.1515
     42 H13         0.0552   -2.2843   -3.0404 H         1 <0>         0.1352
     43 H14         1.3389   -0.3893   -7.7558 H         1 <0>         0.1331
     44 H15         0.6780    0.8415   -8.8588 H         1 <0>         0.1361
     45 H16         1.4875    1.3382   -7.3534 H         1 <0>         0.1325
     46 H17        -2.0047   -0.3531   -0.8906 H         1 <0>         0.0894
     47 H18        -1.3507   -1.7512   -0.0041 H         1 <0>         0.0713
     48 H19        -2.0250   -0.3671    0.8892 H         1 <0>         0.0894
@<TRIPOS>BOND
     1    1    2 1
     2    1   30 1
     3    1   31 1
     4    1   32 1
     5    2    7 1
     6    2    3 1
     7    2   29 1
     8    3    4 2
     9    3   19 1
    10    4    5 1
    11    4    8 1
    12    5    6 2
    13    5    7 1
    14    8    9 1
    15    9   14 ar
    16    9   10 ar
    17   10   11 ar
    18   10   33 1
    19   11   12 ar
    20   11   34 1
    21   12   13 ar
    22   12   35 1
    23   13   18 ar
    24   13   14 ar
    25   14   15 ar
    26   15   16 ar
    27   15   36 1
    28   16   17 ar
    29   16   37 1
    30   17   18 ar
    31   18   38 1
    32   19   24 ar
    33   19   20 ar
    34   20   21 ar
    35   20   39 1
    36   21   22 ar
    37   21   40 1
    38   22   23 ar
    39   22   25 1
    40   23   24 ar
    41   23   41 1
    42   24   42 1
    43   25   26 2
    44   25   27 2
    45   25   28 1
    46   28   43 1
    47   28   44 1
    48   28   45 1
    49   29   46 1
    50   29   47 1
    51   29   48 1
@<TRIPOS>MOLECULE
CHEMBL122377
   45    46     0     0     0
SMALL
USER_CHARGES

@<TRIPOS>ATOM
      1 C1         -0.0187    1.5258    0.0104 C.3       1 <0>        -0.1508
      2 C2          0.0021   -0.0041    0.0020 C.3       1 <0>        -0.0205
      3 C3          0.7421   -0.5109    1.2415 C.3       1 <0>        -0.1433
      4 C4         -1.4333   -0.5336    0.0129 C.3       1 <0>        -0.1435
      5 C5          0.7074   -0.4901   -1.2379 C.ar      1 <0>        -0.0985
      6 C6          1.2147    0.4179   -2.1412 C.ar      1 <0>        -0.0614
      7 C7          1.8684   -0.0336   -3.2902 C.ar      1 <0>        -0.0599
      8 C8          2.0049   -1.4050   -3.5182 C.ar      1 <0>        -0.0439
      9 C9          1.4948   -2.3065   -2.6100 C.ar      1 <0>        -0.1005
     10 C10         0.8503   -1.8533   -1.4655 C.ar      1 <0>         0.1596
     11 O1          0.3542   -2.7449   -0.5698 O.3       1 <0>        -0.4818
     12 C11         1.6410   -3.7862   -2.8552 C.3       1 <0>        -0.0200
     13 C12         2.3876   -4.0137   -4.1711 C.3       1 <0>        -0.1500
     14 C13         2.4289   -4.4182   -1.7059 C.3       1 <0>        -0.1434
     15 C14         0.2550   -4.4290   -2.9374 C.3       1 <0>        -0.1433
     16 C15         2.4132    0.9361   -4.2614 C.2       1 <0>         0.3499
     17 N1          3.0417    0.6416   -5.3782 N.2       1 <0>        -0.5301
     18 C16         3.3960    1.7620   -6.0110 C.2       1 <0>         0.2395
     19 N2          3.0020    2.7894   -5.3130 N.2       1 <0>        -0.3194
     20 O2          2.3487    2.2756   -4.1620 O.3       1 <0>        -0.0928
     21 C17         4.1339    1.8284   -7.3233 C.3       1 <0>         0.0443
     22 Cl1         2.9466    1.8528   -8.6799 Cl        1 <0>        -0.1334
     23 H1          1.0039    1.9031    0.0027 H         1 <0>         0.0602
     24 H2         -0.5459    1.8868   -0.8726 H         1 <0>         0.0596
     25 H3         -0.5289    1.8773    0.9072 H         1 <0>         0.0637
     26 H4          0.2319   -0.1594    2.1383 H         1 <0>         0.0575
     27 H5          0.7568   -1.6008    1.2356 H         1 <0>         0.0758
     28 H6          1.7647   -0.1336    1.2338 H         1 <0>         0.0527
     29 H7         -1.9605   -0.1726   -0.8702 H         1 <0>         0.0561
     30 H8         -1.4185   -1.6235    0.0069 H         1 <0>         0.0585
     31 H9         -1.9435   -0.1821    0.9097 H         1 <0>         0.0641
     32 H10         1.1069    1.4774   -1.9616 H         1 <0>         0.1440
     33 H11         2.5093   -1.7581   -4.4055 H         1 <0>         0.1508
     34 H12        -0.5588   -3.0113   -0.7444 H         1 <0>         0.3898
     35 H13         3.3751   -3.5558   -4.1125 H         1 <0>         0.0607
     36 H14         2.4934   -5.0840   -4.3485 H         1 <0>         0.0629
     37 H15         1.8264   -3.5635   -4.9899 H         1 <0>         0.0604
     38 H16         1.8970   -4.2561   -0.7684 H         1 <0>         0.0756
     39 H17         2.5347   -5.4885   -1.8833 H         1 <0>         0.0575
     40 H18         3.4163   -3.9603   -1.6473 H         1 <0>         0.0526
     41 H19        -0.3063   -3.9787   -3.7562 H         1 <0>         0.0563
     42 H20         0.3608   -5.4992   -3.1148 H         1 <0>         0.0641
     43 H21        -0.2769   -4.2668   -1.9999 H         1 <0>         0.0578
     44 H22         4.7395    2.7341   -7.3542 H         1 <0>         0.1284
     45 H23         4.7798    0.9559   -7.4214 H         1 <0>         0.1341
@<TRIPOS>BOND
     1    1    2 1
     2    1   23 1
     3    1   24 1
     4    1   25 1
     5    2    3 1
     6    2    4 1
     7    2    5 1
     8    3   26 1
     9    3   27 1
    10    3   28 1
    11    4   29 1
    12    4   30 1
    13    4   31 1
    14    5   10 ar
    15    5    6 ar
    16    6    7 ar
    17    6   32 1
    18    7    8 ar
    19    7   16 1
    20    8    9 ar
    21    8   33 1
    22    9   10 ar
    23    9   12 1
    24   10   11 1
    25   11   34 1
    26   12   13 1
    27   12   14 1
    28   12   15 1
    29   13   35 1
    30   13   36 1
    31   13   37 1
    32   14   38 1
    33   14   39 1
    34   14   40 1
    35   15   41 1
    36   15   42 1
    37   15   43 1
    38   16   20 1
    39   16   17 2
    40   17   18 1
    41   18   19 2
    42   18   21 1
    43   19   20 1
    44   21   22 1
    45   21   44 1
    46   21   45 1
@<TRIPOS>MOLECULE
CHEMBL564729
   49    51     0     0     0
SMALL
USER_CHARGES

@<TRIPOS>ATOM
      1 C1         -0.0225    1.8097    0.0120 C.3       1 <0>        -0.6492
      2 S1          0.0021   -0.0041    0.0020 S.o2      1 <0>         2.4982
      3 O1          0.8352   -0.4880    1.0465 O.2       1 <0>        -0.9329
      4 O2         -1.3147   -0.5105   -0.1678 O.2       1 <0>        -0.9324
      5 C2          0.8454   -0.4373   -1.4831 C.ar      1 <0>        -0.6400
      6 C3          0.1315   -0.6121   -2.6550 C.ar      1 <0>        -0.0286
      7 C4          0.7867   -0.9519   -3.8211 C.ar      1 <0>        -0.0847
      8 C5          2.1705   -1.1185   -3.8166 C.ar      1 <0>        -0.0141
      9 C6          2.8847   -0.9407   -2.6330 C.ar      1 <0>        -0.1056
     10 C7          2.2196   -0.5958   -1.4740 C.ar      1 <0>        -0.0270
     11 C8          2.8802   -1.4841   -5.0665 C.ar      1 <0>         0.2640
     12 C9          4.2667   -1.6589   -5.0701 C.ar      1 <0>        -0.2106
     13 C10         4.8839   -2.0002   -6.2600 C.ar      1 <0>         0.1371
     14 N1          4.1486   -2.1498   -7.3509 N.ar      1 <0>        -0.5320
     15 C11         2.8369   -1.9778   -7.3175 C.ar      1 <0>         0.5251
     16 N2          2.2059   -1.6564   -6.2012 N.ar      1 <0>        -0.4938
     17 O3          2.1214   -2.1400   -8.4562 O.3       1 <0>        -0.2738
     18 C12         2.8487   -2.4920   -9.6348 C.3       1 <0>         0.0742
     19 C13         1.8790   -2.6305  -10.8102 C.3       1 <0>        -0.0858
     20 C14         0.9311   -3.8038  -10.5539 C.3       1 <0>        -0.1158
     21 C15        -0.0386   -3.9422  -11.7292 C.3       1 <0>        -0.1198
     22 C16         0.7512   -4.1960  -13.0148 C.3       1 <0>        -0.1226
     23 C17         1.6991   -3.0227  -13.2711 C.3       1 <0>        -0.1178
     24 C18         2.6688   -2.8843  -12.0958 C.3       1 <0>        -0.1114
     25 C19         6.3767   -2.1990   -6.3143 C.3       1 <0>         0.5262
     26 F1          6.6788   -3.5387   -6.0475 F         1 <0>        -0.1613
     27 F2          6.8464   -1.8598   -7.5877 F         1 <0>        -0.1568
     28 F3          6.9909   -1.3831   -5.3581 F         1 <0>        -0.1622
     29 H1          1.0001    2.1870    0.0043 H         1 <0>         0.1328
     30 H2         -0.5497    2.1708   -0.8711 H         1 <0>         0.1329
     31 H3         -0.5327    2.1613    0.9088 H         1 <0>         0.1356
     32 H4         -0.9407   -0.4828   -2.6573 H         1 <0>         0.1516
     33 H5          0.2282   -1.0889   -4.7353 H         1 <0>         0.1509
     34 H6          3.9571   -1.0684   -2.6238 H         1 <0>         0.1427
     35 H7          2.7724   -0.4538   -0.5572 H         1 <0>         0.1527
     36 H8          4.8426   -1.5303   -4.1656 H         1 <0>         0.1701
     37 H9          3.5797   -1.7145   -9.8565 H         1 <0>         0.0758
     38 H10         3.3632   -3.4395   -9.4748 H         1 <0>         0.0753
     39 H11         1.3008   -1.7123  -10.9143 H         1 <0>         0.0844
     40 H12         1.5092   -4.7219  -10.4498 H         1 <0>         0.0627
     41 H13         0.3684   -3.6229   -9.6380 H         1 <0>         0.0692
     42 H14        -0.7139   -4.7781  -11.5466 H         1 <0>         0.0638
     43 H15        -0.6168   -3.0240  -11.8333 H         1 <0>         0.0631
     44 H16         1.3293   -5.1142  -12.9107 H         1 <0>         0.0622
     45 H17         0.0603   -4.2947  -13.8521 H         1 <0>         0.0630
     46 H18         2.2617   -3.2036  -14.1870 H         1 <0>         0.0662
     47 H19         1.1209   -2.1046  -13.3752 H         1 <0>         0.0639
     48 H20         3.3441   -2.0484  -12.2784 H         1 <0>         0.0671
     49 H21         3.2469   -3.8025  -11.9917 H         1 <0>         0.0676
@<TRIPOS>BOND
     1    1    2 1
     2    1   29 1
     3    1   30 1
     4    1   31 1
     5    2    3 2
     6    2    4 2
     7    2    5 1
     8    5   10 ar
     9    5    6 ar
    10    6    7 ar
    11    6   32 1
    12    7    8 ar
    13    7   33 1
    14    8    9 ar
    15    8   11 1
    16    9   10 ar
    17    9   34 1
    18   10   35 1
    19   11   16 ar
    20   11   12 ar
    21   12   13 ar
    22   12   36 1
    23   13   14 ar
    24   13   25 1
    25   14   15 ar
    26   15   16 ar
    27   15   17 1
    28   17   18 1
    29   18   19 1
    30   18   37 1
    31   18   38 1
    32   19   24 1
    33   19   20 1
    34   19   39 1
    35   20   21 1
    36   20   40 1
    37   20   41 1
    38   21   22 1
    39   21   42 1
    40   21   43 1
    41   22   23 1
    42   22   44 1
    43   22   45 1
    44   23   24 1
    45   23   46 1
    46   23   47 1
    47   24   48 1
    48   24   49 1
    49   25   26 1
    50   25   27 1
    51   25   28 1
@<TRIPOS>MOLECULE
CHEMBL605820
   54    56     0     0     0
SMALL
USER_CHARGES

@<TRIPOS>ATOM
      1 C1         -0.2531    1.4873   -0.1060 C.3       1 <0>        -0.0934
      2 C2         -0.1005   -0.0108   -0.0488 C.2       1 <0>         0.0737
      3 C3          0.0584   -0.8292   -1.1115 C.2       1 <0>        -0.1609
      4 C4          0.1629   -2.1438   -0.6274 C.2       1 <0>        -0.1322
      5 C5          0.0634   -2.0867    0.7303 C.2       1 <0>         0.0353
      6 N1         -0.0936   -0.7694    1.0862 N.pl3     1 <0>        -0.3919
      7 C6         -0.2277   -0.2857    2.3945 C.ar      1 <0>         0.1094
      8 C7          0.8454   -0.3496    3.2732 C.ar      1 <0>        -0.1036
      9 C8          0.7101    0.1280    4.5621 C.ar      1 <0>        -0.1046
     10 C9         -0.4926    0.6689    4.9779 C.ar      1 <0>        -0.1062
     11 C10        -1.5632    0.7340    4.1050 C.ar      1 <0>        -0.1070
     12 C11        -1.4322    0.2637    2.8130 C.ar      1 <0>        -0.1132
     13 C12         0.1196   -3.2377    1.6562 C.ar      1 <0>         0.0481
     14 C13        -0.3924   -3.1225    2.9496 C.ar      1 <0>        -0.1451
     15 C14        -0.3372   -4.2006    3.8086 C.ar      1 <0>        -0.0154
     16 C15         0.2240   -5.3941    3.3905 C.ar      1 <0>        -0.6664
     17 C16         0.7333   -5.5150    2.1097 C.ar      1 <0>        -0.0160
     18 C17         0.6796   -4.4462    1.2391 C.ar      1 <0>        -0.1263
     19 S1          0.2909   -6.7660    4.4941 S.o2      1 <0>         2.4999
     20 O1          1.3943   -7.5400    4.0440 O.2       1 <0>        -0.9371
     21 O2          0.2933   -6.1875    5.7920 O.2       1 <0>        -0.9380
     22 C18        -1.2591   -7.6657    4.2140 C.3       1 <0>        -0.6507
     23 C19         0.1130   -0.4078   -2.5573 C.3       1 <0>        -0.0353
     24 C20         1.5208   -0.0012   -2.9092 C.2       1 <0>         0.4574
     25 O3          2.3906   -0.0488   -2.0719 O.2       1 <0>        -0.4949
     26 O4          1.8085    0.4138   -4.1529 O.3       1 <0>        -0.3511
     27 C21         3.1635    0.7837   -4.4162 C.3       1 <0>         0.0786
     28 C22         3.9431   -0.4426   -4.8950 C.3       1 <0>        -0.1716
     29 C23         3.1960    1.8637   -5.4996 C.3       1 <0>        -0.1500
     30 H1          0.7302    1.9549   -0.0549 H         1 <0>         0.0769
     31 H2         -0.7405    1.7675   -1.0398 H         1 <0>         0.0837
     32 H3         -0.8593    1.8232    0.7353 H         1 <0>         0.0692
     33 H4          0.2969   -3.0354   -1.2219 H         1 <0>         0.1455
     34 H5          1.7848   -0.7727    2.9493 H         1 <0>         0.1290
     35 H6          1.5445    0.0785    5.2461 H         1 <0>         0.1346
     36 H7         -0.5962    1.0411    5.9864 H         1 <0>         0.1327
     37 H8         -2.5014    1.1570    4.4326 H         1 <0>         0.1346
     38 H9         -2.2673    0.3188    2.1304 H         1 <0>         0.1308
     39 H10        -0.8304   -2.1912    3.2773 H         1 <0>         0.1332
     40 H11        -0.7327   -4.1126    4.8097 H         1 <0>         0.1423
     41 H12         1.1704   -6.4493    1.7897 H         1 <0>         0.1461
     42 H13         1.0735   -4.5433    0.2381 H         1 <0>         0.1379
     43 H14        -1.3097   -7.9872    3.1737 H         1 <0>         0.1320
     44 H15        -1.2957   -8.5384    4.8662 H         1 <0>         0.1333
     45 H16        -2.1034   -7.0123    4.4338 H         1 <0>         0.1312
     46 H17        -0.1937   -1.2404   -3.1903 H         1 <0>         0.1140
     47 H18        -0.5590    0.4357   -2.7155 H         1 <0>         0.1099
     48 H19         3.6184    1.1702   -3.5042 H         1 <0>         0.0818
     49 H20         3.4882   -0.8290   -5.8070 H         1 <0>         0.0663
     50 H21         4.9766   -0.1604   -5.0958 H         1 <0>         0.0738
     51 H22         3.9200   -1.2119   -4.1232 H         1 <0>         0.0605
     52 H23         2.6405    2.7373   -5.1585 H         1 <0>         0.0638
     53 H24         4.2295    2.1458   -5.7004 H         1 <0>         0.0775
     54 H25         2.7411    1.4772   -6.4116 H         1 <0>         0.0681
@<TRIPOS>BOND
     1    1    2 1
     2    1   30 1
     3    1   31 1
     4    1   32 1
     5    2    6 1
     6    2    3 2
     7    3    4 1
     8    3   23 1
     9    4    5 2
    10    4   33 1
    11    5    6 1
    12    5   13 1
    13    6    7 1
    14    7   12 ar
    15    7    8 ar
    16    8    9 ar
    17    8   34 1
    18    9   10 ar
    19    9   35 1
    20   10   11 ar
    21   10   36 1
    22   11   12 ar
    23   11   37 1
    24   12   38 1
    25   13   18 ar
    26   13   14 ar
    27   14   15 ar
    28   14   39 1
    29   15   16 ar
    30   15   40 1
    31   16   17 ar
    32   16   19 1
    33   17   18 ar
    34   17   41 1
    35   18   42 1
    36   19   20 2
    37   19   21 2
    38   19   22 1
    39   22   43 1
    40   22   44 1
    41   22   45 1
    42   23   24 1
    43   23   46 1
    44   23   47 1
    45   24   25 2
    46   24   26 1
    47   26   27 1
    48   27   28 1
    49   27   29 1
    50   27   48 1
    51   28   49 1
    52   28   50 1
    53   28   51 1
    54   29   52 1
    55   29   53 1
    56   29   54 1
@<TRIPOS>MOLECULE
CHEMBL133778
   65    69     0     0     0
SMALL
USER_CHARGES

@<TRIPOS>ATOM
      1 C1          0.7560    2.6613   -0.2352 C.ar      1 <0>        -0.1183
      2 C2          1.9667    3.2993   -0.0402 C.ar      1 <0>        -0.1175
      3 C3          3.1408    2.5697   -0.0427 C.ar      1 <0>        -0.1214
      4 C4          3.1042    1.2019   -0.2396 C.ar      1 <0>        -0.0917
      5 C5          1.8934    0.5637   -0.4336 C.ar      1 <0>        -0.1150
      6 C6          0.7194    1.2936   -0.4326 C.ar      1 <0>        -0.1139
      7 C7          4.3842    0.4066   -0.2432 C.3       1 <0>        -0.0743
      8 C8          4.6961   -0.0642    1.1788 C.3       1 <0>        -0.0954
      9 C9          4.9862    1.1487    2.0677 C.3       1 <0>        -0.1428
     10 C10         5.3748    0.6672    3.4672 C.3       1 <0>        -0.0056
     11 N1          6.5724   -0.1773    3.3830 N.4       1 <0>        -0.3787
     12 C11         6.2804   -1.3783    2.5913 C.3       1 <0>        -0.0149
     13 C12         5.9267   -0.9755    1.1581 C.3       1 <0>        -0.1391
     14 C13         6.9868   -0.5730    4.7357 C.3       1 <0>         0.0106
     15 C14         8.3037   -1.3482    4.6594 C.3       1 <0>        -0.1400
     16 S1          8.8153   -1.8369    6.3297 S.3       1 <0>        -0.1907
     17 C15        10.3093   -2.8293    6.0583 C.3       1 <0>         0.0402
     18 C16        11.3532   -1.8969    5.5790 C.ar      1 <0>        -0.0613
     19 C17        11.6413   -0.8781    6.5109 C.ar      1 <0>        -0.1032
     20 C18        12.6258    0.0499    6.2848 C.ar      1 <0>        -0.1150
     21 C19        13.3620   -0.0225    5.1158 C.ar      1 <0>        -0.1099
     22 C20        13.0620   -0.9999    4.2006 C.ar      1 <0>        -0.1233
     23 C21        12.0225   -1.9251    4.4190 C.ar      1 <0>        -0.1056
     24 C22        11.7901   -2.7794    3.1930 C.3       1 <0>         0.1136
     25 O1         11.5035   -4.1194    3.4612 O.3       1 <0>        -0.3129
     26 C23        10.4017   -4.5082    4.1638 C.ar      1 <0>         0.1260
     27 C24         9.8843   -4.0361    5.3158 C.ar      1 <0>        -0.1573
     28 C25         8.8106   -4.7085    5.9163 C.ar      1 <0>        -0.0514
     29 C26         8.2197   -5.8124    5.3126 C.ar      1 <0>        -0.1435
     30 C27         8.7085   -6.2494    4.0761 C.ar      1 <0>        -0.0480
     31 C28         9.7797   -5.6069    3.5213 C.ar      1 <0>        -0.1670
     32 C29         7.0987   -6.5107    5.9634 C.2       1 <0>         0.5190
     33 O2          6.6797   -6.1203    7.0444 O.co2     1 <0>        -0.6818
     34 O3          6.5861   -7.4812    5.4230 O.co2     1 <0>        -0.6813
     35 H1         -0.1617    3.2307   -0.2288 H         1 <0>         0.1238
     36 H2          1.9953    4.3679    0.1136 H         1 <0>         0.1230
     37 H3          4.0867    3.0683    0.1089 H         1 <0>         0.1192
     38 H4          1.8648   -0.5048   -0.5878 H         1 <0>         0.1228
     39 H5         -0.2265    0.7950   -0.5846 H         1 <0>         0.1247
     40 H6          4.2723   -0.4590   -0.8961 H         1 <0>         0.0833
     41 H7          5.1997    1.0323   -0.6058 H         1 <0>         0.0774
     42 H8          3.8426   -0.6132    1.5764 H         1 <0>         0.0927
     43 H9          5.8065    1.7253    1.6403 H         1 <0>         0.0868
     44 H10         4.0957    1.7740    2.1321 H         1 <0>         0.1141
     45 H11         5.5818    1.5282    4.1027 H         1 <0>         0.1299
     46 H12         4.5537    0.0909    3.8937 H         1 <0>         0.1306
     47 H13         7.1561   -2.0274    2.5802 H         1 <0>         0.1314
     48 H14         5.4401   -1.9109    3.0365 H         1 <0>         0.1344
     49 H15         5.7085   -1.8685    0.5724 H         1 <0>         0.1141
     50 H16         6.7666   -0.4430    0.7119 H         1 <0>         0.0871
     51 H17         7.1245    0.3177    5.3487 H         1 <0>         0.1378
     52 H18         6.2183   -1.2051    5.1807 H         1 <0>         0.1423
     53 H19         8.1659   -2.2389    4.0464 H         1 <0>         0.1045
     54 H20         9.0721   -0.7161    4.2143 H         1 <0>         0.0966
     55 H21        10.6255   -3.1674    7.0451 H         1 <0>         0.1331
     56 H22        11.0718   -0.8274    7.4271 H         1 <0>         0.1304
     57 H23        12.8232    0.8263    7.0091 H         1 <0>         0.1290
     58 H24        14.1603    0.6797    4.9263 H         1 <0>         0.1280
     59 H25        13.6381   -1.0616    3.2892 H         1 <0>         0.1249
     60 H26        10.9588   -2.3552    2.6298 H         1 <0>         0.0512
     61 H27        12.6823   -2.7360    2.5685 H         1 <0>         0.1146
     62 H28         8.4346   -4.3615    6.8674 H         1 <0>         0.1414
     63 H29         8.2460   -7.0826    3.5677 H         1 <0>         0.1371
     64 H30        10.1611   -5.9449    2.5691 H         1 <0>         0.1263
     65 H31         7.3180    0.3412    2.9433 H         1 <0>         0.4188
@<TRIPOS>BOND
     1    1    6 ar
     2    1    2 ar
     3    1   35 1
     4    2    3 ar
     5    2   36 1
     6    3    4 ar
     7    3   37 1
     8    4    5 ar
     9    4    7 1
    10    5    6 ar
    11    5   38 1
    12    6   39 1
    13    7    8 1
    14    7   40 1
    15    7   41 1
    16    8   13 1
    17    8    9 1
    18    8   42 1
    19    9   10 1
    20    9   43 1
    21    9   44 1
    22   10   11 1
    23   10   45 1
    24   10   46 1
    25   11   12 1
    26   11   14 1
    27   11   65 1
    28   12   13 1
    29   12   47 1
    30   12   48 1
    31   13   49 1
    32   13   50 1
    33   14   15 1
    34   14   51 1
    35   14   52 1
    36   15   16 1
    37   15   53 1
    38   15   54 1
    39   16   17 1
    40   17   27 1
    41   17   18 1
    42   17   55 1
    43   18   23 ar
    44   18   19 ar
    45   19   20 ar
    46   19   56 1
    47   20   21 ar
    48   20   57 1
    49   21   22 ar
    50   21   58 1
    51   22   23 ar
    52   22   59 1
    53   23   24 1
    54   24   25 1
    55   24   60 1
    56   24   61 1
    57   25   26 1
    58   26   31 ar
    59   26   27 ar
    60   27   28 ar
    61   28   29 ar
    62   28   62 1
    63   29   30 ar
    64   29   32 1
    65   30   31 ar
    66   30   63 1
    67   31   64 1
    68   32   33 2
    69   32   34 1
@<TRIPOS>MOLECULE
CHEMBL133778__1
   65    69     0     0     0
SMALL
USER_CHARGES

@<TRIPOS>ATOM
      1 C1         -0.0232    1.3669    0.0130 C.ar      1 <0>        -0.1181
      2 C2          1.1641    2.0748    0.0037 C.ar      1 <0>        -0.1161
      3 C3          2.3708    1.4005   -0.0116 C.ar      1 <0>        -0.1202
      4 C4          2.3901    0.0183   -0.0171 C.ar      1 <0>        -0.0918
      5 C5          1.2028   -0.6896   -0.0069 C.ar      1 <0>        -0.1165
      6 C6         -0.0038   -0.0153    0.0070 C.ar      1 <0>        -0.1152
      7 C7          3.7055   -0.7168   -0.0348 C.3       1 <0>        -0.0750
      8 C8          4.1670   -0.9711    1.4017 C.3       1 <0>        -0.0931
      9 C9          4.4693    0.3649    2.0865 C.3       1 <0>        -0.1453
     10 C10         5.0056    0.1000    3.4949 C.3       1 <0>        -0.0049
     11 N1          6.2346   -0.6983    3.4123 N.4       1 <0>        -0.3805
     12 C11         5.9383   -2.0091    2.8219 C.3       1 <0>        -0.0107
     13 C12         5.4379   -1.8254    1.3876 C.3       1 <0>        -0.1409
     14 C13         6.7877   -0.8839    4.7605 C.3       1 <0>         0.0116
     15 C14         8.1322   -1.6078    4.6649 C.3       1 <0>        -0.1385
     16 S1          8.8153   -1.8369    6.3297 S.3       1 <0>        -0.1915
     17 C15        10.3093   -2.8293    6.0583 C.3       1 <0>         0.0400
     18 C16         9.8527   -4.1688    5.6267 C.ar      1 <0>        -0.0653
     19 C17         8.8990   -4.7266    6.5034 C.ar      1 <0>        -0.1015
     20 C18         8.3023   -5.9347    6.2471 C.ar      1 <0>        -0.1190
     21 C19         8.6380   -6.6187    5.0925 C.ar      1 <0>        -0.1102
     22 C20         9.5845   -6.0846    4.2548 C.ar      1 <0>        -0.1258
     23 C21        10.2246   -4.8635    4.5434 C.ar      1 <0>        -0.1008
     24 C22        11.3369   -4.5875    3.5567 C.3       1 <0>         0.1064
     25 O1         11.4557   -3.2512    3.1698 O.3       1 <0>        -0.3183
     26 C23        11.7462   -2.2541    4.0531 C.ar      1 <0>         0.1212
     27 C24        11.2377   -1.9870    5.2729 C.ar      1 <0>        -0.1531
     28 C25        11.6059   -0.8045    5.9299 C.ar      1 <0>        -0.0535
     29 C26        12.5401    0.0668    5.3817 C.ar      1 <0>        -0.1395
     30 C27        13.1261   -0.2560    4.1524 C.ar      1 <0>        -0.0478
     31 C28        12.7299   -1.3935    3.5066 C.ar      1 <0>        -0.1636
     32 C29        12.9065    1.3088    6.0824 C.2       1 <0>         0.5186
     33 O2         12.3877    1.5811    7.1563 O.co2     1 <0>        -0.6820
     34 O3         13.7299    2.0684    5.5908 O.co2     1 <0>        -0.6803
     35 H1         -0.9658    1.8937    0.0295 H         1 <0>         0.1239
     36 H2          1.1490    3.1547    0.0079 H         1 <0>         0.1242
     37 H3          3.2984    1.9536   -0.0196 H         1 <0>         0.1209
     38 H4          1.2179   -1.7695   -0.0115 H         1 <0>         0.1211
     39 H5         -0.9314   -0.5684    0.0146 H         1 <0>         0.1239
     40 H6          3.5827   -1.6690   -0.5509 H         1 <0>         0.0822
     41 H7          4.4510   -0.1152   -0.5548 H         1 <0>         0.0791
     42 H8          3.3827   -1.4935    1.9494 H         1 <0>         0.0899
     43 H9          5.2165    0.9091    1.5089 H         1 <0>         0.0896
     44 H10         3.5559    0.9562    2.1501 H         1 <0>         0.1144
     45 H11         5.2217    1.0491    3.9854 H         1 <0>         0.1323
     46 H12         4.2576   -0.4440    4.0717 H         1 <0>         0.1277
     47 H13         6.8430   -2.6171    2.8156 H         1 <0>         0.1303
     48 H14         5.1704   -2.5081    3.4131 H         1 <0>         0.1282
     49 H15         5.2168   -2.7996    0.9516 H         1 <0>         0.1114
     50 H16         6.2052   -1.3266    0.7955 H         1 <0>         0.0901
     51 H17         6.9313    0.0886    5.2313 H         1 <0>         0.1412
     52 H18         6.0967   -1.4784    5.3581 H         1 <0>         0.1360
     53 H19         7.9886   -2.5803    4.1941 H         1 <0>         0.0997
     54 H20         8.8233   -1.0133    4.0673 H         1 <0>         0.1057
     55 H21        10.7633   -2.9587    7.0408 H         1 <0>         0.1315
     56 H22         8.6312   -4.1879    7.4003 H         1 <0>         0.1323
     57 H23         7.5807   -6.3463    6.9372 H         1 <0>         0.1281
     58 H24         8.1628   -7.5588    4.8543 H         1 <0>         0.1269
     59 H25         9.8452   -6.6142    3.3503 H         1 <0>         0.1245
     60 H26        12.2800   -4.9020    4.0037 H         1 <0>         0.0651
     61 H27        11.1644   -5.1905    2.6653 H         1 <0>         0.1139
     62 H28        11.1543   -0.5654    6.8814 H         1 <0>         0.1391
     63 H29        13.8804    0.3848    3.7201 H         1 <0>         0.1377
     64 H30        13.1779   -1.6425    2.5560 H         1 <0>         0.1264
     65 H31         6.9094   -0.2165    2.8375 H         1 <0>         0.4242
@<TRIPOS>BOND
     1    1    6 ar
     2    1    2 ar
     3    1   35 1
     4    2    3 ar
     5    2   36 1
     6    3    4 ar
     7    3   37 1
     8    4    5 ar
     9    4    7 1
    10    5    6 ar
    11    5   38 1
    12    6   39 1
    13    7    8 1
    14    7   40 1
    15    7   41 1
    16    8   13 1
    17    8    9 1
    18    8   42 1
    19    9   10 1
    20    9   43 1
    21    9   44 1
    22   10   11 1
    23   10   45 1
    24   10   46 1
    25   11   12 1
    26   11   14 1
    27   11   65 1
    28   12   13 1
    29   12   47 1
    30   12   48 1
    31   13   49 1
    32   13   50 1
    33   14   15 1
    34   14   51 1
    35   14   52 1
    36   15   16 1
    37   15   53 1
    38   15   54 1
    39   16   17 1
    40   17   27 1
    41   17   18 1
    42   17   55 1
    43   18   23 ar
    44   18   19 ar
    45   19   20 ar
    46   19   56 1
    47   20   21 ar
    48   20   57 1
    49   21   22 ar
    50   21   58 1
    51   22   23 ar
    52   22   59 1
    53   23   24 1
    54   24   25 1
    55   24   60 1
    56   24   61 1
    57   25   26 1
    58   26   31 ar
    59   26   27 ar
    60   27   28 ar
    61   28   29 ar
    62   28   62 1
    63   29   30 ar
    64   29   32 1
    65   30   31 ar
    66   30   63 1
    67   31   64 1
    68   32   33 2
    69   32   34 1
@<TRIPOS>MOLECULE
CHEMBL140533
   42    46     0     0     0
SMALL
USER_CHARGES

@<TRIPOS>ATOM
      1 C1         -0.0167    1.3795    0.0096 C.ar      1 <0>        -0.1167
      2 C2          1.1683    2.0938    0.0021 C.ar      1 <0>        -0.1169
      3 C3          2.3774    1.4298   -0.0130 C.ar      1 <0>        -0.1123
      4 C4          2.4036    0.0339   -0.0208 C.ar      1 <0>        -0.0225
      5 C5          1.2042   -0.6806   -0.0131 C.ar      1 <0>        -0.0964
      6 C6          0.0021   -0.0041    0.0020 C.ar      1 <0>        -0.1162
      7 C7          3.6950   -0.6840   -0.0375 C.2       1 <0>         0.0960
      8 C8          4.0032   -1.7194   -0.8089 C.2       1 <0>        -0.1481
      9 C9          5.3462   -2.1060   -0.5077 C.2       1 <0>        -0.1481
     10 C10         5.8027   -1.2907    0.4351 C.2       1 <0>         0.0959
     11 N1          4.7980   -0.3924    0.7433 N.pl3     1 <0>        -0.5750
     12 H1          4.8565    0.3209    1.3981 H         1 <0>         0.4143
     13 C11         7.1483   -1.3330    1.0443 C.ar      1 <0>        -0.0224
     14 C12         7.7030   -2.5532    1.4353 C.ar      1 <0>        -0.0965
     15 C13         8.9596   -2.5855    2.0034 C.ar      1 <0>        -0.1162
     16 C14         9.6700   -1.4122    2.1861 C.ar      1 <0>        -0.1167
     17 C15         9.1262   -0.1996    1.8009 C.ar      1 <0>        -0.1169
     18 C16         7.8729   -0.1536    1.2263 C.ar      1 <0>        -0.1124
     19 C17         5.8406   -3.2877   -1.3196 C.3       1 <0>         0.0143
     20 C18         5.6935   -2.8630   -2.7979 C.3       1 <0>        -0.1063
     21 C19         4.2592   -2.4501   -3.1195 C.3       1 <0>        -0.1072
     22 C20         3.3457   -2.5698   -1.8787 C.3       1 <0>         0.0143
     23 C21         3.5284   -4.0144   -1.3982 C.2       1 <0>        -0.1544
     24 C22         4.7768   -4.3736   -1.1190 C.2       1 <0>        -0.1556
     25 H2         -0.9605    1.9042    0.0260 H         1 <0>         0.1239
     26 H3          1.1466    3.1735    0.0078 H         1 <0>         0.1244
     27 H4          3.3016    1.9885   -0.0192 H         1 <0>         0.1189
     28 H5          1.2174   -1.7605   -0.0194 H         1 <0>         0.1269
     29 H6         -0.9265   -0.5555    0.0083 H         1 <0>         0.1265
     30 H7          7.1493   -3.4696    1.2935 H         1 <0>         0.1269
     31 H8          9.3897   -3.5286    2.3066 H         1 <0>         0.1265
     32 H9         10.6533   -1.4431    2.6317 H         1 <0>         0.1239
     33 H10         9.6860    0.7124    1.9464 H         1 <0>         0.1244
     34 H11         7.4515    0.7930    0.9220 H         1 <0>         0.1189
     35 H12         6.8451   -3.6102   -1.0456 H         1 <0>         0.0938
     36 H13         6.3591   -2.0227   -2.9953 H         1 <0>         0.0623
     37 H14         5.9762   -3.6983   -3.4386 H         1 <0>         0.0651
     38 H15         4.2551   -1.4170   -3.4671 H         1 <0>         0.0623
     39 H16         3.8721   -3.0926   -3.9104 H         1 <0>         0.0652
     40 H17         2.3104   -2.2918   -2.0759 H         1 <0>         0.0938
     41 H18         2.6967   -4.6954   -1.2939 H         1 <0>         0.1190
     42 H19         5.0259   -5.3659   -0.7730 H         1 <0>         0.1191
@<TRIPOS>BOND
     1    1    6 ar
     2    1    2 ar
     3    1   25 1
     4    2    3 ar
     5    2   26 1
     6    3    4 ar
     7    3   27 1
     8    4    5 ar
     9    4    7 1
    10    5    6 ar
    11    5   28 1
    12    6   29 1
    13    7   11 1
    14    7    8 2
    15    8   22 1
    16    8    9 1
    17    9   10 2
    18    9   19 1
    19   10   11 1
    20   10   13 1
    21   11   12 1
    22   13   18 ar
    23   13   14 ar
    24   14   15 ar
    25   14   30 1
    26   15   16 ar
    27   15   31 1
    28   16   17 ar
    29   16   32 1
    30   17   18 ar
    31   17   33 1
    32   18   34 1
    33   19   24 1
    34   19   20 1
    35   19   35 1
    36   20   21 1
    37   20   36 1
    38   20   37 1
    39   21   22 1
    40   21   38 1
    41   21   39 1
    42   22   23 1
    43   22   40 1
    44   23   24 2
    45   23   41 1
    46   24   42 1
@<TRIPOS>MOLECULE
CHEMBL561891
   47    49     0     0     0
SMALL
USER_CHARGES

@<TRIPOS>ATOM
      1 C1         -0.0225    1.8097    0.0120 C.3       1 <0>        -0.6494
      2 S1          0.0021   -0.0041    0.0020 S.o2      1 <0>         2.4985
      3 O1          0.8352   -0.4880    1.0465 O.2       1 <0>        -0.9335
      4 O2         -1.3147   -0.5105   -0.1678 O.2       1 <0>        -0.9336
      5 C2          0.8454   -0.4373   -1.4831 C.ar      1 <0>        -0.6428
      6 C3          0.1315   -0.6121   -2.6550 C.ar      1 <0>        -0.0296
      7 C4          0.7868   -0.9510   -3.8213 C.ar      1 <0>        -0.0882
      8 C5          2.1707   -1.1172   -3.8169 C.ar      1 <0>        -0.0094
      9 C6          2.8848   -0.9398   -2.6332 C.ar      1 <0>        -0.1076
     10 C7          2.2196   -0.5958   -1.4740 C.ar      1 <0>        -0.0268
     11 C8          2.8805   -1.4819   -5.0670 C.ar      1 <0>         0.2666
     12 C9          4.2671   -1.6561   -5.0705 C.ar      1 <0>        -0.2346
     13 C10         4.8856   -1.9960   -6.2603 C.ar      1 <0>         0.1435
     14 N1          4.1519   -2.1451   -7.3520 N.ar      1 <0>        -0.5285
     15 C11         2.8384   -1.9736   -7.3196 C.ar      1 <0>         0.5842
     16 N2          2.2061   -1.6535   -6.2015 N.ar      1 <0>        -0.5410
     17 N3          2.1079   -2.1385   -8.4837 N.pl3     1 <0>        -0.6847
     18 C12         2.7880   -2.4982   -9.7305 C.3       1 <0>         0.1571
     19 C13         2.9608   -4.0169   -9.7974 C.3       1 <0>        -0.1288
     20 C14         3.6710   -4.3925  -11.0995 C.3       1 <0>        -0.1168
     21 C15         2.8347   -3.9214  -12.2909 C.3       1 <0>        -0.1232
     22 C16         2.6620   -2.4026  -12.2239 C.3       1 <0>        -0.1151
     23 C17         1.9517   -2.0270  -10.9219 C.3       1 <0>        -0.1271
     24 C18         6.3786   -2.1940   -6.3131 C.3       1 <0>         0.5254
     25 F1          6.6811   -3.5338   -6.0472 F         1 <0>        -0.1637
     26 F2          6.8494   -1.8534   -7.5857 F         1 <0>        -0.1587
     27 F3          6.9913   -1.3786   -5.3556 F         1 <0>        -0.1644
     28 H1          1.0001    2.1870    0.0043 H         1 <0>         0.1327
     29 H2         -0.5497    2.1708   -0.8711 H         1 <0>         0.1324
     30 H3         -0.5327    2.1613    0.9088 H         1 <0>         0.1352
     31 H4         -0.9408   -0.4834   -2.6571 H         1 <0>         0.1497
     32 H5          0.2284   -1.0875   -4.7356 H         1 <0>         0.1478
     33 H6          3.9572   -1.0677   -2.6240 H         1 <0>         0.1423
     34 H7          2.7724   -0.4538   -0.5572 H         1 <0>         0.1514
     35 H8          4.8424   -1.5281   -4.1655 H         1 <0>         0.1619
     36 H9          1.1457   -2.0160   -8.4741 H         1 <0>         0.4174
     37 H10         3.7668   -2.0195   -9.7616 H         1 <0>         0.0947
     38 H11         3.5566   -4.3526   -8.9486 H         1 <0>         0.0659
     39 H12         1.9820   -4.4956   -9.7663 H         1 <0>         0.0637
     40 H13         4.6498   -3.9138  -11.1306 H         1 <0>         0.0663
     41 H14         3.7941   -5.4745  -11.1471 H         1 <0>         0.0661
     42 H15         3.3407   -4.1890  -13.2185 H         1 <0>         0.0658
     43 H16         1.8560   -4.4001  -12.2597 H         1 <0>         0.0631
     44 H17         3.6407   -1.9239  -12.2551 H         1 <0>         0.0666
     45 H18         2.0662   -2.0670  -13.0727 H         1 <0>         0.0694
     46 H19         0.9730   -2.5057  -10.8908 H         1 <0>         0.0697
     47 H20         1.8286   -0.9450  -10.8742 H         1 <0>         0.0700
@<TRIPOS>BOND
     1    1    2 1
     2    1   28 1
     3    1   29 1
     4    1   30 1
     5    2    3 2
     6    2    4 2
     7    2    5 1
     8    5   10 ar
     9    5    6 ar
    10    6    7 ar
    11    6   31 1
    12    7    8 ar
    13    7   32 1
    14    8    9 ar
    15    8   11 1
    16    9   10 ar
    17    9   33 1
    18   10   34 1
    19   11   16 ar
    20   11   12 ar
    21   12   13 ar
    22   12   35 1
    23   13   14 ar
    24   13   24 1
    25   14   15 ar
    26   15   16 ar
    27   15   17 1
    28   17   18 1
    29   17   36 1
    30   18   23 1
    31   18   19 1
    32   18   37 1
    33   19   20 1
    34   19   38 1
    35   19   39 1
    36   20   21 1
    37   20   40 1
    38   20   41 1
    39   21   22 1
    40   21   42 1
    41   21   43 1
    42   22   23 1
    43   22   44 1
    44   22   45 1
    45   23   46 1
    46   23   47 1
    47   24   25 1
    48   24   26 1
    49   24   27 1
@<TRIPOS>MOLECULE
CHEMBL154480
   53    56     0     0     0
SMALL
USER_CHARGES

@<TRIPOS>ATOM
      1 C1         -0.0187    1.5258    0.0104 C.3       1 <0>        -0.1217
      2 C2          0.0021   -0.0041    0.0020 C.3       1 <0>        -0.1138
      3 C3         -0.8252   -0.7277    1.0664 C.3       1 <0>        -0.1632
      4 C4          0.7014   -0.7075    1.1670 C.3       1 <0>        -0.1642
      5 C5          1.3264    0.1727    2.2511 C.3       1 <0>         0.1572
      6 N1          2.0459   -0.6699    3.2095 N.am      1 <0>        -0.4036
      7 C6          3.3487   -0.9484    3.0057 C.2       1 <0>         0.5068
      8 O1          3.9281   -0.5021    2.0291 O.2       1 <0>        -0.5157
      9 C7          4.0396   -1.7642    3.9364 C.2       1 <0>        -0.0757
     10 C8          3.3441   -2.2567    5.0423 C.2       1 <0>        -0.0181
     11 C9          1.9811   -1.9296    5.2003 C.2       1 <0>         0.0855
     12 N2          1.3753   -1.1717    4.3289 N.2       1 <0>        -0.2031
     13 C10         4.0289   -3.1124    6.0372 C.ar      1 <0>        -0.0040
     14 C11         4.5111   -4.3684    5.6673 C.ar      1 <0>        -0.1089
     15 C12         5.1489   -5.1610    6.5992 C.ar      1 <0>        -0.0185
     16 C13         5.3109   -4.7128    7.8981 C.ar      1 <0>        -0.6510
     17 C14         4.8351   -3.4683    8.2712 C.ar      1 <0>        -0.0191
     18 C15         4.2002   -2.6640    7.3474 C.ar      1 <0>        -0.1186
     19 S1          6.1262   -5.7314    9.0823 S.o2      1 <0>         2.4968
     20 O2          5.6041   -5.3173   10.3374 O.2       1 <0>        -0.9345
     21 O3          5.9265   -7.0592    8.6172 O.2       1 <0>        -0.9344
     22 C16         7.8791   -5.2820    8.9558 C.3       1 <0>        -0.6500
     23 C17         5.4697   -2.0879    3.7395 C.ar      1 <0>        -0.0510
     24 C18         6.4230   -1.6314    4.6510 C.ar      1 <0>        -0.0640
     25 C19         7.7548   -1.9364    4.4631 C.ar      1 <0>        -0.1529
     26 C20         8.1472   -2.6943    3.3712 C.ar      1 <0>         0.1110
     27 C21         7.2048   -3.1497    2.4628 C.ar      1 <0>        -0.1505
     28 C22         5.8697   -2.8557    2.6448 C.ar      1 <0>        -0.0545
     29 F1          9.4532   -2.9900    3.1915 F         1 <0>        -0.1356
     30 C23         0.1021   -0.6551   -1.3790 C.3       1 <0>        -0.1175
     31 H1          1.0039    1.9031    0.0027 H         1 <0>         0.0624
     32 H2         -0.5459    1.8868   -0.8726 H         1 <0>         0.0653
     33 H3         -0.5289    1.8773    0.9072 H         1 <0>         0.0590
     34 H4         -1.3842   -0.1138    1.7726 H         1 <0>         0.0987
     35 H5         -1.2985   -1.6677    0.7829 H         1 <0>         0.0954
     36 H6          1.2323   -1.6343    0.9496 H         1 <0>         0.1043
     37 H7          2.0213    0.8760    1.7923 H         1 <0>         0.1065
     38 H8          0.5413    0.7235    2.7693 H         1 <0>         0.0985
     39 H9          1.4356   -2.3064    6.0529 H         1 <0>         0.1984
     40 H10         4.3849   -4.7196    4.6538 H         1 <0>         0.1347
     41 H11         5.5222   -6.1336    6.3143 H         1 <0>         0.1473
     42 H12         4.9644   -3.1242    9.2867 H         1 <0>         0.1486
     43 H13         3.8329   -1.6910    7.6387 H         1 <0>         0.1391
     44 H14         8.0000   -4.2229    9.1836 H         1 <0>         0.1324
     45 H15         8.4581   -5.8744    9.6642 H         1 <0>         0.1349
     46 H16         8.2324   -5.4786    7.9436 H         1 <0>         0.1323
     47 H17         6.1182   -1.0401    5.5018 H         1 <0>         0.1324
     48 H18         8.4932   -1.5837    5.1678 H         1 <0>         0.1404
     49 H19         7.5159   -3.7398    1.6134 H         1 <0>         0.1414
     50 H20         5.1355   -3.2148    1.9388 H         1 <0>         0.1328
     51 H21         1.1494   -0.7246   -1.6729 H         1 <0>         0.0611
     52 H22        -0.3320   -1.6542   -1.3419 H         1 <0>         0.0569
     53 H23        -0.4399   -0.0502   -2.1059 H         1 <0>         0.0642
@<TRIPOS>BOND
     1    1    2 1
     2    1   31 1
     3    1   32 1
     4    1   33 1
     5    2    4 1
     6    2    3 1
     7    2   30 1
     8    3    4 1
     9    3   34 1
    10    3   35 1
    11    4    5 1
    12    4   36 1
    13    5    6 1
    14    5   37 1
    15    5   38 1
    16    6   12 1
    17    6    7 am
    18    7    8 2
    19    7    9 1
    20    9   10 2
    21    9   23 1
    22   10   11 1
    23   10   13 1
    24   11   12 2
    25   11   39 1
    26   13   18 ar
    27   13   14 ar
    28   14   15 ar
    29   14   40 1
    30   15   16 ar
    31   15   41 1
    32   16   17 ar
    33   16   19 1
    34   17   18 ar
    35   17   42 1
    36   18   43 1
    37   19   20 2
    38   19   21 2
    39   19   22 1
    40   22   44 1
    41   22   45 1
    42   22   46 1
    43   23   28 ar
    44   23   24 ar
    45   24   25 ar
    46   24   47 1
    47   25   26 ar
    48   25   48 1
    49   26   27 ar
    50   26   29 1
    51   27   28 ar
    52   27   49 1
    53   28   50 1
    54   30   51 1
    55   30   52 1
    56   30   53 1
@<TRIPOS>MOLECULE
CHEMBL154480__1
   53    56     0     0     0
SMALL
USER_CHARGES

@<TRIPOS>ATOM
      1 C1         -0.0187    1.5258    0.0104 C.3       1 <0>        -0.1168
      2 C2          0.0021   -0.0041    0.0020 C.3       1 <0>        -0.1146
      3 C3         -0.8252   -0.7277    1.0664 C.3       1 <0>        -0.1610
      4 C4          0.7014   -0.7075    1.1670 C.3       1 <0>        -0.1669
      5 C5          1.4467   -2.0084    0.8619 C.3       1 <0>         0.1574
      6 N1          2.1449   -2.4651    2.0660 N.am      1 <0>        -0.4042
      7 C6          1.5191   -3.2928    2.9260 C.2       1 <0>         0.5081
      8 O1          0.3773   -3.6616    2.7050 O.2       1 <0>        -0.5141
      9 C7          2.1998   -3.7314    4.0894 C.2       1 <0>        -0.0747
     10 C8          3.5057   -3.2891    4.3092 C.2       1 <0>        -0.0194
     11 C9          4.1064   -2.4231    3.3717 C.2       1 <0>         0.0863
     12 N2          3.4553   -2.0422    2.3079 N.2       1 <0>        -0.2059
     13 C10         4.2509   -3.7234    5.5121 C.ar      1 <0>        -0.0038
     14 C11         3.8130   -3.3456    6.7819 C.ar      1 <0>        -0.1090
     15 C12         4.5117   -3.7541    7.8992 C.ar      1 <0>        -0.0185
     16 C13         5.6444   -4.5368    7.7625 C.ar      1 <0>        -0.6510
     17 C14         6.0838   -4.9147    6.5062 C.ar      1 <0>        -0.0191
     18 C15         5.3910   -4.5172    5.3813 C.ar      1 <0>        -0.1186
     19 S1          6.5315   -5.0538    9.1945 S.o2      1 <0>         2.4970
     20 O2          7.8624   -5.2604    8.7416 O.2       1 <0>        -0.9345
     21 O3          6.2450   -4.0659   10.1748 O.2       1 <0>        -0.9344
     22 C16         5.7783   -6.6361    9.6633 C.3       1 <0>        -0.6501
     23 C17         1.5391   -4.6398    5.0524 C.ar      1 <0>        -0.0510
     24 C18         2.0344   -5.9292    5.2518 C.ar      1 <0>        -0.0640
     25 C19         1.4151   -6.7718    6.1509 C.ar      1 <0>        -0.1531
     26 C20         0.3025   -6.3402    6.8556 C.ar      1 <0>         0.1110
     27 C21        -0.1937   -5.0609    6.6611 C.ar      1 <0>        -0.1506
     28 C22         0.4218   -4.2082    5.7688 C.ar      1 <0>        -0.0541
     29 F1         -0.3008   -7.1697    7.7349 F         1 <0>        -0.1356
     30 C23         0.1021   -0.6551   -1.3790 C.3       1 <0>        -0.1216
     31 H1          1.0039    1.9031    0.0027 H         1 <0>         0.0608
     32 H2         -0.5459    1.8868   -0.8726 H         1 <0>         0.0640
     33 H3         -0.5289    1.8773    0.9072 H         1 <0>         0.0568
     34 H4         -1.3842   -0.1138    1.7726 H         1 <0>         0.0943
     35 H5         -1.2985   -1.6677    0.7829 H         1 <0>         0.0996
     36 H6          1.1466   -0.0804    1.9393 H         1 <0>         0.1065
     37 H7          0.7340   -2.7696    0.5444 H         1 <0>         0.1034
     38 H8          2.1708   -1.8342    0.0660 H         1 <0>         0.1007
     39 H9          5.1162   -2.0762    3.5340 H         1 <0>         0.1984
     40 H10         2.9291   -2.7344    6.8899 H         1 <0>         0.1347
     41 H11         4.1739   -3.4621    8.8826 H         1 <0>         0.1472
     42 H12         6.9690   -5.5254    6.4061 H         1 <0>         0.1485
     43 H13         5.7326   -4.8163    4.4014 H         1 <0>         0.1391
     44 H14         5.8860   -7.3467    8.8439 H         1 <0>         0.1324
     45 H15         6.2762   -7.0267   10.5508 H         1 <0>         0.1349
     46 H16         4.7201   -6.4856    9.8770 H         1 <0>         0.1323
     47 H17         2.9010   -6.2668    4.7026 H         1 <0>         0.1323
     48 H18         1.7976   -7.7699    6.3060 H         1 <0>         0.1403
     49 H19        -1.0613   -4.7296    7.2125 H         1 <0>         0.1413
     50 H20         0.0370   -3.2099    5.6213 H         1 <0>         0.1331
     51 H21         1.1494   -0.7246   -1.6729 H         1 <0>         0.0619
     52 H22        -0.3320   -1.6542   -1.3419 H         1 <0>         0.0591
     53 H23        -0.4399   -0.0502   -2.1059 H         1 <0>         0.0652
@<TRIPOS>BOND
     1    1    2 1
     2    1   31 1
     3    1   32 1
     4    1   33 1
     5    2    4 1
     6    2    3 1
     7    2   30 1
     8    3    4 1
     9    3   34 1
    10    3   35 1
    11    4    5 1
    12    4   36 1
    13    5    6 1
    14    5   37 1
    15    5   38 1
    16    6   12 1
    17    6    7 am
    18    7    8 2
    19    7    9 1
    20    9   10 2
    21    9   23 1
    22   10   11 1
    23   10   13 1
    24   11   12 2
    25   11   39 1
    26   13   18 ar
    27   13   14 ar
    28   14   15 ar
    29   14   40 1
    30   15   16 ar
    31   15   41 1
    32   16   17 ar
    33   16   19 1
    34   17   18 ar
    35   17   42 1
    36   18   43 1
    37   19   20 2
    38   19   21 2
    39   19   22 1
    40   22   44 1
    41   22   45 1
    42   22   46 1
    43   23   28 ar
    44   23   24 ar
    45   24   25 ar
    46   24   47 1
    47   25   26 ar
    48   25   48 1
    49   26   27 ar
    50   26   29 1
    51   27   28 ar
    52   27   49 1
    53   28   50 1
    54   30   51 1
    55   30   52 1
    56   30   53 1
@<TRIPOS>MOLECULE
CHEMBL287336
   40    42     0     0     0
SMALL
USER_CHARGES

@<TRIPOS>ATOM
      1 C1         -0.0187    1.5258    0.0104 C.3       1 <0>        -0.1455
      2 C2          0.0021   -0.0041    0.0020 C.3       1 <0>        -0.1467
      3 C3          0.7182   -0.4975   -1.2568 C.3       1 <0>         0.1574
      4 C4          0.6316   -2.0003   -1.3275 C.ar      1 <0>         0.2242
      5 C5         -0.2514   -2.5934   -2.2452 C.ar      1 <0>        -0.3798
      6 C6         -0.3337   -3.9889   -2.3137 C.ar      1 <0>         0.3549
      7 C7          0.4875   -4.7412   -1.4436 C.ar      1 <0>        -0.1974
      8 C8          0.4628   -6.1436   -1.4524 C.ar      1 <0>        -0.0003
      9 C9          1.2685   -6.8372   -0.5998 C.ar      1 <0>        -0.1948
     10 C10         2.1161   -6.1701    0.2806 C.ar      1 <0>        -0.0296
     11 C11         2.1636   -4.8093    0.3144 C.ar      1 <0>        -0.2141
     12 C12         1.3486   -4.0603   -0.5500 C.ar      1 <0>         0.2273
     13 N1          1.3845   -2.7206   -0.5367 N.ar      1 <0>        -0.5707
     14 C13         3.0883   -4.1093    1.2768 C.3       1 <0>         0.5250
     15 F1          3.7901   -5.0607    2.0247 F         1 <0>        -0.1923
     16 F2          3.9935   -3.3180    0.5616 F         1 <0>        -0.1742
     17 F3          2.3395   -3.2994    2.1373 F         1 <0>        -0.1762
     18 O1         -1.1718   -4.5975   -3.1835 O.3       1 <0>        -0.6502
     19 C14        -1.0826   -1.7550   -3.1262 C.2       1 <0>         0.6081
     20 O2         -0.6640   -1.4178   -4.2171 O.2       1 <0>        -0.4750
     21 N2         -2.3071   -1.3615   -2.7232 N.am      1 <0>        -0.6180
     22 C15        -3.0909   -0.5710   -3.5539 C.2       1 <0>         0.3036
     23 N3         -2.8090   -0.1191   -4.7570 N.2       1 <0>        -0.5321
     24 C16        -3.6691    0.6280   -5.4239 C.2       1 <0>         0.0725
     25 C17        -4.8476    0.9049   -4.8137 C.2       1 <0>        -0.2679
     26 S1         -4.6347    0.0355   -3.2689 S.3       1 <0>         0.0759
     27 O3          2.0903   -0.1010   -1.2105 O.3       1 <0>        -0.5489
     28 H1          1.0039    1.9031    0.0027 H         1 <0>         0.0614
     29 H2         -0.5459    1.8868   -0.8726 H         1 <0>         0.0507
     30 H3         -0.5289    1.8773    0.9072 H         1 <0>         0.0528
     31 H4          0.5293   -0.3651    0.8851 H         1 <0>         0.0766
     32 H5         -1.0205   -0.3814    0.0098 H         1 <0>         0.0664
     33 H6          0.2444   -0.0644   -2.1377 H         1 <0>         0.1021
     34 H7         -0.1915   -6.6709   -2.1308 H         1 <0>         0.1322
     35 H8          1.2491   -7.9170   -0.6070 H         1 <0>         0.1250
     36 H9          2.7455   -6.7407    0.9475 H         1 <0>         0.1301
     37 H10        -2.6410   -1.6305   -1.8531 H         1 <0>         0.4223
     38 H11        -3.4438    1.0024   -6.4116 H         1 <0>         0.1706
     39 H12        -5.6857    1.4876   -5.1664 H         1 <0>         0.1933
     40 H13         2.5754   -0.4509   -0.4506 H         1 <0>         0.3813
@<TRIPOS>BOND
     1    1    2 1
     2    1   28 1
     3    1   29 1
     4    1   30 1
     5    2    3 1
     6    2   31 1
     7    2   32 1
     8    3    4 1
     9    3   27 1
    10    3   33 1
    11    4   13 ar
    12    4    5 ar
    13    5    6 ar
    14    5   19 1
    15    6    7 ar
    16    6   18 1
    17    7   12 ar
    18    7    8 ar
    19    8    9 ar
    20    8   34 1
    21    9   10 ar
    22    9   35 1
    23   10   11 ar
    24   10   36 1
    25   11   12 ar
    26   11   14 1
    27   12   13 ar
    28   14   15 1
    29   14   16 1
    30   14   17 1
    31   19   20 2
    32   19   21 am
    33   21   22 1
    34   21   37 1
    35   22   26 1
    36   22   23 2
    37   23   24 1
    38   24   25 2
    39   24   38 1
    40   25   26 1
    41   25   39 1
    42   27   40 1
@<TRIPOS>MOLECULE
CHEMBL287336__1
   41    43     0     0     0
SMALL
USER_CHARGES

@<TRIPOS>ATOM
      1 C1          0.3161    1.5473   -0.0048 C.3       1 <0>        -0.1488
      2 C2          0.2918    0.0176    0.0073 C.3       1 <0>        -0.1586
      3 C3          0.8142   -0.5114   -1.3299 C.3       1 <0>         0.1282
      4 C4          0.6759   -2.0116   -1.3652 C.2       1 <0>         0.2149
      5 C5         -0.1599   -2.5822   -2.3030 C.2       1 <0>        -0.3085
      6 C6         -0.2945   -4.0473   -2.3377 C.2       1 <0>         0.4436
      7 C7          0.4854   -4.8189   -1.3521 C.ar      1 <0>        -0.1846
      8 C8          0.4206   -6.2117   -1.3115 C.ar      1 <0>         0.0072
      9 C9          1.1628   -6.9004   -0.3780 C.ar      1 <0>        -0.1495
     10 C10         1.9712   -6.2147    0.5179 C.ar      1 <0>        -0.0035
     11 C11         2.0450   -4.8397    0.4892 C.ar      1 <0>        -0.2382
     12 C12         1.3031   -4.1225   -0.4463 C.ar      1 <0>         0.2362
     13 N1          1.3726   -2.7469   -0.4887 N.pl3     1 <0>        -0.5921
     14 C13         2.9276   -4.1115    1.4698 C.3       1 <0>         0.5085
     15 F1          3.5655   -5.0387    2.3009 F         1 <0>        -0.1638
     16 F2          3.8887   -3.3720    0.7723 F         1 <0>        -0.1750
     17 F3          2.1481   -3.2478    2.2468 F         1 <0>        -0.1748
     18 O1         -1.0199   -4.5994   -3.1462 O.2       1 <0>        -0.4576
     19 C14        -0.9044   -1.7403   -3.2519 C.2       1 <0>         0.5888
     20 O2         -2.0642   -1.4501   -3.0274 O.2       1 <0>        -0.4483
     21 N2         -0.3015   -1.2903   -4.3702 N.am      1 <0>        -0.6162
     22 C15        -0.9712   -0.4156   -5.2164 C.2       1 <0>         0.2708
     23 N3         -2.1826    0.0810   -5.0864 N.2       1 <0>        -0.5221
     24 C16        -2.6808    0.9085   -5.9864 C.2       1 <0>         0.0630
     25 C17        -1.8898    1.2191   -7.0426 C.2       1 <0>        -0.2440
     26 S1         -0.4273    0.2719   -6.6530 S.3       1 <0>         0.1131
     27 O3          2.1905   -0.1564   -1.4776 O.3       1 <0>        -0.5322
     28 H1          1.3384    1.8932   -0.1580 H         1 <0>         0.0661
     29 H2         -0.3166    1.9144   -0.8130 H         1 <0>         0.0610
     30 H3         -0.0561    1.9242    0.9478 H         1 <0>         0.0653
     31 H4          0.9244   -0.3495    0.8154 H         1 <0>         0.0713
     32 H5         -0.7305   -0.3283    0.1604 H         1 <0>         0.0878
     33 H6          0.2367   -0.0740   -2.1443 H         1 <0>         0.1333
     34 H7         -0.2082   -6.7468   -2.0076 H         1 <0>         0.1555
     35 H8          1.1154   -7.9788   -0.3427 H         1 <0>         0.1515
     36 H9          2.5485   -6.7655    1.2458 H         1 <0>         0.1538
     37 H10         0.6000   -1.5772   -4.5842 H         1 <0>         0.4278
     38 H11        -3.6745    1.3194   -5.8859 H         1 <0>         0.1770
     39 H12        -2.0880    1.8650   -7.8852 H         1 <0>         0.2001
     40 H13         2.7649   -0.5123   -0.7859 H         1 <0>         0.3761
     41 H14         1.9480   -2.2913    0.1456 H         1 <0>         0.4167
@<TRIPOS>BOND
     1    1    2 1
     2    1   28 1
     3    1   29 1
     4    1   30 1
     5    2    3 1
     6    2   31 1
     7    2   32 1
     8    3    4 1
     9    3   27 1
    10    3   33 1
    11    4   13 1
    12    4    5 2
    13    5    6 1
    14    5   19 1
    15    6    7 1
    16    6   18 2
    17    7   12 ar
    18    7    8 ar
    19    8    9 ar
    20    8   34 1
    21    9   10 ar
    22    9   35 1
    23   10   11 ar
    24   10   36 1
    25   11   12 ar
    26   11   14 1
    27   12   13 1
    28   13   41 1
    29   14   15 1
    30   14   16 1
    31   14   17 1
    32   19   20 2
    33   19   21 am
    34   21   22 1
    35   21   37 1
    36   22   26 1
    37   22   23 2
    38   23   24 1
    39   24   25 2
    40   24   38 1
    41   25   26 1
    42   25   39 1
    43   27   40 1
@<TRIPOS>MOLECULE
CHEMBL287336__2
   40    42     0     0     0
SMALL
USER_CHARGES

@<TRIPOS>ATOM
      1 C1         -0.0187    1.5258    0.0104 C.3       1 <0>        -0.1434
      2 C2          0.0021   -0.0041    0.0020 C.3       1 <0>        -0.1476
      3 C3          0.7182   -0.4975   -1.2568 C.3       1 <0>         0.1597
      4 C4          0.8473   -1.9981   -1.2057 C.ar      1 <0>         0.2246
      5 C5          2.0958   -2.5686   -0.9067 C.ar      1 <0>        -0.3807
      6 C6          2.2188   -3.9621   -0.8580 C.ar      1 <0>         0.3551
      7 C7          1.0641   -4.7351   -1.1159 C.ar      1 <0>        -0.1976
      8 C8          1.1063   -6.1368   -1.0853 C.ar      1 <0>        -0.0002
      9 C9         -0.0264   -6.8508   -1.3385 C.ar      1 <0>        -0.1949
     10 C10        -1.2257   -6.2054   -1.6277 C.ar      1 <0>        -0.0295
     11 C11        -1.3002   -4.8459   -1.6656 C.ar      1 <0>        -0.2141
     12 C12        -0.1538   -4.0761   -1.4091 C.ar      1 <0>         0.2275
     13 N1         -0.2071   -2.7373   -1.4356 N.ar      1 <0>        -0.5708
     14 C13        -2.6092   -4.1695   -1.9819 C.3       1 <0>         0.5249
     15 F1         -3.5947   -5.1387   -2.1978 F         1 <0>        -0.1923
     16 F2         -2.9842   -3.3542   -0.9087 F         1 <0>        -0.1754
     17 F3         -2.4640   -3.3876   -3.1330 F         1 <0>        -0.1750
     18 O1          3.4036   -4.5493   -0.5740 O.3       1 <0>        -0.6501
     19 C14         3.2637   -1.7092   -0.6475 C.2       1 <0>         0.6090
     20 O2          3.5071   -1.3392    0.4852 O.2       1 <0>        -0.4775
     21 N2          4.0626   -1.3327   -1.6657 N.am      1 <0>        -0.6176
     22 C15         5.1638   -0.5223   -1.4213 C.2       1 <0>         0.3034
     23 N3          5.5817   -0.0352   -0.2728 N.2       1 <0>        -0.5327
     24 C16         6.6577    0.7269   -0.2059 C.2       1 <0>         0.0719
     25 C17         7.3059    0.9811   -1.3691 C.2       1 <0>        -0.2685
     26 S1          6.2919    0.0690   -2.5214 S.3       1 <0>         0.0782
     27 O3         -0.0359   -0.1233   -2.4115 O.3       1 <0>        -0.5531
     28 H1          1.0039    1.9031    0.0027 H         1 <0>         0.0509
     29 H2         -0.5459    1.8868   -0.8726 H         1 <0>         0.0591
     30 H3         -0.5289    1.8773    0.9072 H         1 <0>         0.0522
     31 H4          0.5293   -0.3651    0.8851 H         1 <0>         0.0740
     32 H5         -1.0205   -0.3814    0.0098 H         1 <0>         0.0740
     33 H6          1.7103   -0.0491   -1.3098 H         1 <0>         0.0990
     34 H7          2.0316   -6.6474   -0.8627 H         1 <0>         0.1322
     35 H8          0.0066   -7.9301   -1.3149 H         1 <0>         0.1249
     36 H9         -2.1107   -6.7919   -1.8255 H         1 <0>         0.1301
     37 H10         3.8685   -1.6278   -2.5691 H         1 <0>         0.4241
     38 H11         7.0058    1.1301    0.7335 H         1 <0>         0.1703
     39 H12         8.1933    1.5699   -1.5487 H         1 <0>         0.1932
     40 H13        -0.9315   -0.4875   -2.4314 H         1 <0>         0.3828
@<TRIPOS>BOND
     1    1    2 1
     2    1   28 1
     3    1   29 1
     4    1   30 1
     5    2    3 1
     6    2   31 1
     7    2   32 1
     8    3    4 1
     9    3   27 1
    10    3   33 1
    11    4   13 ar
    12    4    5 ar
    13    5    6 ar
    14    5   19 1
    15    6    7 ar
    16    6   18 1
    17    7   12 ar
    18    7    8 ar
    19    8    9 ar
    20    8   34 1
    21    9   10 ar
    22    9   35 1
    23   10   11 ar
    24   10   36 1
    25   11   12 ar
    26   11   14 1
    27   12   13 ar
    28   14   15 1
    29   14   16 1
    30   14   17 1
    31   19   20 2
    32   19   21 am
    33   21   22 1
    34   21   37 1
    35   22   26 1
    36   22   23 2
    37   23   24 1
    38   24   25 2
    39   24   38 1
    40   25   26 1
    41   25   39 1
    42   27   40 1
@<TRIPOS>MOLECULE
CHEMBL287336__3
   41    43     0     0     0
SMALL
USER_CHARGES

@<TRIPOS>ATOM
      1 C1          0.1981    1.4442    0.4391 C.3       1 <0>        -0.1502
      2 C2          0.2040   -0.0821    0.3330 C.3       1 <0>        -0.1584
      3 C3          0.7312   -0.4956   -1.0425 C.3       1 <0>         0.1276
      4 C4          0.8530   -1.9965   -1.1034 C.2       1 <0>         0.2138
      5 C5          2.1067   -2.5593   -1.2253 C.2       1 <0>        -0.3076
      6 C6          2.2254   -4.0249   -1.2842 C.2       1 <0>         0.4436
      7 C7          0.9765   -4.8055   -1.2077 C.ar      1 <0>        -0.1844
      8 C8          0.9928   -6.1996   -1.2553 C.ar      1 <0>         0.0072
      9 C9         -0.1925   -6.8967   -1.1808 C.ar      1 <0>        -0.1494
     10 C10        -1.3972   -6.2184   -1.0592 C.ar      1 <0>        -0.0035
     11 C11        -1.4283   -4.8423   -1.0110 C.ar      1 <0>        -0.2381
     12 C12        -0.2418   -4.1165   -1.0845 C.ar      1 <0>         0.2362
     13 N1         -0.2592   -2.7397   -1.0318 N.pl3     1 <0>        -0.5919
     14 C13        -2.7455   -4.1221   -0.8792 C.3       1 <0>         0.5085
     15 F1         -3.7848   -5.0571   -0.8250 F         1 <0>        -0.1638
     16 F2         -2.7440   -3.3581    0.2928 F         1 <0>        -0.1755
     17 F3         -2.9305   -3.2826   -1.9829 F         1 <0>        -0.1744
     18 O1          3.3097   -4.5705   -1.3920 O.2       1 <0>        -0.4571
     19 C14         3.3046   -1.7086   -1.2957 C.2       1 <0>         0.5874
     20 O2          3.8197   -1.4713   -2.3719 O.2       1 <0>        -0.4428
     21 N2          3.8317   -1.1922   -0.1679 N.am      1 <0>        -0.6193
     22 C15         4.8983   -0.3055   -0.2424 C.2       1 <0>         0.2708
     23 N3          5.5140    0.1445   -1.3144 N.2       1 <0>        -0.5206
     24 C16         6.5216    0.9921   -1.2171 C.2       1 <0>         0.0638
     25 C17         6.8880    1.3731    0.0312 C.2       1 <0>        -0.2425
     26 S1          5.7122    0.4596    1.0165 S.3       1 <0>         0.1093
     27 O3         -0.1748   -0.0498   -2.0537 O.3       1 <0>        -0.5285
     28 H1          1.2127    1.8213    0.3105 H         1 <0>         0.0604
     29 H2         -0.4450    1.8599   -0.3365 H         1 <0>         0.0673
     30 H3         -0.1774    1.7388    1.4190 H         1 <0>         0.0661
     31 H4          0.8472   -0.4978    1.1086 H         1 <0>         0.0841
     32 H5         -0.8106   -0.4592    0.4616 H         1 <0>         0.0736
     33 H6          1.7098   -0.0447   -1.2071 H         1 <0>         0.1330
     34 H7          1.9293   -6.7290   -1.3503 H         1 <0>         0.1555
     35 H8         -0.1846   -7.9761   -1.2176 H         1 <0>         0.1515
     36 H9         -2.3205   -6.7758   -1.0020 H         1 <0>         0.1538
     37 H10         3.4661   -1.4397    0.6958 H         1 <0>         0.4254
     38 H11         7.0315    1.3651   -2.0931 H         1 <0>         0.1774
     39 H12         7.6722    2.0469    0.3434 H         1 <0>         0.2004
     40 H13        -1.0674   -0.4122   -1.9694 H         1 <0>         0.3747
     41 H14        -1.1137   -2.2892   -0.9426 H         1 <0>         0.4165
@<TRIPOS>BOND
     1    1    2 1
     2    1   28 1
     3    1   29 1
     4    1   30 1
     5    2    3 1
     6    2   31 1
     7    2   32 1
     8    3    4 1
     9    3   27 1
    10    3   33 1
    11    4   13 1
    12    4    5 2
    13    5    6 1
    14    5   19 1
    15    6    7 1
    16    6   18 2
    17    7   12 ar
    18    7    8 ar
    19    8    9 ar
    20    8   34 1
    21    9   10 ar
    22    9   35 1
    23   10   11 ar
    24   10   36 1
    25   11   12 ar
    26   11   14 1
    27   12   13 1
    28   13   41 1
    29   14   15 1
    30   14   16 1
    31   14   17 1
    32   19   20 2
    33   19   21 am
    34   21   22 1
    35   21   37 1
    36   22   26 1
    37   22   23 2
    38   23   24 1
    39   24   25 2
    40   24   38 1
    41   25   26 1
    42   25   39 1
    43   27   40 1
@<TRIPOS>MOLECULE
CHEMBL552082
   52    54     0     0     0
SMALL
USER_CHARGES

@<TRIPOS>ATOM
      1 C1         -0.0225    1.8097    0.0120 C.3       1 <0>        -0.6492
      2 S1          0.0021   -0.0041    0.0020 S.o2      1 <0>         2.4982
      3 O1          0.8352   -0.4880    1.0465 O.2       1 <0>        -0.9329
      4 O2         -1.3147   -0.5105   -0.1678 O.2       1 <0>        -0.9324
      5 C2          0.8454   -0.4373   -1.4831 C.ar      1 <0>        -0.6401
      6 C3          0.1315   -0.6121   -2.6550 C.ar      1 <0>        -0.0286
      7 C4          0.7867   -0.9519   -3.8211 C.ar      1 <0>        -0.0848
      8 C5          2.1705   -1.1185   -3.8166 C.ar      1 <0>        -0.0140
      9 C6          2.8847   -0.9407   -2.6330 C.ar      1 <0>        -0.1057
     10 C7          2.2196   -0.5958   -1.4740 C.ar      1 <0>        -0.0271
     11 C8          2.8802   -1.4841   -5.0665 C.ar      1 <0>         0.2642
     12 C9          4.2667   -1.6589   -5.0701 C.ar      1 <0>        -0.2122
     13 C10         4.8839   -2.0002   -6.2600 C.ar      1 <0>         0.1373
     14 N1          4.1486   -2.1498   -7.3509 N.ar      1 <0>        -0.5319
     15 C11         2.8369   -1.9778   -7.3175 C.ar      1 <0>         0.5262
     16 N2          2.2059   -1.6564   -6.2012 N.ar      1 <0>        -0.4947
     17 O3          2.1214   -2.1400   -8.4562 O.3       1 <0>        -0.2739
     18 C12         2.8487   -2.4920   -9.6348 C.3       1 <0>         0.0659
     19 C13         3.2836   -1.2197  -10.3650 C.3       1 <0>        -0.1328
     20 C14         4.3755   -1.5625  -11.3803 C.3       1 <0>        -0.1226
     21 C15         5.3890   -2.5123  -10.7391 C.3       1 <0>        -0.1385
     22 C16         5.3077   -3.8802  -11.4196 C.3       1 <0>        -0.1208
     23 C17         4.0617   -4.6199  -10.9283 C.3       1 <0>        -0.1335
     24 C18         2.8205   -4.0317  -11.6021 C.3       1 <0>        -0.1241
     25 C19         1.9559   -3.3278  -10.5545 C.3       1 <0>        -0.1161
     26 C20         6.3767   -2.1990   -6.3143 C.3       1 <0>         0.5251
     27 F1          6.6788   -3.5387   -6.0475 F         1 <0>        -0.1614
     28 F2          6.8464   -1.8598   -7.5877 F         1 <0>        -0.1558
     29 F3          6.9909   -1.3831   -5.3581 F         1 <0>        -0.1624
     30 H1          1.0001    2.1870    0.0043 H         1 <0>         0.1328
     31 H2         -0.5497    2.1708   -0.8711 H         1 <0>         0.1329
     32 H3         -0.5327    2.1613    0.9088 H         1 <0>         0.1355
     33 H4         -0.9407   -0.4828   -2.6573 H         1 <0>         0.1515
     34 H5          0.2282   -1.0889   -4.7353 H         1 <0>         0.1509
     35 H6          3.9571   -1.0684   -2.6238 H         1 <0>         0.1426
     36 H7          2.7724   -0.4538   -0.5572 H         1 <0>         0.1527
     37 H8          4.8426   -1.5303   -4.1656 H         1 <0>         0.1694
     38 H9          3.7295   -3.0716   -9.3587 H         1 <0>         0.1219
     39 H10         2.4277   -0.7878  -10.8837 H         1 <0>         0.0728
     40 H11         3.6714   -0.5010   -9.6431 H         1 <0>         0.0645
     41 H12         3.9257   -2.0436  -12.2488 H         1 <0>         0.0772
     42 H13         4.8810   -0.6487  -11.6925 H         1 <0>         0.0661
     43 H14         6.3934   -2.1062  -10.8585 H         1 <0>         0.0629
     44 H15         5.1647   -2.6204   -9.6779 H         1 <0>         0.0823
     45 H16         5.2485   -3.7460  -12.4996 H         1 <0>         0.0662
     46 H17         6.1962   -4.4618  -11.1737 H         1 <0>         0.0625
     47 H18         4.1444   -5.6774  -11.1791 H         1 <0>         0.0650
     48 H19         3.9755   -4.5085   -9.8475 H         1 <0>         0.0670
     49 H20         3.1262   -3.3134  -12.3629 H         1 <0>         0.0797
     50 H21         2.2464   -4.8324  -12.0684 H         1 <0>         0.0715
     51 H22         1.4221   -4.0725   -9.9641 H         1 <0>         0.0742
     52 H23         1.2380   -2.6770  -11.0536 H         1 <0>         0.0765
@<TRIPOS>BOND
     1    1    2 1
     2    1   30 1
     3    1   31 1
     4    1   32 1
     5    2    3 2
     6    2    4 2
     7    2    5 1
     8    5   10 ar
     9    5    6 ar
    10    6    7 ar
    11    6   33 1
    12    7    8 ar
    13    7   34 1
    14    8    9 ar
    15    8   11 1
    16    9   10 ar
    17    9   35 1
    18   10   36 1
    19   11   16 ar
    20   11   12 ar
    21   12   13 ar
    22   12   37 1
    23   13   14 ar
    24   13   26 1
    25   14   15 ar
    26   15   16 ar
    27   15   17 1
    28   17   18 1
    29   18   25 1
    30   18   19 1
    31   18   38 1
    32   19   20 1
    33   19   39 1
    34   19   40 1
    35   20   21 1
    36   20   41 1
    37   20   42 1
    38   21   22 1
    39   21   43 1
    40   21   44 1
    41   22   23 1
    42   22   45 1
    43   22   46 1
    44   23   24 1
    45   23   47 1
    46   23   48 1
    47   24   25 1
    48   24   49 1
    49   24   50 1
    50   25   51 1
    51   25   52 1
    52   26   27 1
    53   26   28 1
    54   26   29 1
@<TRIPOS>MOLECULE
CHEMBL552081
   46    48     0     0     0
SMALL
USER_CHARGES

@<TRIPOS>ATOM
      1 C1         -0.0225    1.8097    0.0120 C.3       1 <0>        -0.6492
      2 S1          0.0021   -0.0041    0.0020 S.o2      1 <0>         2.4983
      3 O1          0.8352   -0.4880    1.0465 O.2       1 <0>        -0.9329
      4 O2         -1.3147   -0.5105   -0.1678 O.2       1 <0>        -0.9325
      5 C2          0.8454   -0.4373   -1.4831 C.ar      1 <0>        -0.6401
      6 C3          0.1315   -0.6121   -2.6550 C.ar      1 <0>        -0.0286
      7 C4          0.7867   -0.9519   -3.8211 C.ar      1 <0>        -0.0848
      8 C5          2.1705   -1.1185   -3.8166 C.ar      1 <0>        -0.0140
      9 C6          2.8847   -0.9407   -2.6330 C.ar      1 <0>        -0.1057
     10 C7          2.2196   -0.5958   -1.4740 C.ar      1 <0>        -0.0270
     11 C8          2.8802   -1.4841   -5.0665 C.ar      1 <0>         0.2640
     12 C9          4.2667   -1.6589   -5.0701 C.ar      1 <0>        -0.2116
     13 C10         4.8839   -2.0002   -6.2600 C.ar      1 <0>         0.1373
     14 N1          4.1486   -2.1498   -7.3509 N.ar      1 <0>        -0.5314
     15 C11         2.8369   -1.9778   -7.3175 C.ar      1 <0>         0.5263
     16 N2          2.2059   -1.6564   -6.2012 N.ar      1 <0>        -0.4946
     17 O3          2.1214   -2.1400   -8.4562 O.3       1 <0>        -0.2728
     18 C12         2.8487   -2.4920   -9.6348 C.3       1 <0>         0.0909
     19 C13         3.2836   -1.2197  -10.3648 C.3       1 <0>        -0.1351
     20 C14         4.0623   -1.5967  -11.6268 C.3       1 <0>        -0.1151
     21 C15         3.1696   -2.4324  -12.5463 C.3       1 <0>        -0.1252
     22 C16         2.7346   -3.7047  -11.8163 C.3       1 <0>        -0.1151
     23 C17         1.9559   -3.3277  -10.5544 C.3       1 <0>        -0.1164
     24 C18         6.3767   -2.1990   -6.3143 C.3       1 <0>         0.5260
     25 F1          6.6788   -3.5387   -6.0475 F         1 <0>        -0.1615
     26 F2          6.8464   -1.8598   -7.5877 F         1 <0>        -0.1566
     27 F3          6.9909   -1.3831   -5.3581 F         1 <0>        -0.1623
     28 H1          1.0001    2.1870    0.0043 H         1 <0>         0.1328
     29 H2         -0.5497    2.1708   -0.8711 H         1 <0>         0.1329
     30 H3         -0.5327    2.1613    0.9088 H         1 <0>         0.1355
     31 H4         -0.9407   -0.4828   -2.6573 H         1 <0>         0.1516
     32 H5          0.2282   -1.0889   -4.7353 H         1 <0>         0.1509
     33 H6          3.9571   -1.0684   -2.6238 H         1 <0>         0.1426
     34 H7          2.7724   -0.4538   -0.5572 H         1 <0>         0.1527
     35 H8          4.8426   -1.5303   -4.1656 H         1 <0>         0.1698
     36 H9          3.7295   -3.0717   -9.3587 H         1 <0>         0.0954
     37 H10         2.4028   -0.6401  -10.6410 H         1 <0>         0.0732
     38 H11         3.9196   -0.6244   -9.7097 H         1 <0>         0.0672
     39 H12         4.3722   -0.6903  -12.1468 H         1 <0>         0.0705
     40 H13         4.9432   -2.1763  -11.3506 H         1 <0>         0.0675
     41 H14         2.2888   -1.8528  -12.8225 H         1 <0>         0.0659
     42 H15         3.7244   -2.7009  -13.4453 H         1 <0>         0.0686
     43 H16         2.0986   -4.3001  -12.4714 H         1 <0>         0.0749
     44 H17         3.6155   -4.2843  -11.5402 H         1 <0>         0.0670
     45 H18         1.6461   -4.2342  -10.0343 H         1 <0>         0.0734
     46 H19         1.0751   -2.7481  -10.8306 H         1 <0>         0.0773
@<TRIPOS>BOND
     1    1    2 1
     2    1   28 1
     3    1   29 1
     4    1   30 1
     5    2    3 2
     6    2    4 2
     7    2    5 1
     8    5   10 ar
     9    5    6 ar
    10    6    7 ar
    11    6   31 1
    12    7    8 ar
    13    7   32 1
    14    8    9 ar
    15    8   11 1
    16    9   10 ar
    17    9   33 1
    18   10   34 1
    19   11   16 ar
    20   11   12 ar
    21   12   13 ar
    22   12   35 1
    23   13   14 ar
    24   13   24 1
    25   14   15 ar
    26   15   16 ar
    27   15   17 1
    28   17   18 1
    29   18   23 1
    30   18   19 1
    31   18   36 1
    32   19   20 1
    33   19   37 1
    34   19   38 1
    35   20   21 1
    36   20   39 1
    37   20   40 1
    38   21   22 1
    39   21   41 1
    40   21   42 1
    41   22   23 1
    42   22   43 1
    43   22   44 1
    44   23   45 1
    45   23   46 1
    46   24   25 1
    47   24   26 1
    48   24   27 1
@<TRIPOS>MOLECULE
CHEMBL71280
   50    53     0     0     0
SMALL
USER_CHARGES

@<TRIPOS>ATOM
      1 C1         -1.3967   -0.8980    0.0627 C.3       1 <0>        -0.1605
      2 C2         -0.0693   -0.1390    0.0084 C.3       1 <0>        -0.1148
      3 C3          0.7134   -0.3875    1.2993 C.3       1 <0>         0.0241
      4 C4          2.0427    0.3737    1.2496 C.3       1 <0>        -0.1117
      5 C5          2.9601   -0.2715    0.2069 C.3       1 <0>        -0.1085
      6 C6          3.4218   -1.6420    0.7162 C.3       1 <0>         0.0094
      7 H1          4.1119   -1.5094    1.5494 H         1 <0>         0.0750
      8 C7          2.2126   -2.4149    1.1784 C.2       1 <0>        -0.1744
      9 C8          1.0078   -1.8627    1.4380 C.2       1 <0>         0.1695
     10 N1          0.1276   -2.8350    1.8354 N.pl3     1 <0>        -0.5800
     11 H2         -0.8000   -2.6834    2.0753 H         1 <0>         0.4073
     12 C9          0.7523   -4.0487    1.8430 C.ar      1 <0>         0.0935
     13 C10         2.0930   -3.8362    1.4296 C.ar      1 <0>        -0.0787
     14 C11         2.9992   -4.8962    1.3337 C.ar      1 <0>        -0.0795
     15 C12         2.5299   -6.1455    1.6580 C.ar      1 <0>        -0.1583
     16 C13         1.2226   -6.3584    2.0623 C.ar      1 <0>        -0.1197
     17 C14         0.3039   -5.3278    2.1645 C.ar      1 <0>        -0.1315
     18 C15         4.1204   -2.4012   -0.4136 C.3       1 <0>        -0.0778
     19 C16         5.3832   -1.6755   -0.8006 C.ar      1 <0>        -0.0665
     20 C17         5.3480   -0.7019   -1.7813 C.ar      1 <0>        -0.1161
     21 C18         6.5064   -0.0363   -2.1363 C.ar      1 <0>        -0.1215
     22 C19         7.6998   -0.3440   -1.5103 C.ar      1 <0>        -0.1329
     23 C20         7.7348   -1.3169   -0.5290 C.ar      1 <0>        -0.1197
     24 C21         6.5757   -1.9796   -0.1710 C.ar      1 <0>        -0.1177
     25 C22        -0.1099    0.0869    2.4985 C.3       1 <0>        -0.1838
     26 C23         0.6436   -0.2024    3.7712 C.2       1 <0>         0.4874
     27 O1          1.6866   -0.8327    3.7323 O.co2     1 <0>        -0.6677
     28 O2          0.2103    0.1938    4.8397 O.co2     1 <0>        -0.7104
     29 H3         -1.9746   -0.5584    0.9222 H         1 <0>         0.0577
     30 H4         -1.9603   -0.7102   -0.8512 H         1 <0>         0.0505
     31 H5         -1.2009   -1.9662    0.1557 H         1 <0>         0.0528
     32 H6          0.5143   -0.4883   -0.8433 H         1 <0>         0.0634
     33 H7         -0.2650    0.9280   -0.0982 H         1 <0>         0.0642
     34 H8          1.8567    1.4125    0.9771 H         1 <0>         0.0521
     35 H9          2.5208    0.3345    2.2284 H         1 <0>         0.1012
     36 H10         2.4159   -0.3957   -0.7293 H         1 <0>         0.0561
     37 H11         3.8283    0.3666    0.0417 H         1 <0>         0.0598
     38 H12         4.0205   -4.7401    1.0190 H         1 <0>         0.1219
     39 H13         3.2016   -6.9888    1.5953 H         1 <0>         0.1073
     40 H14         0.9086   -7.3630    2.3046 H         1 <0>         0.1099
     41 H15        -0.7131   -5.5069    2.4809 H         1 <0>         0.1180
     42 H16         4.3685   -3.4075   -0.0761 H         1 <0>         0.0749
     43 H17         3.4566   -2.4606   -1.2762 H         1 <0>         0.0689
     44 H18         4.4156   -0.4616   -2.2704 H         1 <0>         0.1199
     45 H19         6.4790    0.7239   -2.9030 H         1 <0>         0.1168
     46 H20         8.6050    0.1756   -1.7882 H         1 <0>         0.1155
     47 H21         8.6673   -1.5575   -0.0401 H         1 <0>         0.1174
     48 H22         6.6023   -2.7371    0.5983 H         1 <0>         0.1207
     49 H23        -0.2864    1.1594    2.4166 H         1 <0>         0.0623
     50 H24        -1.0648   -0.4384    2.5143 H         1 <0>         0.0540
@<TRIPOS>BOND
     1    1    2 1
     2    1   29 1
     3    1   30 1
     4    1   31 1
     5    2    3 1
     6    2   32 1
     7    2   33 1
     8    3    9 1
     9    3    4 1
    10    3   25 1
    11    4    5 1
    12    4   34 1
    13    4   35 1
    14    5    6 1
    15    5   36 1
    16    5   37 1
    17    6    7 1
    18    6    8 1
    19    6   18 1
    20    8   13 1
    21    8    9 2
    22    9   10 1
    23   10   11 1
    24   10   12 1
    25   12   17 ar
    26   12   13 ar
    27   13   14 ar
    28   14   15 ar
    29   14   38 1
    30   15   16 ar
    31   15   39 1
    32   16   17 ar
    33   16   40 1
    34   17   41 1
    35   18   19 1
    36   18   42 1
    37   18   43 1
    38   19   24 ar
    39   19   20 ar
    40   20   21 ar
    41   20   44 1
    42   21   22 ar
    43   21   45 1
    44   22   23 ar
    45   22   46 1
    46   23   24 ar
    47   23   47 1
    48   24   48 1
    49   25   26 1
    50   25   49 1
    51   25   50 1
    52   26   27 2
    53   26   28 1
@<TRIPOS>MOLECULE
CHEMBL71280__1
   50    53     0     0     0
SMALL
USER_CHARGES

@<TRIPOS>ATOM
      1 C1         -1.3814   -0.6962   -0.0201 C.3       1 <0>        -0.1489
      2 C2         -0.0446    0.0426    0.0694 C.3       1 <0>        -0.1235
      3 C3          0.7038   -0.4077    1.3255 C.3       1 <0>         0.0321
      4 C4         -0.0843    0.0105    2.5717 C.3       1 <0>        -0.1124
      5 C5          0.5295   -0.6521    3.8083 C.3       1 <0>        -0.1157
      6 C6          0.2463   -2.1585    3.7698 C.3       1 <0>         0.0030
      7 H1         -0.8153   -2.3358    3.9419 H         1 <0>         0.0703
      8 C7          0.6339   -2.6855    2.4115 C.2       1 <0>        -0.1820
      9 C8          0.8390   -1.9123    1.3234 C.2       1 <0>         0.1202
     10 N1          1.1793   -2.6979    0.2534 N.pl3     1 <0>        -0.5828
     11 H2          1.3761   -2.3710   -0.6384 H         1 <0>         0.4124
     12 C9          1.1999   -4.0095    0.6310 C.ar      1 <0>         0.0913
     13 C10         0.8556   -4.0583    2.0068 C.ar      1 <0>        -0.0878
     14 C11         0.7883   -5.2730    2.6951 C.ar      1 <0>        -0.0751
     15 C12         1.0679   -6.4098    1.9770 C.ar      1 <0>        -0.1557
     16 C13         1.4022   -6.3682    0.6337 C.ar      1 <0>        -0.1132
     17 C14         1.4809   -5.1792   -0.0713 C.ar      1 <0>        -0.1310
     18 C15         1.0668   -2.8633    4.8519 C.3       1 <0>        -0.0763
     19 C16         0.6031   -2.4068    6.2112 C.ar      1 <0>        -0.0699
     20 C17         1.1861   -1.3035    6.8059 C.ar      1 <0>        -0.1121
     21 C18         0.7607   -0.8848    8.0527 C.ar      1 <0>        -0.1184
     22 C19        -0.2481   -1.5691    8.7047 C.ar      1 <0>        -0.1309
     23 C20        -0.8317   -2.6719    8.1096 C.ar      1 <0>        -0.1221
     24 C21        -0.4092   -3.0881    6.8609 C.ar      1 <0>        -0.1202
     25 C22         2.0931    0.2327    1.3530 C.3       1 <0>        -0.1726
     26 C23         1.9540    1.7316    1.4249 C.2       1 <0>         0.4978
     27 O1          0.8518    2.2462    1.3417 O.co2     1 <0>        -0.6830
     28 O2          2.9435    2.4296    1.5663 O.co2     1 <0>        -0.7025
     29 H3         -1.9970   -0.4392    0.8419 H         1 <0>         0.0562
     30 H4         -1.8973   -0.4043   -0.9349 H         1 <0>         0.0440
     31 H5         -1.2024   -1.7713   -0.0312 H         1 <0>         0.0425
     32 H6          0.5555   -0.1840   -0.8119 H         1 <0>         0.0383
     33 H7         -0.2255    1.1163    0.1195 H         1 <0>         0.1156
     34 H8         -0.0425    1.0942    2.6814 H         1 <0>         0.1107
     35 H9         -1.1225   -0.3047    2.4679 H         1 <0>         0.0537
     36 H10         1.6065   -0.4844    3.8142 H         1 <0>         0.0639
     37 H11         0.0890   -0.2220    4.7079 H         1 <0>         0.0621
     38 H12         0.5289   -5.3156    3.7426 H         1 <0>         0.1254
     39 H13         1.0261   -7.3668    2.4758 H         1 <0>         0.1108
     40 H14         1.6126   -7.2943    0.1196 H         1 <0>         0.1134
     41 H15         1.7435   -5.1600   -1.1187 H         1 <0>         0.1214
     42 H16         0.9324   -3.9415    4.7653 H         1 <0>         0.0732
     43 H17         2.1213   -2.6173    4.7263 H         1 <0>         0.0720
     44 H18         1.9742   -0.7688    6.2965 H         1 <0>         0.1233
     45 H19         1.2166   -0.0232    8.5177 H         1 <0>         0.1193
     46 H20        -0.5799   -1.2425    9.6791 H         1 <0>         0.1162
     47 H21        -1.6196   -3.2068    8.6191 H         1 <0>         0.1168
     48 H22        -0.8678   -3.9474    6.3943 H         1 <0>         0.1184
     49 H23         2.6403   -0.1237    2.2257 H         1 <0>         0.0613
     50 H24         2.6362   -0.0387    0.4477 H         1 <0>         0.0508
@<TRIPOS>BOND
     1    1    2 1
     2    1   29 1
     3    1   30 1
     4    1   31 1
     5    2    3 1
     6    2   32 1
     7    2   33 1
     8    3    9 1
     9    3    4 1
    10    3   25 1
    11    4    5 1
    12    4   34 1
    13    4   35 1
    14    5    6 1
    15    5   36 1
    16    5   37 1
    17    6    7 1
    18    6    8 1
    19    6   18 1
    20    8   13 1
    21    8    9 2
    22    9   10 1
    23   10   11 1
    24   10   12 1
    25   12   17 ar
    26   12   13 ar
    27   13   14 ar
    28   14   15 ar
    29   14   38 1
    30   15   16 ar
    31   15   39 1
    32   16   17 ar
    33   16   40 1
    34   17   41 1
    35   18   19 1
    36   18   42 1
    37   18   43 1
    38   19   24 ar
    39   19   20 ar
    40   20   21 ar
    41   20   44 1
    42   21   22 ar
    43   21   45 1
    44   22   23 ar
    45   22   46 1
    46   23   24 ar
    47   23   47 1
    48   24   48 1
    49   25   26 1
    50   25   49 1
    51   25   50 1
    52   26   27 2
    53   26   28 1
@<TRIPOS>MOLECULE
CHEMBL205080
   42    44     0     0     0
SMALL
USER_CHARGES

@<TRIPOS>ATOM
      1 C1         -0.0034    1.4249    0.0178 C.3       1 <0>         0.0215
      2 O1          0.0028   -0.0040    0.0024 O.3       1 <0>        -0.3034
      3 C2          0.6044   -0.6054   -1.0527 C.ar      1 <0>         0.1995
      4 C3          1.1787    0.1635   -2.0441 C.ar      1 <0>        -0.2533
      5 C4          1.8029   -0.4103   -3.1373 C.ar      1 <0>         0.0058
      6 C5          1.8704   -1.7943   -3.2711 C.ar      1 <0>        -0.2051
      7 C6          1.2701   -2.6338   -2.2351 C.ar      1 <0>         0.0276
      8 C7          0.6446   -2.0141   -1.1274 C.ar      1 <0>        -0.0873
      9 C8          0.0707   -2.8140   -0.1269 C.ar      1 <0>        -0.0790
     10 C9          0.1285   -4.1711   -0.2330 C.ar      1 <0>        -0.1289
     11 C10         0.7495   -4.7785   -1.3209 C.ar      1 <0>        -0.0886
     12 C11         1.3067   -4.0306   -2.3161 C.ar      1 <0>        -0.1314
     13 C12         2.5342   -2.4022   -4.4354 C.2       1 <0>         0.5152
     14 O2          2.6788   -3.6106   -4.4920 O.2       1 <0>        -0.4318
     15 C13         3.0101   -1.5734   -5.5018 C.1       1 <0>        -0.1860
     16 C14         3.4002   -0.8939   -6.3760 C.1       1 <0>        -0.0538
     17 C15         3.8761   -0.0651   -7.4425 C.ar      1 <0>         0.0505
     18 C16         3.7172    1.3232   -7.3785 C.ar      1 <0>        -0.1061
     19 C17         4.1781    2.1143   -8.4094 C.ar      1 <0>        -0.0242
     20 C18         4.7963    1.5382   -9.5056 C.ar      1 <0>        -0.6472
     21 C19         4.9574    0.1653   -9.5764 C.ar      1 <0>        -0.0231
     22 C20         4.5076   -0.6391   -8.5508 C.ar      1 <0>        -0.1044
     23 S1          5.3808    2.5579  -10.8183 S.o2      1 <0>         2.4993
     24 O3          5.3679    1.7172  -11.9639 O.2       1 <0>        -0.9331
     25 O4          4.5662    3.7210  -10.7642 O.2       1 <0>        -0.9336
     26 C21         7.0882    2.9692  -10.3643 C.3       1 <0>        -0.6492
     27 H1          1.0226    1.7927    0.0169 H         1 <0>         0.0629
     28 H2         -0.5230    1.7954   -0.8659 H         1 <0>         0.0631
     29 H3         -0.5147    1.7764    0.9139 H         1 <0>         0.1077
     30 H4          1.1396    1.2399   -1.9649 H         1 <0>         0.1381
     31 H5          2.2420    0.2219   -3.8949 H         1 <0>         0.1336
     32 H6         -0.4139   -2.3561    0.7228 H         1 <0>         0.1354
     33 H7         -0.3134   -4.7846    0.5381 H         1 <0>         0.1285
     34 H8          0.7826   -5.8562   -1.3821 H         1 <0>         0.1295
     35 H9          1.7852   -4.5136   -3.1552 H         1 <0>         0.1625
     36 H10         3.2343    1.7741   -6.5241 H         1 <0>         0.1416
     37 H11         4.0561    3.1863   -8.3616 H         1 <0>         0.1518
     38 H12         5.4408   -0.2767  -10.4351 H         1 <0>         0.1521
     39 H13         4.6380   -1.7098   -8.6054 H         1 <0>         0.1428
     40 H14         7.6714    2.0526  -10.2755 H         1 <0>         0.1327
     41 H15         7.5257    3.6050  -11.1340 H         1 <0>         0.1354
     42 H16         7.0935    3.4971   -9.4107 H         1 <0>         0.1325
@<TRIPOS>BOND
     1    1    2 1
     2    1   27 1
     3    1   28 1
     4    1   29 1
     5    2    3 1
     6    3    8 ar
     7    3    4 ar
     8    4    5 ar
     9    4   30 1
    10    5    6 ar
    11    5   31 1
    12    6    7 ar
    13    6   13 1
    14    7   12 ar
    15    7    8 ar
    16    8    9 ar
    17    9   10 ar
    18    9   32 1
    19   10   11 ar
    20   10   33 1
    21   11   12 ar
    22   11   34 1
    23   12   35 1
    24   13   14 2
    25   13   15 1
    26   15   16 3
    27   16   17 1
    28   17   22 ar
    29   17   18 ar
    30   18   19 ar
    31   18   36 1
    32   19   20 ar
    33   19   37 1
    34   20   21 ar
    35   20   23 1
    36   21   22 ar
    37   21   38 1
    38   22   39 1
    39   23   24 2
    40   23   25 2
    41   23   26 1
    42   26   40 1
    43   26   41 1
    44   26   42 1
@<TRIPOS>MOLECULE
CHEMBL326254
   41    43     0     0     0
SMALL
USER_CHARGES

@<TRIPOS>ATOM
      1 C1         -0.0689    1.0356    0.8417 C.3       1 <0>        -0.1542
      2 C2          0.0660   -0.4324    0.4325 C.3       1 <0>         0.1358
      3 C3          0.8011   -0.5382   -0.8832 C.2       1 <0>        -0.0459
      4 C4          1.9197   -1.2608   -0.6422 C.2       1 <0>         0.0047
      5 C5          1.9432   -1.6295    0.7750 C.2       1 <0>         0.5035
      6 O1          2.8175   -2.2820    1.3120 O.2       1 <0>        -0.4289
      7 O2          0.8537   -1.1397    1.3948 O.3       1 <0>        -0.2935
      8 O3          2.8645   -1.5897   -1.5625 O.3       1 <0>        -0.1902
      9 C6          4.1040   -1.0632   -1.4175 C.ar      1 <0>         0.4932
     10 N1          4.3221   -0.1809   -0.4554 N.ar      1 <0>        -0.5575
     11 C7          5.5206    0.3528   -0.2860 C.ar      1 <0>         0.1893
     12 C8          6.5532   -0.0228   -1.1308 C.ar      1 <0>        -0.2560
     13 C9          6.2892   -0.9492   -2.1275 C.ar      1 <0>         0.1887
     14 N2          5.0687   -1.4475   -2.2378 N.ar      1 <0>        -0.5141
     15 C10         0.3827    0.0321   -2.1734 C.ar      1 <0>         0.0071
     16 C11         0.3501    1.4189   -2.3515 C.ar      1 <0>        -0.1165
     17 C12        -0.0427    1.9456   -3.5638 C.ar      1 <0>        -0.0207
     18 C13        -0.4046    1.1057   -4.6026 C.ar      1 <0>        -0.6507
     19 C14        -0.3750   -0.2678   -4.4343 C.ar      1 <0>        -0.0179
     20 C15         0.0210   -0.8100   -3.2299 C.ar      1 <0>        -0.1069
     21 S1         -0.9062    1.7886   -6.1475 S.o2      1 <0>         2.4987
     22 O4         -1.7519    0.8020   -6.7226 O.2       1 <0>        -0.9329
     23 O5         -1.4107    3.0779   -5.8274 O.2       1 <0>        -0.9338
     24 C16         0.6241    1.9378   -7.1101 C.3       1 <0>        -0.6498
     25 C17        -1.3183   -1.0732    0.3144 C.3       1 <0>        -0.1537
     26 H1          0.9219    1.4827    0.9229 H         1 <0>         0.0744
     27 H2         -0.6485    1.5707    0.0895 H         1 <0>         0.0890
     28 H3         -0.5763    1.0993    1.8043 H         1 <0>         0.0893
     29 H4          5.6923    1.0726    0.5007 H         1 <0>         0.1769
     30 H5          7.5414    0.3973   -1.0154 H         1 <0>         0.1580
     31 H6          7.0712   -1.2635   -2.8027 H         1 <0>         0.1836
     32 H7          0.6315    2.0756   -1.5416 H         1 <0>         0.1403
     33 H8         -0.0684    3.0162   -3.7029 H         1 <0>         0.1504
     34 H9         -0.6588   -0.9166   -5.2497 H         1 <0>         0.1513
     35 H10         0.0479   -1.8820   -3.1015 H         1 <0>         0.1405
     36 H11         1.0743    0.9526   -7.2319 H         1 <0>         0.1328
     37 H12         0.3974    2.3573   -8.0902 H         1 <0>         0.1357
     38 H13         1.3202    2.5931   -6.5866 H         1 <0>         0.1317
     39 H14        -1.8965   -0.5512   -0.4480 H         1 <0>         0.0884
     40 H15        -1.2109   -2.1213    0.0349 H         1 <0>         0.0726
     41 H16        -1.8337   -1.0037    1.2724 H         1 <0>         0.0874
@<TRIPOS>BOND
     1    1    2 1
     2    1   26 1
     3    1   27 1
     4    1   28 1
     5    2    7 1
     6    2    3 1
     7    2   25 1
     8    3    4 2
     9    3   15 1
    10    4    5 1
    11    4    8 1
    12    5    6 2
    13    5    7 1
    14    8    9 1
    15    9   14 ar
    16    9   10 ar
    17   10   11 ar
    18   11   12 ar
    19   11   29 1
    20   12   13 ar
    21   12   30 1
    22   13   14 ar
    23   13   31 1
    24   15   20 ar
    25   15   16 ar
    26   16   17 ar
    27   16   32 1
    28   17   18 ar
    29   17   33 1
    30   18   19 ar
    31   18   21 1
    32   19   20 ar
    33   19   34 1
    34   20   35 1
    35   21   22 2
    36   21   23 2
    37   21   24 1
    38   24   36 1
    39   24   37 1
    40   24   38 1
    41   25   39 1
    42   25   40 1
    43   25   41 1
@<TRIPOS>MOLECULE
CHEMBL561005
   49    51     0     0     0
SMALL
USER_CHARGES

@<TRIPOS>ATOM
      1 C1         -0.0225    1.8097    0.0120 C.3       1 <0>        -0.6492
      2 S1          0.0021   -0.0041    0.0020 S.o2      1 <0>         2.4983
      3 O1          0.8352   -0.4880    1.0465 O.2       1 <0>        -0.9330
      4 O2         -1.3147   -0.5105   -0.1678 O.2       1 <0>        -0.9325
      5 C2          0.8454   -0.4373   -1.4831 C.ar      1 <0>        -0.6401
      6 C3          0.1315   -0.6121   -2.6550 C.ar      1 <0>        -0.0286
      7 C4          0.7867   -0.9519   -3.8211 C.ar      1 <0>        -0.0849
      8 C5          2.1705   -1.1185   -3.8166 C.ar      1 <0>        -0.0139
      9 C6          2.8847   -0.9407   -2.6330 C.ar      1 <0>        -0.1058
     10 C7          2.2196   -0.5958   -1.4740 C.ar      1 <0>        -0.0270
     11 C8          2.8802   -1.4841   -5.0665 C.ar      1 <0>         0.2636
     12 C9          4.2667   -1.6589   -5.0701 C.ar      1 <0>        -0.2117
     13 C10         4.8839   -2.0002   -6.2600 C.ar      1 <0>         0.1370
     14 N1          4.1486   -2.1498   -7.3509 N.ar      1 <0>        -0.5296
     15 C11         2.8369   -1.9778   -7.3175 C.ar      1 <0>         0.5264
     16 N2          2.2059   -1.6564   -6.2012 N.ar      1 <0>        -0.4948
     17 O3          2.1214   -2.1400   -8.4562 O.3       1 <0>        -0.2766
     18 C12         2.8487   -2.4920   -9.6348 C.3       1 <0>         0.0994
     19 C13         3.3428   -1.2020  -10.3209 C.3       1 <0>        -0.1282
     20 C14         4.4947   -1.5520  -11.2236 C.3       1 <0>        -0.1159
     21 C15         4.0481   -1.8119  -12.6750 C.3       1 <0>        -0.1194
     22 C16         2.7489   -2.6354  -12.7620 C.3       1 <0>        -0.1243
     23 C17         2.7172   -3.7675  -11.7712 C.3       1 <0>        -0.1071
     24 C18         1.9886   -3.2859  -10.4998 C.3       1 <0>        -0.1275
     25 C19         6.3767   -2.1990   -6.3143 C.3       1 <0>         0.5258
     26 F1          6.6788   -3.5387   -6.0475 F         1 <0>        -0.1616
     27 F2          6.8464   -1.8598   -7.5877 F         1 <0>        -0.1564
     28 F3          6.9909   -1.3831   -5.3581 F         1 <0>        -0.1624
     29 H1          1.0001    2.1870    0.0043 H         1 <0>         0.1328
     30 H2         -0.5497    2.1708   -0.8711 H         1 <0>         0.1329
     31 H3         -0.5327    2.1613    0.9088 H         1 <0>         0.1356
     32 H4         -0.9407   -0.4828   -2.6573 H         1 <0>         0.1515
     33 H5          0.2282   -1.0889   -4.7353 H         1 <0>         0.1508
     34 H6          3.9571   -1.0684   -2.6238 H         1 <0>         0.1426
     35 H7          2.7724   -0.4538   -0.5572 H         1 <0>         0.1527
     36 H8          4.8426   -1.5303   -4.1656 H         1 <0>         0.1695
     37 H9          3.7130   -3.0919   -9.3498 H         1 <0>         0.0914
     38 H10         2.5348   -0.7679  -10.9097 H         1 <0>         0.0767
     39 H11         3.6731   -0.4890   -9.5654 H         1 <0>         0.0664
     40 H12         5.2105   -0.7300  -11.2167 H         1 <0>         0.0659
     41 H13         4.9844   -2.4469  -10.8397 H         1 <0>         0.0655
     42 H14         3.8913   -0.8543  -13.1714 H         1 <0>         0.0610
     43 H15         4.8406   -2.3496  -13.1957 H         1 <0>         0.0624
     44 H16         1.9009   -1.9772  -12.5726 H         1 <0>         0.0633
     45 H17         2.6574   -3.0446  -13.7681 H         1 <0>         0.0638
     46 H18         2.1829   -4.6149  -12.2006 H         1 <0>         0.0749
     47 H19         3.7359   -4.0626  -11.5198 H         1 <0>         0.0705
     48 H20         1.6353   -4.1550   -9.9449 H         1 <0>         0.0725
     49 H21         1.1290   -2.6830  -10.7925 H         1 <0>         0.0772
@<TRIPOS>BOND
     1    1    2 1
     2    1   29 1
     3    1   30 1
     4    1   31 1
     5    2    3 2
     6    2    4 2
     7    2    5 1
     8    5   10 ar
     9    5    6 ar
    10    6    7 ar
    11    6   32 1
    12    7    8 ar
    13    7   33 1
    14    8    9 ar
    15    8   11 1
    16    9   10 ar
    17    9   34 1
    18   10   35 1
    19   11   16 ar
    20   11   12 ar
    21   12   13 ar
    22   12   36 1
    23   13   14 ar
    24   13   25 1
    25   14   15 ar
    26   15   16 ar
    27   15   17 1
    28   17   18 1
    29   18   24 1
    30   18   19 1
    31   18   37 1
    32   19   20 1
    33   19   38 1
    34   19   39 1
    35   20   21 1
    36   20   40 1
    37   20   41 1
    38   21   22 1
    39   21   42 1
    40   21   43 1
    41   22   23 1
    42   22   44 1
    43   22   45 1
    44   23   24 1
    45   23   46 1
    46   23   47 1
    47   24   48 1
    48   24   49 1
    49   25   26 1
    50   25   27 1
    51   25   28 1
@<TRIPOS>MOLECULE
CHEMBL327900
   49    52     0     0     0
SMALL
USER_CHARGES

@<TRIPOS>ATOM
      1 C1         -0.0225    1.8097    0.0120 C.3       1 <0>        -0.6508
      2 S1          0.0021   -0.0041    0.0020 S.o2      1 <0>         2.4987
      3 O1          0.8352   -0.4880    1.0465 O.2       1 <0>        -0.9372
      4 O2         -1.3147   -0.5105   -0.1678 O.2       1 <0>        -0.9371
      5 C2          0.8454   -0.4373   -1.4831 C.ar      1 <0>        -0.6609
      6 C3          0.1305   -0.6120   -2.6550 C.ar      1 <0>        -0.0204
      7 C4          0.7837   -0.9516   -3.8212 C.ar      1 <0>        -0.1232
      8 C5          2.1711   -1.1188   -3.8176 C.ar      1 <0>         0.0256
      9 C6          2.8864   -0.9403   -2.6305 C.ar      1 <0>        -0.1288
     10 C7          2.2201   -0.5957   -1.4731 C.ar      1 <0>        -0.0211
     11 C8          2.8764   -1.4822   -5.0597 C.2       1 <0>        -0.0972
     12 C9          2.9588   -0.7026   -6.1473 C.2       1 <0>        -0.0720
     13 C10         3.7574   -1.3901   -7.2342 C.3       1 <0>        -0.0748
     14 C11         4.4890   -2.5313   -6.5158 C.3       1 <0>        -0.0625
     15 C12         3.6143   -2.7849   -5.2830 C.3       1 <0>        -0.0712
     16 C13         5.9074   -2.1181   -6.1118 C.3       1 <0>        -0.1101
     17 C14         6.7329   -3.4231   -6.2629 C.3       1 <0>        -0.1265
     18 C15         6.1073   -4.0850   -7.5170 C.3       1 <0>        -0.1259
     19 C16         4.5979   -3.7737   -7.3978 C.3       1 <0>        -0.1125
     20 C17         2.3557    0.6367   -6.2681 C.ar      1 <0>        -0.0486
     21 C18         1.3283    0.8631   -7.1881 C.ar      1 <0>        -0.0767
     22 C19         0.7681    2.1182   -7.2964 C.ar      1 <0>        -0.1509
     23 C20         1.2219    3.1543   -6.4953 C.ar      1 <0>         0.1002
     24 C21         2.2405    2.9360   -5.5809 C.ar      1 <0>        -0.1517
     25 C22         2.8048    1.6840   -5.4591 C.ar      1 <0>        -0.0732
     26 F1          0.6693    4.3821   -6.6064 F         1 <0>        -0.1384
     27 H1          1.0001    2.1870    0.0043 H         1 <0>         0.1314
     28 H2         -0.5497    2.1708   -0.8711 H         1 <0>         0.1313
     29 H3         -0.5327    2.1613    0.9088 H         1 <0>         0.1337
     30 H4         -0.9417   -0.4824   -2.6563 H         1 <0>         0.1427
     31 H5          0.2244   -1.0883   -4.7349 H         1 <0>         0.1314
     32 H6          3.9587   -1.0682   -2.6202 H         1 <0>         0.1336
     33 H7          2.7721   -0.4534   -0.5558 H         1 <0>         0.1436
     34 H8          3.0921   -1.7881   -8.0004 H         1 <0>         0.0831
     35 H9          4.4742   -0.6972   -7.6749 H         1 <0>         0.0786
     36 H10         4.2341   -3.0235   -4.4186 H         1 <0>         0.0782
     37 H11         2.9089   -3.5922   -5.4801 H         1 <0>         0.0826
     38 H12         6.2863   -1.3461   -6.7815 H         1 <0>         0.0693
     39 H13         5.9252   -1.7718   -5.0784 H         1 <0>         0.0671
     40 H14         7.7857   -3.1963   -6.4310 H         1 <0>         0.0663
     41 H15         6.6096   -4.0611   -5.3879 H         1 <0>         0.0667
     42 H16         6.5171   -3.6438   -8.4256 H         1 <0>         0.0656
     43 H17         6.2768   -5.1616   -7.5047 H         1 <0>         0.0654
     44 H18         4.0781   -4.6109   -6.9321 H         1 <0>         0.0686
     45 H19         4.1777   -3.5721   -8.3832 H         1 <0>         0.0684
     46 H20         0.9742    0.0566   -7.8131 H         1 <0>         0.1341
     47 H21        -0.0256    2.2945   -8.0073 H         1 <0>         0.1380
     48 H22         2.5898    3.7473   -4.9594 H         1 <0>         0.1367
     49 H23         3.5951    1.5139   -4.7430 H         1 <0>         0.1311
@<TRIPOS>BOND
     1    1    2 1
     2    1   27 1
     3    1   28 1
     4    1   29 1
     5    2    3 2
     6    2    4 2
     7    2    5 1
     8    5   10 ar
     9    5    6 ar
    10    6    7 ar
    11    6   30 1
    12    7    8 ar
    13    7   31 1
    14    8    9 ar
    15    8   11 1
    16    9   10 ar
    17    9   32 1
    18   10   33 1
    19   11   15 1
    20   11   12 2
    21   12   13 1
    22   12   20 1
    23   13   14 1
    24   13   34 1
    25   13   35 1
    26   14   19 1
    27   14   15 1
    28   14   16 1
    29   15   36 1
    30   15   37 1
    31   16   17 1
    32   16   38 1
    33   16   39 1
    34   17   18 1
    35   17   40 1
    36   17   41 1
    37   18   19 1
    38   18   42 1
    39   18   43 1
    40   19   44 1
    41   19   45 1
    42   20   25 ar
    43   20   21 ar
    44   21   22 ar
    45   21   46 1
    46   22   23 ar
    47   22   47 1
    48   23   24 ar
    49   23   26 1
    50   24   25 ar
    51   24   48 1
    52   25   49 1
@<TRIPOS>MOLECULE
CHEMBL186821
   50    53     0     0     0
SMALL
USER_CHARGES

@<TRIPOS>ATOM
      1 C1         -0.0173    1.4248    0.0099 C.3       1 <0>         0.0221
      2 O1          0.0021   -0.0041    0.0020 O.3       1 <0>        -0.3094
      3 C2          0.6052   -0.6065   -1.0547 C.ar      1 <0>         0.1628
      4 C3          1.1724    0.1657   -2.0614 C.ar      1 <0>        -0.2142
      5 C4          1.7856   -0.4410   -3.1349 C.ar      1 <0>        -0.0291
      6 C5          1.8370   -1.8362   -3.2110 C.ar      1 <0>        -0.1242
      7 C6          1.2651   -2.6090   -2.1960 C.ar      1 <0>        -0.0352
      8 C7          0.6586   -1.9936   -1.1235 C.ar      1 <0>        -0.1549
      9 C8          2.4920   -2.4904   -4.3585 C.2       1 <0>         0.2232
     10 C9          2.5285   -3.8523   -4.4201 C.2       1 <0>        -0.2446
     11 C10         3.1512   -4.4863   -5.5110 C.2       1 <0>         0.0894
     12 C11         3.7224   -3.6889   -6.5143 C.2       1 <0>        -0.2056
     13 C12         3.6494   -2.2833   -6.3888 C.2       1 <0>         0.5120
     14 O2          4.1381   -1.5695   -7.2474 O.2       1 <0>        -0.4550
     15 O3          3.0369   -1.7324   -5.3267 O.3       1 <0>        -0.2563
     16 C13         4.3882   -4.3074   -7.6799 C.ar      1 <0>         0.0244
     17 C14         5.5503   -5.0734   -7.5225 C.ar      1 <0>        -0.1545
     18 C15         6.1381   -5.6322   -8.6371 C.ar      1 <0>         0.1011
     19 N1          5.6206   -5.4534   -9.8381 N.ar      1 <0>        -0.4807
     20 C16         4.5273   -4.7393  -10.0309 C.ar      1 <0>         0.1037
     21 C17         3.8714   -4.1488   -8.9720 C.ar      1 <0>        -0.1470
     22 C18         3.2030   -5.9629   -5.5981 C.ar      1 <0>        -0.0109
     23 C19         2.5339   -6.6280   -6.6262 C.ar      1 <0>        -0.1094
     24 C20         2.5860   -8.0046   -6.7018 C.ar      1 <0>        -0.0183
     25 C21         3.2994   -8.7255   -5.7607 C.ar      1 <0>        -0.6502
     26 C22         3.9646   -8.0720   -4.7385 C.ar      1 <0>        -0.0195
     27 C23         3.9258   -6.6954   -4.6557 C.ar      1 <0>        -0.1161
     28 S1          3.3605  -10.4834   -5.8640 S.o2      1 <0>         2.4972
     29 O4          3.5895  -10.9173   -4.5304 O.2       1 <0>        -0.9344
     30 O5          2.1707  -10.8479   -6.5502 O.2       1 <0>        -0.9342
     31 C24         4.8101  -10.8397   -6.8946 C.3       1 <0>        -0.6493
     32 H1          1.0053    1.8021    0.0021 H         1 <0>         0.0609
     33 H2         -0.5445    1.7859   -0.8732 H         1 <0>         0.0609
     34 H3         -0.5275    1.7763    0.9067 H         1 <0>         0.1064
     35 H4          1.1318    1.2433   -2.0019 H         1 <0>         0.1398
     36 H5          2.2258    0.1599   -3.9169 H         1 <0>         0.1404
     37 H6          1.3025   -3.6870   -2.2507 H         1 <0>         0.1430
     38 H7          0.2201   -2.5897   -0.3369 H         1 <0>         0.1446
     39 H8          2.0813   -4.4423   -3.6338 H         1 <0>         0.1640
     40 H9          5.9794   -5.2235   -6.5429 H         1 <0>         0.1326
     41 H10         7.0345   -6.2242   -8.5261 H         1 <0>         0.1575
     42 H11         4.1390   -4.6195  -11.0316 H         1 <0>         0.1595
     43 H12         2.9750   -3.5694   -9.1367 H         1 <0>         0.1345
     44 H13         1.9762   -6.0664   -7.3610 H         1 <0>         0.1354
     45 H14         2.0686   -8.5205   -7.4971 H         1 <0>         0.1480
     46 H15         4.5194   -8.6405   -4.0068 H         1 <0>         0.1494
     47 H16         4.4494   -6.1862   -3.8602 H         1 <0>         0.1396
     48 H17         5.7026  -10.4325   -6.4195 H         1 <0>         0.1327
     49 H18         4.9190  -11.9183   -7.0081 H         1 <0>         0.1354
     50 H19         4.6799  -10.3825   -7.8754 H         1 <0>         0.1327
@<TRIPOS>BOND
     1    1    2 1
     2    1   32 1
     3    1   33 1
     4    1   34 1
     5    2    3 1
     6    3    8 ar
     7    3    4 ar
     8    4    5 ar
     9    4   35 1
    10    5    6 ar
    11    5   36 1
    12    6    7 ar
    13    6    9 1
    14    7    8 ar
    15    7   37 1
    16    8   38 1
    17    9   15 1
    18    9   10 2
    19   10   11 1
    20   10   39 1
    21   11   12 2
    22   11   22 1
    23   12   13 1
    24   12   16 1
    25   13   14 2
    26   13   15 1
    27   16   21 ar
    28   16   17 ar
    29   17   18 ar
    30   17   40 1
    31   18   19 ar
    32   18   41 1
    33   19   20 ar
    34   20   21 ar
    35   20   42 1
    36   21   43 1
    37   22   27 ar
    38   22   23 ar
    39   23   24 ar
    40   23   44 1
    41   24   25 ar
    42   24   45 1
    43   25   26 ar
    44   25   28 1
    45   26   27 ar
    46   26   46 1
    47   27   47 1
    48   28   29 2
    49   28   30 2
    50   28   31 1
    51   31   48 1
    52   31   49 1
    53   31   50 1
@<TRIPOS>MOLECULE
CHEMBL8968
   29    31     0     0     0
SMALL
USER_CHARGES

@<TRIPOS>ATOM
      1 C1         -0.0184    1.5028    0.0103 C.3       1 <0>        -0.1182
      2 C2          0.0021   -0.0041    0.0020 C.ar      1 <0>        -0.0623
      3 C3          0.0057   -0.6889   -1.1977 C.ar      1 <0>        -0.1122
      4 C4          0.0240   -2.0713   -1.2061 C.ar      1 <0>        -0.0974
      5 C5          0.0391   -2.7727   -0.0143 C.ar      1 <0>        -0.1154
      6 C6          0.0360   -2.0937    1.1883 C.ar      1 <0>        -0.0931
      7 C7          0.0230   -0.7052    1.1999 C.ar      1 <0>         0.1105
      8 N1          0.0252   -0.0132    2.4186 N.am      1 <0>        -0.5313
      9 C8         -1.0826    0.3425    3.0939 C.2       1 <0>         0.5739
     10 O1         -2.2254    0.1187    2.7492 O.2       1 <0>        -0.4499
     11 C9         -0.6761    1.0514    4.3256 C.ar      1 <0>        -0.1392
     12 C10        -1.3631    1.6329    5.3790 C.ar      1 <0>        -0.0426
     13 C11        -0.6587    2.2357    6.4095 C.ar      1 <0>        -0.0933
     14 C12         0.7232    2.2609    6.3927 C.ar      1 <0>        -0.0932
     15 C13         1.4240    1.6837    5.3452 C.ar      1 <0>        -0.0426
     16 C14         0.7333    1.0767    4.3087 C.ar      1 <0>        -0.1387
     17 C15         1.1354    0.3777    3.0700 C.2       1 <0>         0.5748
     18 O2          2.2770    0.1901    2.7006 O.2       1 <0>        -0.4501
     19 H1          1.0042    1.8801    0.0026 H         1 <0>         0.0774
     20 H2         -0.5455    1.8639   -0.8728 H         1 <0>         0.0777
     21 H3         -0.5286    1.8543    0.9071 H         1 <0>         0.0593
     22 H4         -0.0060   -0.1439   -2.1300 H         1 <0>         0.1338
     23 H5          0.0261   -2.6045   -2.1453 H         1 <0>         0.1324
     24 H6          0.0529   -3.8526   -0.0240 H         1 <0>         0.1338
     25 H7          0.0474   -2.6420    2.1187 H         1 <0>         0.1274
     26 H8         -2.4429    1.6168    5.3970 H         1 <0>         0.1443
     27 H9         -1.1934    2.6892    7.2310 H         1 <0>         0.1450
     28 H10         1.2607    2.7340    7.2012 H         1 <0>         0.1450
     29 H11         2.5037    1.7071    5.3371 H         1 <0>         0.1443
@<TRIPOS>BOND
     1    1    2 1
     2    1   19 1
     3    1   20 1
     4    1   21 1
     5    2    7 ar
     6    2    3 ar
     7    3    4 ar
     8    3   22 1
     9    4    5 ar
    10    4   23 1
    11    5    6 ar
    12    5   24 1
    13    6    7 ar
    14    6   25 1
    15    7    8 1
    16    8   17 am
    17    8    9 am
    18    9   10 2
    19    9   11 1
    20   11   16 ar
    21   11   12 ar
    22   12   13 ar
    23   12   26 1
    24   13   14 ar
    25   13   27 1
    26   14   15 ar
    27   14   28 1
    28   15   16 ar
    29   15   29 1
    30   16   17 1
    31   17   18 2
@<TRIPOS>MOLECULE
CHEMBL8998
   32    34     0     0     0
SMALL
USER_CHARGES

@<TRIPOS>ATOM
      1 C1         -0.0167    1.3819    0.0096 C.ar      1 <0>        -0.0922
      2 C2          1.1651    2.0988    0.0022 C.ar      1 <0>        -0.0940
      3 C3          2.3854    1.4416   -0.0134 C.ar      1 <0>        -0.0418
      4 C4          2.4197    0.0564   -0.0211 C.ar      1 <0>        -0.1432
      5 C5          1.2146   -0.6746   -0.0131 C.ar      1 <0>        -0.1399
      6 C6          0.0021   -0.0041    0.0020 C.ar      1 <0>        -0.0427
      7 C7          1.6061   -2.0999   -0.0250 C.2       1 <0>         0.5715
      8 O1          0.8430   -3.0446   -0.0230 O.2       1 <0>        -0.4459
      9 N1          2.9491   -2.1754   -0.0390 N.am      1 <0>        -0.5759
     10 C8          3.5027   -0.9494   -0.0377 C.2       1 <0>         0.5770
     11 O2          4.6932   -0.7091   -0.0487 O.2       1 <0>        -0.4592
     12 C9          3.7088   -3.4280   -0.0532 C.3       1 <0>         0.0954
     13 C10         3.9587   -3.8565   -1.5006 C.3       1 <0>         0.0956
     14 N2          4.7184   -5.1090   -1.5148 N.am      1 <0>        -0.5328
     15 C11         6.0863   -5.0720   -1.5227 C.2       1 <0>         0.1709
     16 C12         6.7863   -6.2265   -1.5354 C.2       1 <0>        -0.2878
     17 C13         6.0859   -7.4568   -1.5402 C.2       1 <0>         0.5479
     18 O3          6.6955   -8.5110   -1.5512 O.2       1 <0>        -0.5108
     19 N3          4.7376   -7.4505   -1.5321 N.am      1 <0>        -0.6586
     20 H1          4.2506   -8.2894   -1.5354 H         1 <0>         0.4324
     21 C14         4.0647   -6.2849   -1.5144 C.2       1 <0>         0.6941
     22 O4          2.8490   -6.2948   -1.5021 O.2       1 <0>        -0.5283
     23 H2         -0.9613    1.9053    0.0260 H         1 <0>         0.1448
     24 H3          1.1375    3.1784    0.0082 H         1 <0>         0.1448
     25 H4          3.3057    2.0069   -0.0199 H         1 <0>         0.1441
     26 H5         -0.9244   -0.5590    0.0082 H         1 <0>         0.1443
     27 H6          4.6634   -3.2797    0.4518 H         1 <0>         0.1061
     28 H7          3.1415   -4.2029    0.4623 H         1 <0>         0.1074
     29 H8          3.0042   -4.0047   -2.0056 H         1 <0>         0.1119
     30 H9          4.5261   -3.0815   -2.0161 H         1 <0>         0.1072
     31 H10         6.6034   -4.1239   -1.5192 H         1 <0>         0.1823
     32 H11         7.8662   -6.2115   -1.5421 H         1 <0>         0.1752
@<TRIPOS>BOND
     1    1    6 ar
     2    1    2 ar
     3    1   23 1
     4    2    3 ar
     5    2   24 1
     6    3    4 ar
     7    3   25 1
     8    4   10 1
     9    4    5 ar
    10    5    6 ar
    11    5    7 1
    12    6   26 1
    13    7    8 2
    14    7    9 am
    15    9   10 am
    16    9   12 1
    17   10   11 2
    18   12   13 1
    19   12   27 1
    20   12   28 1
    21   13   14 1
    22   13   29 1
    23   13   30 1
    24   14   21 am
    25   14   15 1
    26   15   16 2
    27   15   31 1
    28   16   17 1
    29   16   32 1
    30   17   18 2
    31   17   19 am
    32   19   20 1
    33   19   21 am
    34   21   22 2
@<TRIPOS>MOLECULE
CHEMBL83990
   38    40     0     0     0
SMALL
USER_CHARGES

@<TRIPOS>ATOM
      1 C1         -0.0178    1.4648    0.0101 C.3       1 <0>         0.0133
      2 N1          0.0021   -0.0041    0.0020 N.3       1 <0>        -0.3504
      3 C2          0.7062   -0.5275    1.1802 C.3       1 <0>         0.0157
      4 C3          0.5988   -2.0536    1.2023 C.3       1 <0>        -0.0779
      5 C4          1.3212   -2.5905    2.4110 C.ar      1 <0>        -0.0919
      6 C5          2.6667   -2.9118    2.3255 C.ar      1 <0>        -0.0786
      7 C6          3.3451   -3.4136    3.4194 C.ar      1 <0>        -0.1289
      8 C7          2.6721   -3.5941    4.6212 C.ar      1 <0>         0.1338
      9 C8          1.3257   -3.2551    4.7083 C.ar      1 <0>        -0.1783
     10 C9          0.6419   -2.7555    3.6015 C.ar      1 <0>        -0.0518
     11 C10         0.6746   -3.4127    6.0194 C.2       1 <0>         0.4498
     12 O1          0.1840   -2.4430    6.5647 O.2       1 <0>        -0.4295
     13 C11         0.6080   -4.7304    6.6818 C.ar      1 <0>        -0.1408
     14 C12        -0.6149   -5.0652    7.2888 C.ar      1 <0>        -0.0730
     15 C13        -0.7725   -6.2701    7.9321 C.ar      1 <0>        -0.1223
     16 C14         0.2869   -7.1598    7.9802 C.ar      1 <0>        -0.0890
     17 C15         1.4870   -6.8375    7.3865 C.ar      1 <0>        -0.1275
     18 C16         1.6679   -5.6211    6.7282 C.ar      1 <0>        -0.0782
     19 C17         3.0335   -5.4173    6.1272 C.3       1 <0>         0.1127
     20 O2          3.3001   -4.1069    5.6959 O.3       1 <0>        -0.3259
     21 O3          0.5971   -0.5136   -1.2336 O.3       1 <0>        -0.4347
     22 H1          1.0047    1.8421    0.0024 H         1 <0>         0.0396
     23 H2         -0.5450    1.8259   -0.8730 H         1 <0>         0.0831
     24 H3         -0.5280    1.8163    0.9069 H         1 <0>         0.0928
     25 H4          1.7560   -0.2377    1.1346 H         1 <0>         0.0518
     26 H5          0.2553   -0.1185    2.0844 H         1 <0>         0.0954
     27 H6         -0.4509   -2.3433    1.2479 H         1 <0>         0.0886
     28 H7          1.0497   -2.4626    0.2981 H         1 <0>         0.0776
     29 H8          3.1912   -2.7678    1.3925 H         1 <0>         0.1342
     30 H9          4.3926   -3.6645    3.3405 H         1 <0>         0.1408
     31 H10        -0.4060   -2.5043    3.6732 H         1 <0>         0.1362
     32 H11        -1.4393   -4.3685    7.2498 H         1 <0>         0.1316
     33 H12        -1.7150   -6.5203    8.3963 H         1 <0>         0.1345
     34 H13         0.1723   -8.1080    8.4843 H         1 <0>         0.1326
     35 H14         2.3053   -7.5409    7.4320 H         1 <0>         0.1319
     36 H15         3.7813   -5.6939    6.8704 H         1 <0>         0.1260
     37 H16         3.1376   -6.0879    5.2743 H         1 <0>         0.0758
     38 H17         0.6320   -1.4786   -1.2846 H         1 <0>         0.3807
@<TRIPOS>BOND
     1    1    2 1
     2    1   22 1
     3    1   23 1
     4    1   24 1
     5    2    3 1
     6    2   21 1
     7    3    4 1
     8    3   25 1
     9    3   26 1
    10    4    5 1
    11    4   27 1
    12    4   28 1
    13    5   10 ar
    14    5    6 ar
    15    6    7 ar
    16    6   29 1
    17    7    8 ar
    18    7   30 1
    19    8   20 1
    20    8    9 ar
    21    9   10 ar
    22    9   11 1
    23   10   31 1
    24   11   12 2
    25   11   13 1
    26   13   18 ar
    27   13   14 ar
    28   14   15 ar
    29   14   32 1
    30   15   16 ar
    31   15   33 1
    32   16   17 ar
    33   16   34 1
    34   17   18 ar
    35   17   35 1
    36   18   19 1
    37   19   20 1
    38   19   36 1
    39   19   37 1
    40   21   38 1
@<TRIPOS>MOLECULE
CHEMBL499068
   45    48     0     0     0
SMALL
USER_CHARGES

@<TRIPOS>ATOM
      1 C1         -0.0173    1.4248    0.0099 C.3       1 <0>         0.0261
      2 O1          0.0021   -0.0041    0.0020 O.3       1 <0>        -0.3173
      3 C2          0.6259   -0.6184    1.0416 C.ar      1 <0>         0.1299
      4 C3          1.2018    0.1418    2.0505 C.ar      1 <0>        -0.2059
      5 C4          1.8360   -0.4778    3.1065 C.ar      1 <0>        -0.0643
      6 C5          1.8980   -1.8709    3.1606 C.ar      1 <0>        -0.0513
      7 C6          1.3175   -2.6315    2.1449 C.ar      1 <0>        -0.0632
      8 C7          0.6805   -2.0047    1.0947 C.ar      1 <0>        -0.1495
      9 C8          2.5781   -2.5399    4.2923 C.2       1 <0>        -0.0932
     10 C9          4.0080   -2.4684    4.6254 C.ar      1 <0>        -0.0947
     11 C10         5.1000   -1.8162    4.0507 C.ar      1 <0>        -0.0652
     12 C11         6.3407   -1.9487    4.6081 C.ar      1 <0>        -0.1431
     13 C12         6.5232   -2.7277    5.7423 C.ar      1 <0>        -0.0915
     14 C13         5.4590   -3.3799    6.3254 C.ar      1 <0>        -0.1308
     15 C14         4.1864   -3.2588    5.7743 C.ar      1 <0>         0.1076
     16 N1          2.9588   -3.7791    6.1240 N.pl3     1 <0>        -0.5825
     17 H1          2.7982   -4.3616    6.8828 H         1 <0>         0.4184
     18 C15         1.9941   -3.3478    5.2446 C.2       1 <0>         0.1091
     19 C16         0.5611   -3.6972    5.3078 C.ar      1 <0>         0.0323
     20 C17        -0.4104   -2.7104    5.1252 C.ar      1 <0>        -0.1081
     21 C18        -1.7474   -3.0441    5.1851 C.ar      1 <0>        -0.0127
     22 C19        -2.1271   -4.3528    5.4259 C.ar      1 <0>        -0.6720
     23 C20        -1.1700   -5.3355    5.6077 C.ar      1 <0>        -0.0139
     24 C21         0.1706   -5.0171    5.5447 C.ar      1 <0>        -0.1310
     25 S1         -3.8374   -4.7697    5.5018 S.o2      1 <0>         2.7009
     26 O2         -3.9323   -5.9548    6.2801 O.2       1 <0>        -0.9619
     27 O3         -4.5313   -3.5773    5.8421 O.2       1 <0>        -0.9608
     28 N2         -4.3119   -5.1720    3.9671 N.pl3     1 <0>        -1.2491
     29 H2          1.0053    1.8021    0.0021 H         1 <0>         0.0564
     30 H3         -0.5445    1.7859   -0.8732 H         1 <0>         0.1012
     31 H4         -0.5275    1.7763    0.9067 H         1 <0>         0.0566
     32 H5          1.1534    1.2199    2.0079 H         1 <0>         0.1301
     33 H6          2.2844    0.1142    3.8906 H         1 <0>         0.1261
     34 H7          1.3634   -3.7099    2.1833 H         1 <0>         0.1266
     35 H8          0.2275   -2.5927    0.3103 H         1 <0>         0.1319
     36 H9          4.9648   -1.2088    3.1679 H         1 <0>         0.1230
     37 H10         7.1852   -1.4440    4.1626 H         1 <0>         0.1251
     38 H11         7.5094   -2.8237    6.1719 H         1 <0>         0.1280
     39 H12         5.6117   -3.9839    7.2076 H         1 <0>         0.1226
     40 H13        -0.1154   -1.6885    4.9379 H         1 <0>         0.1397
     41 H14        -2.4996   -2.2821    5.0441 H         1 <0>         0.1483
     42 H15        -1.4734   -6.3548    5.7956 H         1 <0>         0.1478
     43 H16         0.9165   -5.7859    5.6827 H         1 <0>         0.1346
     44 H17        -3.6719   -5.1449    3.2388 H         1 <0>         0.4175
     45 H18        -5.2299   -5.4347    3.7965 H         1 <0>         0.4222
@<TRIPOS>BOND
     1    1    2 1
     2    1   29 1
     3    1   30 1
     4    1   31 1
     5    2    3 1
     6    3    8 ar
     7    3    4 ar
     8    4    5 ar
     9    4   32 1
    10    5    6 ar
    11    5   33 1
    12    6    7 ar
    13    6    9 1
    14    7    8 ar
    15    7   34 1
    16    8   35 1
    17    9   18 2
    18    9   10 1
    19   10   15 ar
    20   10   11 ar
    21   11   12 ar
    22   11   36 1
    23   12   13 ar
    24   12   37 1
    25   13   14 ar
    26   13   38 1
    27   14   15 ar
    28   14   39 1
    29   15   16 1
    30   16   17 1
    31   16   18 1
    32   18   19 1
    33   19   24 ar
    34   19   20 ar
    35   20   21 ar
    36   20   40 1
    37   21   22 ar
    38   21   41 1
    39   22   23 ar
    40   22   25 1
    41   23   24 ar
    42   23   42 1
    43   24   43 1
    44   25   26 2
    45   25   27 2
    46   25   28 1
    47   28   44 1
    48   28   45 1
@<TRIPOS>MOLECULE
CHEMBL257491
   46    47     0     0     0
SMALL
USER_CHARGES

@<TRIPOS>ATOM
      1 C1         -0.0187    1.5258    0.0104 C.3       1 <0>        -0.1552
      2 C2          0.0021   -0.0041    0.0020 C.3       1 <0>        -0.1248
      3 C3         -1.4333   -0.5336    0.0129 C.3       1 <0>        -0.1176
      4 C4         -1.4126   -2.0635    0.0045 C.3       1 <0>        -0.1318
      5 C5         -2.8479   -2.5931    0.0153 C.3       1 <0>         0.1159
      6 N1         -2.8281   -4.0579    0.0073 N.pl3     1 <0>        -0.7003
      7 C6         -4.0184   -4.7669    0.0148 C.ar      1 <0>         0.4536
      8 C7         -5.2437   -4.0951    0.0243 C.ar      1 <0>        -0.2413
      9 C8         -6.4056   -4.8429    0.0317 C.ar      1 <0>         0.1269
     10 N2         -6.3254   -6.1647    0.0295 N.ar      1 <0>        -0.5146
     11 C9         -5.1493   -6.7760    0.0204 C.ar      1 <0>         0.4081
     12 N3         -4.0116   -6.0951    0.0076 N.ar      1 <0>        -0.5487
     13 C10        -5.1048   -8.2585    0.0189 C.ar      1 <0>         0.0038
     14 C11        -3.8788   -8.9215    0.0152 C.ar      1 <0>        -0.0877
     15 C12        -3.8435  -10.3012    0.0142 C.ar      1 <0>        -0.0342
     16 C13        -5.0218  -11.0258    0.0164 C.ar      1 <0>        -0.6410
     17 C14        -6.2413  -10.3731    0.0200 C.ar      1 <0>        -0.0325
     18 C15        -6.2887   -8.9938    0.0268 C.ar      1 <0>        -0.0870
     19 S1         -4.9689  -12.7870    0.0139 S.o2      1 <0>         2.4988
     20 O1         -6.1937  -13.1857   -0.5862 O.2       1 <0>        -0.9338
     21 O2         -3.7256  -13.1116   -0.5927 O.2       1 <0>        -0.9347
     22 C16        -4.9503  -13.2553    1.7663 C.3       1 <0>        -0.6495
     23 C17        -7.7497   -4.1615    0.0426 C.3       1 <0>         0.5262
     24 F1         -8.1753   -3.9486   -1.2730 F         1 <0>        -0.1641
     25 F2         -8.6773   -4.9705    0.7076 F         1 <0>        -0.1577
     26 F3         -7.6443   -2.9328    0.7032 F         1 <0>        -0.1661
     27 H1          1.0039    1.9031    0.0027 H         1 <0>         0.0556
     28 H2         -0.5459    1.8868   -0.8726 H         1 <0>         0.0548
     29 H3         -0.5289    1.8773    0.9072 H         1 <0>         0.0547
     30 H4          0.5123   -0.3556   -0.8948 H         1 <0>         0.0626
     31 H5          0.5293   -0.3651    0.8851 H         1 <0>         0.0625
     32 H6         -1.9435   -0.1821    0.9097 H         1 <0>         0.0673
     33 H7         -1.9605   -0.1726   -0.8702 H         1 <0>         0.0674
     34 H8         -0.9024   -2.4150   -0.8923 H         1 <0>         0.0738
     35 H9         -0.8854   -2.4246    0.8875 H         1 <0>         0.0737
     36 H10        -3.3581   -2.2415    0.9121 H         1 <0>         0.0732
     37 H11        -3.3751   -2.2320   -0.8677 H         1 <0>         0.0728
     38 H12        -1.9816   -4.5314   -0.0034 H         1 <0>         0.4145
     39 H13        -5.2817   -3.0157    0.0263 H         1 <0>         0.1592
     40 H14        -2.9583   -8.3567    0.0128 H         1 <0>         0.1475
     41 H15        -2.8941  -10.8160    0.0114 H         1 <0>         0.1495
     42 H16        -7.1582  -10.9439    0.0213 H         1 <0>         0.1505
     43 H17        -7.2415   -8.4852    0.0342 H         1 <0>         0.1501
     44 H18        -5.8507  -12.8796    2.2524 H         1 <0>         0.1328
     45 H19        -4.9175  -14.3414    1.8519 H         1 <0>         0.1345
     46 H20        -4.0715  -12.8262    2.2478 H         1 <0>         0.1323
@<TRIPOS>BOND
     1    1    2 1
     2    1   27 1
     3    1   28 1
     4    1   29 1
     5    2    3 1
     6    2   30 1
     7    2   31 1
     8    3    4 1
     9    3   32 1
    10    3   33 1
    11    4    5 1
    12    4   34 1
    13    4   35 1
    14    5    6 1
    15    5   36 1
    16    5   37 1
    17    6    7 1
    18    6   38 1
    19    7   12 ar
    20    7    8 ar
    21    8    9 ar
    22    8   39 1
    23    9   10 ar
    24    9   23 1
    25   10   11 ar
    26   11   12 ar
    27   11   13 1
    28   13   18 ar
    29   13   14 ar
    30   14   15 ar
    31   14   40 1
    32   15   16 ar
    33   15   41 1
    34   16   17 ar
    35   16   19 1
    36   17   18 ar
    37   17   42 1
    38   18   43 1
    39   19   20 2
    40   19   21 2
    41   19   22 1
    42   22   44 1
    43   22   45 1
    44   22   46 1
    45   23   24 1
    46   23   25 1
    47   23   26 1
@<TRIPOS>MOLECULE
CHEMBL313387
   42    45     0     0     0
SMALL
USER_CHARGES

@<TRIPOS>ATOM
      1 C1         -0.0169    1.3931    0.0097 C.ar      1 <0>        -0.1240
      2 C2          1.1701    2.0955    0.0021 C.ar      1 <0>        -0.0177
      3 C3          2.3776    1.4199   -0.0135 C.ar      1 <0>        -0.6766
      4 C4          2.4042    0.0364   -0.0212 C.ar      1 <0>        -0.0127
      5 C5          1.2253   -0.6794   -0.0133 C.ar      1 <0>        -0.1281
      6 C6          0.0021   -0.0041    0.0020 C.ar      1 <0>         0.0254
      7 C7         -1.2621   -0.7619    0.0105 C.2       1 <0>        -0.0887
      8 C8         -2.1634   -0.7539   -0.9818 C.2       1 <0>        -0.0730
      9 C9         -3.3396   -1.6436   -0.6399 C.3       1 <0>        -0.0476
     10 C10        -2.8446   -2.5069    0.5284 C.3       1 <0>        -0.1353
     11 C11        -1.7197   -1.6622    1.1383 C.3       1 <0>        -0.0460
     12 C12        -3.7832   -3.3483    1.3743 C.3       1 <0>        -0.1611
     13 C13        -2.7666   -4.0209    0.4455 C.3       1 <0>        -0.1627
     14 C14        -2.0280    0.0143   -2.2323 C.ar      1 <0>        -0.0227
     15 C15        -2.9174    1.0541   -2.5169 C.ar      1 <0>        -0.0902
     16 C16        -2.7857    1.7692   -3.6884 C.ar      1 <0>        -0.0954
     17 C17        -1.7750    1.4592   -4.5831 C.ar      1 <0>        -0.0301
     18 C18        -0.8893    0.4294   -4.3076 C.ar      1 <0>        -0.0279
     19 C19        -1.0065   -0.2901   -3.1355 C.ar      1 <0>        -0.0829
     20 Cl1         0.3739    0.0481   -5.4357 Cl        1 <0>        -0.0423
     21 Cl2        -1.6172    2.3640   -6.0562 Cl        1 <0>        -0.0439
     22 S1          3.8889    2.3259   -0.0242 S.o2      1 <0>         2.6989
     23 O1          4.8718    1.4693   -0.5893 O.2       1 <0>        -0.9610
     24 O2          3.5914    3.6056   -0.5656 O.2       1 <0>        -0.9588
     25 N1          4.3248    2.5696    1.5547 N.pl3     1 <0>        -1.2479
     26 H1         -0.9586    1.9217    0.0260 H         1 <0>         0.1334
     27 H2          1.1570    3.1754    0.0081 H         1 <0>         0.1443
     28 H3          3.3504   -0.4841   -0.0337 H         1 <0>         0.1449
     29 H4          1.2476   -1.7591   -0.0197 H         1 <0>         0.1358
     30 H5         -4.1947   -1.0418   -0.3322 H         1 <0>         0.0883
     31 H6         -3.6020   -2.2710   -1.4917 H         1 <0>         0.0792
     32 H7         -0.9013   -2.3004    1.4712 H         1 <0>         0.0788
     33 H8         -2.1013   -1.0677    1.9684 H         1 <0>         0.0875
     34 H9         -3.5923   -3.3924    2.4465 H         1 <0>         0.0985
     35 H10        -4.8325   -3.3815    1.0810 H         1 <0>         0.0988
     36 H11        -3.1474   -4.4962   -0.4584 H         1 <0>         0.0976
     37 H12        -1.9071   -4.5071    0.9071 H         1 <0>         0.0975
     38 H13        -3.7066    1.2968   -1.8207 H         1 <0>         0.1409
     39 H14        -3.4726    2.5729   -3.9091 H         1 <0>         0.1464
     40 H15        -0.3130   -1.0893   -2.9193 H         1 <0>         0.1412
     41 H16         5.2623    2.6392    1.7938 H         1 <0>         0.4223
     42 H17         3.6427    2.6429    2.2404 H         1 <0>         0.4171
@<TRIPOS>BOND
     1    1    6 ar
     2    1    2 ar
     3    1   26 1
     4    2    3 ar
     5    2   27 1
     6    3    4 ar
     7    3   22 1
     8    4    5 ar
     9    4   28 1
    10    5    6 ar
    11    5   29 1
    12    6    7 1
    13    7   11 1
    14    7    8 2
    15    8    9 1
    16    8   14 1
    17    9   10 1
    18    9   30 1
    19    9   31 1
    20   10   13 1
    21   10   11 1
    22   10   12 1
    23   11   32 1
    24   11   33 1
    25   12   13 1
    26   12   34 1
    27   12   35 1
    28   13   36 1
    29   13   37 1
    30   14   19 ar
    31   14   15 ar
    32   15   16 ar
    33   15   38 1
    34   16   17 ar
    35   16   39 1
    36   17   18 ar
    37   17   21 1
    38   18   19 ar
    39   18   20 1
    40   19   40 1
    41   22   23 2
    42   22   24 2
    43   22   25 1
    44   25   41 1
    45   25   42 1
@<TRIPOS>MOLECULE
CHEMBL444805
   42    44     0     0     0
SMALL
USER_CHARGES

@<TRIPOS>ATOM
      1 C1         -0.1610    1.6478    0.2182 C.3       1 <0>        -0.1744
      2 C2         -0.0388    0.1313    0.0562 C.3       1 <0>         0.0685
      3 C3         -1.4020   -0.5295    0.1377 C.2       1 <0>        -0.1779
      4 C4         -1.5160   -1.0721    1.3668 C.2       1 <0>         0.1112
      5 O1         -0.4101   -0.8446    2.1177 O.3       1 <0>        -0.1865
      6 N1          0.6851   -0.4643    1.2084 N.3       1 <0>        -0.2909
      7 C5          1.5740    0.5212    1.8381 C.3       1 <0>        -0.0202
      8 C6         -2.6988   -1.8210    1.8371 C.ar      1 <0>         0.0208
      9 C7         -3.2651   -2.8137    1.0346 C.ar      1 <0>        -0.1035
     10 C8         -4.3698   -3.5093    1.4800 C.ar      1 <0>        -0.0220
     11 C9         -4.9170   -3.2252    2.7188 C.ar      1 <0>        -0.6514
     12 C10        -4.3613   -2.2426    3.5189 C.ar      1 <0>        -0.0236
     13 C11        -3.2527   -1.5435    3.0886 C.ar      1 <0>        -0.1135
     14 S1         -6.3283   -4.1187    3.2798 S.o2      1 <0>         2.4988
     15 O2         -6.9751   -3.2403    4.1904 O.2       1 <0>        -0.9355
     16 O3         -6.9842   -4.5430    2.0928 O.2       1 <0>        -0.9348
     17 C12        -5.6520   -5.5499    4.1657 C.3       1 <0>        -0.6500
     18 C13        -2.4153   -0.5703   -0.9298 C.ar      1 <0>        -0.0208
     19 C14        -2.1670   -1.2819   -2.1073 C.ar      1 <0>        -0.1064
     20 C15        -3.1212   -1.3159   -3.1024 C.ar      1 <0>        -0.1176
     21 C16        -4.3218   -0.6476   -2.9378 C.ar      1 <0>        -0.1145
     22 C17        -4.5749    0.0589   -1.7750 C.ar      1 <0>        -0.1165
     23 C18        -3.6329    0.0974   -0.7686 C.ar      1 <0>        -0.1013
     24 H1          0.8342    2.0914    0.2484 H         1 <0>         0.0707
     25 H2         -0.7170    2.0596   -0.6241 H         1 <0>         0.0744
     26 H3         -0.6874    1.8728    1.1458 H         1 <0>         0.0608
     27 H4          0.4580   -0.1165   -0.8818 H         1 <0>         0.1192
     28 H5          0.9850    1.3663    2.1944 H         1 <0>         0.0604
     29 H6          2.0916    0.0589    2.6786 H         1 <0>         0.0889
     30 H7          2.3050    0.8697    1.1084 H         1 <0>         0.1017
     31 H8         -2.8392   -3.0362    0.0673 H         1 <0>         0.1379
     32 H9         -4.8090   -4.2770    0.8603 H         1 <0>         0.1484
     33 H10        -4.7935   -2.0257    4.4846 H         1 <0>         0.1479
     34 H11        -2.8167   -0.7804    3.7163 H         1 <0>         0.1374
     35 H12        -5.0365   -5.2053    4.9967 H         1 <0>         0.1324
     36 H13        -6.4702   -6.1602    4.5483 H         1 <0>         0.1345
     37 H14        -5.0431   -6.1443    3.4846 H         1 <0>         0.1325
     38 H15        -1.2302   -1.8033   -2.2374 H         1 <0>         0.1239
     39 H16        -2.9308   -1.8652   -4.0126 H         1 <0>         0.1250
     40 H17        -5.0649   -0.6773   -3.7209 H         1 <0>         0.1234
     41 H18        -5.5142    0.5779   -1.6538 H         1 <0>         0.1241
     42 H19        -3.8336    0.6455    0.1401 H         1 <0>         0.1185
@<TRIPOS>BOND
     1    1    2 1
     2    1   24 1
     3    1   25 1
     4    1   26 1
     5    2    6 1
     6    2    3 1
     7    2   27 1
     8    3    4 2
     9    3   18 1
    10    4    5 1
    11    4    8 1
    12    5    6 1
    13    6    7 1
    14    7   28 1
    15    7   29 1
    16    7   30 1
    17    8   13 ar
    18    8    9 ar
    19    9   10 ar
    20    9   31 1
    21   10   11 ar
    22   10   32 1
    23   11   12 ar
    24   11   14 1
    25   12   13 ar
    26   12   33 1
    27   13   34 1
    28   14   15 2
    29   14   16 2
    30   14   17 1
    31   17   35 1
    32   17   36 1
    33   17   37 1
    34   18   23 ar
    35   18   19 ar
    36   19   20 ar
    37   19   38 1
    38   20   21 ar
    39   20   39 1
    40   21   22 ar
    41   21   40 1
    42   22   23 ar
    43   22   41 1
    44   23   42 1
@<TRIPOS>MOLECULE
CHEMBL444805__1
   42    44     0     0     0
SMALL
USER_CHARGES

@<TRIPOS>ATOM
      1 C1         -0.3241    1.3907   -0.1102 C.3       1 <0>        -0.1318
      2 C2         -0.1076   -0.1233   -0.0667 C.3       1 <0>         0.0692
      3 C3          0.8203   -0.5658   -1.1823 C.2       1 <0>        -0.1778
      4 C4          1.7187   -1.4174   -0.6479 C.2       1 <0>         0.1097
      5 O1          1.4985   -1.6093    0.6763 O.3       1 <0>        -0.1857
      6 N1          0.6393   -0.5131    1.1566 N.3       1 <0>        -0.2931
      7 C5         -0.2762   -0.9825    2.2052 C.3       1 <0>        -0.0158
      8 C6          2.8072   -2.0617   -1.4101 C.ar      1 <0>         0.0207
      9 C7          3.6092   -1.3029   -2.2652 C.ar      1 <0>        -0.1034
     10 C8          4.6241   -1.9111   -2.9742 C.ar      1 <0>        -0.0220
     11 C9          4.8483   -3.2699   -2.8397 C.ar      1 <0>        -0.6514
     12 C10         4.0572   -4.0279   -1.9946 C.ar      1 <0>        -0.0236
     13 C11         3.0428   -3.4315   -1.2749 C.ar      1 <0>        -0.1135
     14 S1          6.1470   -4.0386   -3.7493 S.o2      1 <0>         2.4989
     15 O2          5.7410   -5.3935   -3.8863 O.2       1 <0>        -0.9354
     16 O3          6.3239   -3.2160   -4.8943 O.2       1 <0>        -0.9348
     17 C12         7.6008   -3.9282   -2.6700 C.3       1 <0>        -0.6500
     18 C13         0.7521   -0.1429   -2.5912 C.ar      1 <0>        -0.0206
     19 C14         1.0269    1.1824   -2.9410 C.ar      1 <0>        -0.1060
     20 C15         0.9614    1.5707   -4.2626 C.ar      1 <0>        -0.1184
     21 C16         0.6242    0.6523   -5.2414 C.ar      1 <0>        -0.1142
     22 C17         0.3508   -0.6614   -4.9029 C.ar      1 <0>        -0.1164
     23 C18         0.4179   -1.0662   -3.5863 C.ar      1 <0>        -0.1021
     24 H1          0.6411    1.8966   -0.0857 H         1 <0>         0.0698
     25 H2         -0.8503    1.6563   -1.0271 H         1 <0>         0.0737
     26 H3         -0.9172    1.6979    0.7511 H         1 <0>         0.0632
     27 H4         -1.0604   -0.6498   -0.1215 H         1 <0>         0.0765
     28 H5         -0.8300   -1.8486    1.8430 H         1 <0>         0.0540
     29 H6          0.2968   -1.2614    3.0895 H         1 <0>         0.0912
     30 H7         -0.9746   -0.1857    2.4612 H         1 <0>         0.1015
     31 H8          3.4351   -0.2423   -2.3713 H         1 <0>         0.1378
     32 H9          5.2449   -1.3256   -3.6361 H         1 <0>         0.1484
     33 H10         4.2374   -5.0881   -1.8947 H         1 <0>         0.1480
     34 H11         2.4294   -4.0234   -0.6117 H         1 <0>         0.1375
     35 H12         7.3995   -4.4506   -1.7347 H         1 <0>         0.1324
     36 H13         8.4567   -4.3866   -3.1653 H         1 <0>         0.1345
     37 H14         7.8197   -2.8810   -2.4613 H         1 <0>         0.1325
     38 H15         1.2894    1.9004   -2.1781 H         1 <0>         0.1252
     39 H16         1.1734    2.5942   -4.5344 H         1 <0>         0.1251
     40 H17         0.5738    0.9625   -6.2747 H         1 <0>         0.1234
     41 H18         0.0884   -1.3724   -5.6723 H         1 <0>         0.1242
     42 H19         0.2086   -2.0928   -3.3242 H         1 <0>         0.1187
@<TRIPOS>BOND
     1    1    2 1
     2    1   24 1
     3    1   25 1
     4    1   26 1
     5    2    6 1
     6    2    3 1
     7    2   27 1
     8    3    4 2
     9    3   18 1
    10    4    5 1
    11    4    8 1
    12    5    6 1
    13    6    7 1
    14    7   28 1
    15    7   29 1
    16    7   30 1
    17    8   13 ar
    18    8    9 ar
    19    9   10 ar
    20    9   31 1
    21   10   11 ar
    22   10   32 1
    23   11   12 ar
    24   11   14 1
    25   12   13 ar
    26   12   33 1
    27   13   34 1
    28   14   15 2
    29   14   16 2
    30   14   17 1
    31   17   35 1
    32   17   36 1
    33   17   37 1
    34   18   23 ar
    35   18   19 ar
    36   19   20 ar
    37   19   38 1
    38   20   21 ar
    39   20   39 1
    40   21   22 ar
    41   21   40 1
    42   22   23 ar
    43   22   41 1
    44   23   42 1
@<TRIPOS>MOLECULE
CHEMBL453386
   42    44     0     0     0
SMALL
USER_CHARGES

@<TRIPOS>ATOM
      1 C1         -0.0187    1.5258    0.0104 C.3       1 <0>        -0.1525
      2 C2          0.0021   -0.0041    0.0020 C.3       1 <0>         0.1089
      3 H1          0.5129   -0.3514   -0.8960 H         1 <0>         0.0842
      4 C3         -1.4373   -0.5286   -0.0010 C.3       1 <0>        -0.2166
      5 C4         -1.9264   -0.6375   -1.4422 C.3       1 <0>        -0.0002
      6 H2         -1.2035   -1.0690   -2.1407 H         1 <0>         0.1220
      7 C5         -3.4103   -0.8994   -1.7048 C.3       1 <0>         0.0222
      8 H3         -3.6833   -1.5122   -2.5707 H         1 <0>         0.1349
      9 O1         -2.8057    0.3707   -1.9481 O.3       1 <0>        -0.3443
     10 C6         -4.3511   -1.0048   -0.5321 C.2       1 <0>        -0.1345
     11 C7         -4.0802   -1.8171    0.4944 C.2       1 <0>        -0.1054
     12 C8         -2.8804   -2.6428    0.5050 C.2       1 <0>        -0.0868
     13 C9         -2.3453   -3.0589    1.6806 C.2       1 <0>        -0.1445
     14 C10        -1.1909   -3.8610    1.6669 C.2       1 <0>         0.4154
     15 O2         -0.8000   -4.3338    0.6186 O.2       1 <0>        -0.4925
     16 C11        -0.4332   -4.1408    2.9402 C.3       1 <0>        -0.1389
     17 C12         1.0278   -3.8392    2.6877 C.ar      1 <0>         0.0371
     18 C13         1.3859   -2.6361    2.0676 C.ar      1 <0>        -0.1817
     19 C14         2.7381   -2.3583    1.8197 C.ar      1 <0>         0.2049
     20 C15         3.7092   -3.2743    2.1947 C.ar      1 <0>        -0.1821
     21 C16         3.3405   -4.4580    2.8160 C.ar      1 <0>         0.1881
     22 C17         2.0001   -4.7347    3.0629 C.ar      1 <0>        -0.0881
     23 Cl1         1.5537   -6.2169    3.8488 Cl        1 <0>        -0.0319
     24 O3          4.2931   -5.3515    3.1851 O.3       1 <0>        -0.4788
     25 O4          3.0947   -1.1972    1.2155 O.3       1 <0>        -0.4738
     26 C18         0.3563   -1.6642    1.6693 C.2       1 <0>         0.5177
     27 O5         -0.8194   -1.9401    1.8074 O.2       1 <0>        -0.4404
     28 O6          0.7045   -0.4714    1.1533 O.3       1 <0>        -0.3395
     29 H4          1.0039    1.9031    0.0027 H         1 <0>         0.0687
     30 H5         -0.5459    1.8868   -0.8726 H         1 <0>         0.0816
     31 H6         -0.5289    1.8773    0.9072 H         1 <0>         0.0655
     32 H7         -1.4681   -1.5113    0.4694 H         1 <0>         0.1770
     33 H8         -2.0774    0.1605    0.5499 H         1 <0>         0.0857
     34 H9         -5.2668   -0.4226   -0.5176 H         1 <0>         0.1291
     35 H10        -4.7603   -1.8650    1.3375 H         1 <0>         0.1284
     36 H11        -2.4083   -2.9241   -0.4301 H         1 <0>         0.1276
     37 H12        -2.7973   -2.7787    2.6253 H         1 <0>         0.1321
     38 H13        -0.8085   -3.5029    3.7404 H         1 <0>         0.1168
     39 H14        -0.5511   -5.1885    3.2168 H         1 <0>         0.1157
     40 H15         4.7515   -3.0662    2.0028 H         1 <0>         0.1582
     41 H16         4.6331   -5.2167    4.0803 H         1 <0>         0.4045
     42 H17         3.2625   -0.4695    1.8298 H         1 <0>         0.4059
@<TRIPOS>BOND
     1    1    2 1
     2    1   29 1
     3    1   30 1
     4    1   31 1
     5    2    3 1
     6    2   28 1
     7    2    4 1
     8    4    5 1
     9    4   32 1
    10    4   33 1
    11    5    6 1
    12    5    9 1
    13    5    7 1
    14    7    8 1
    15    7    9 1
    16    7   10 1
    17   10   11 2
    18   10   34 1
    19   11   12 1
    20   11   35 1
    21   12   13 2
    22   12   36 1
    23   13   14 1
    24   13   37 1
    25   14   15 2
    26   14   16 1
    27   16   17 1
    28   16   38 1
    29   16   39 1
    30   17   22 ar
    31   17   18 ar
    32   18   19 ar
    33   18   26 1
    34   19   20 ar
    35   19   25 1
    36   20   21 ar
    37   20   40 1
    38   21   22 ar
    39   21   24 1
    40   22   23 1
    41   24   41 1
    42   25   42 1
    43   26   27 2
    44   26   28 1
@<TRIPOS>MOLECULE
CHEMBL302266
   43    45     0     0     0
SMALL
USER_CHARGES

@<TRIPOS>ATOM
      1 C1         -0.0187    1.5258    0.0104 C.3       1 <0>        -0.1735
      2 C2          0.0021   -0.0041    0.0020 C.3       1 <0>         0.1155
      3 N1         -1.3723   -0.5112    0.0124 N.pl3     1 <0>        -0.3256
      4 C3         -2.1039   -0.7850    1.1123 C.2       1 <0>        -0.0027
      5 C4         -3.3235   -1.2329    0.7016 C.2       1 <0>        -0.1110
      6 C5         -3.3240   -1.2277   -0.7159 C.2       1 <0>         0.1135
      7 N2         -2.1514   -0.7880   -1.1173 N.2       1 <0>        -0.2298
      8 C6         -4.4489   -1.6389   -1.5905 C.ar      1 <0>         0.0437
      9 C7         -5.2893   -2.6820   -1.2054 C.ar      1 <0>        -0.1105
     10 C8         -6.3345   -3.0604   -2.0233 C.ar      1 <0>        -0.0151
     11 C9         -6.5486   -2.4070   -3.2235 C.ar      1 <0>        -0.6674
     12 C10        -5.7175   -1.3714   -3.6111 C.ar      1 <0>        -0.0164
     13 C11        -4.6732   -0.9800   -2.7980 C.ar      1 <0>        -0.1104
     14 S1         -7.8847   -2.8960   -4.2629 S.o2      1 <0>         2.7004
     15 O1         -7.5424   -2.4916   -5.5815 O.2       1 <0>        -0.9606
     16 O2         -8.1828   -4.2456   -3.9332 O.2       1 <0>        -0.9600
     17 N3         -9.2037   -1.9981   -3.8199 N.pl3     1 <0>        -1.2492
     18 C12        -4.4457   -1.6504    1.5780 C.ar      1 <0>        -0.0403
     19 C13        -4.3112   -2.7662    2.4018 C.ar      1 <0>        -0.0754
     20 C14        -5.3572   -3.1505    3.2156 C.ar      1 <0>        -0.1470
     21 C15        -6.5399   -2.4292    3.2140 C.ar      1 <0>         0.1092
     22 C16        -6.6780   -1.3192    2.3966 C.ar      1 <0>        -0.1490
     23 C17        -5.6350   -0.9244    1.5839 C.ar      1 <0>        -0.0636
     24 F1         -7.5619   -2.8095    4.0117 F         1 <0>        -0.1356
     25 C18        -1.6524   -0.6246    2.5411 C.3       1 <0>         0.5400
     26 F2         -0.7252    0.4198    2.6227 F         1 <0>        -0.1691
     27 F3         -2.7565   -0.3321    3.3490 F         1 <0>        -0.1520
     28 F4         -1.0564   -1.8125    2.9780 F         1 <0>        -0.1636
     29 H1          1.0039    1.9031    0.0027 H         1 <0>         0.0875
     30 H2         -0.5459    1.8868   -0.8726 H         1 <0>         0.0697
     31 H3         -0.5289    1.8773    0.9072 H         1 <0>         0.0682
     32 H4          0.5123   -0.3556   -0.8948 H         1 <0>         0.1111
     33 H5          0.5293   -0.3651    0.8851 H         1 <0>         0.1014
     34 H6         -5.1226   -3.1933   -0.2688 H         1 <0>         0.1395
     35 H7         -6.9863   -3.8686   -1.7258 H         1 <0>         0.1496
     36 H8         -5.8888   -0.8651   -4.5496 H         1 <0>         0.1495
     37 H9         -4.0280   -0.1679   -3.0991 H         1 <0>         0.1403
     38 H10        -9.1303   -1.3501   -3.1018 H         1 <0>         0.4171
     39 H11       -10.0497   -2.1201   -4.2784 H         1 <0>         0.4222
     40 H12        -3.3898   -3.3295    2.4031 H         1 <0>         0.1336
     41 H13        -5.2538   -4.0152    3.8544 H         1 <0>         0.1413
     42 H14        -7.6018   -0.7597    2.3985 H         1 <0>         0.1408
     43 H15        -5.7419   -0.0563    0.9503 H         1 <0>         0.1336
@<TRIPOS>BOND
     1    1    2 1
     2    1   29 1
     3    1   30 1
     4    1   31 1
     5    2    3 1
     6    2   32 1
     7    2   33 1
     8    3    7 1
     9    3    4 1
    10    4    5 2
    11    4   25 1
    12    5    6 1
    13    5   18 1
    14    6    7 2
    15    6    8 1
    16    8   13 ar
    17    8    9 ar
    18    9   10 ar
    19    9   34 1
    20   10   11 ar
    21   10   35 1
    22   11   12 ar
    23   11   14 1
    24   12   13 ar
    25   12   36 1
    26   13   37 1
    27   14   15 2
    28   14   16 2
    29   14   17 1
    30   17   38 1
    31   17   39 1
    32   18   23 ar
    33   18   19 ar
    34   19   20 ar
    35   19   40 1
    36   20   21 ar
    37   20   41 1
    38   21   22 ar
    39   21   24 1
    40   22   23 ar
    41   22   42 1
    42   23   43 1
    43   25   26 1
    44   25   27 1
    45   25   28 1
@<TRIPOS>MOLECULE
CHEMBL119170
   46    48     0     0     0
SMALL
USER_CHARGES

@<TRIPOS>ATOM
      1 C1         -0.0187    1.5258    0.0104 C.3       1 <0>        -0.1366
      2 C2          0.0021   -0.0041    0.0020 C.3       1 <0>        -0.0508
      3 C3         -1.4208   -0.5776    0.2012 C.3       1 <0>         0.0543
      4 O1         -1.4941   -0.7626    1.6248 O.3       1 <0>        -0.2915
      5 C4         -0.2439   -0.9743    2.1164 C.ar      1 <0>         0.1476
      6 C5          0.7293   -0.5432    1.2190 C.ar      1 <0>        -0.1711
      7 C6          2.0642   -0.6513    1.5198 C.ar      1 <0>        -0.0069
      8 C7          2.4600   -1.2083    2.7400 C.ar      1 <0>        -0.1668
      9 C8          1.4882   -1.6497    3.6415 C.ar      1 <0>        -0.0530
     10 C9          0.1535   -1.5333    3.3318 C.ar      1 <0>        -0.0973
     11 C10        -0.8868   -2.0124    4.3111 C.3       1 <0>        -0.0221
     12 C11        -0.1957   -2.5779    5.5535 C.3       1 <0>        -0.1485
     13 C12        -1.7843   -0.8411    4.7155 C.3       1 <0>        -0.1413
     14 C13        -1.7368   -3.1046    3.6588 C.3       1 <0>        -0.1416
     15 C14         3.8930   -1.3293    3.0726 C.2       1 <0>         0.5704
     16 O2          4.7347   -0.9440    2.2843 O.2       1 <0>        -0.5351
     17 N1          4.2684   -1.8670    4.2500 N.am      1 <0>        -0.7004
     18 C15         5.6907   -1.9871    4.5801 C.3       1 <0>         0.0782
     19 C16         6.1617   -3.3001    5.2086 C.3       1 <0>        -0.1922
     20 C17         6.0707   -2.0332    6.0615 C.3       1 <0>        -0.1883
     21 C18         0.6300   -0.5328   -1.2892 C.3       1 <0>        -0.1383
     22 H1          1.0039    1.9031    0.0027 H         1 <0>         0.0649
     23 H2         -0.5459    1.8868   -0.8726 H         1 <0>         0.0661
     24 H3         -0.5289    1.8773    0.9072 H         1 <0>         0.0606
     25 H4         -2.1746    0.1345   -0.1348 H         1 <0>         0.1100
     26 H5         -1.5293   -1.5299   -0.3178 H         1 <0>         0.0816
     27 H6          2.8072   -0.3067    0.8159 H         1 <0>         0.1373
     28 H7          1.7861   -2.0836    4.5846 H         1 <0>         0.1363
     29 H8          0.4098   -1.7998    6.0182 H         1 <0>         0.0589
     30 H9         -0.9481   -2.9244    6.2618 H         1 <0>         0.0634
     31 H10         0.4437   -3.4123    5.2654 H         1 <0>         0.0587
     32 H11        -2.2768   -0.4383    3.8304 H         1 <0>         0.0651
     33 H12        -2.5368   -1.1877    5.4239 H         1 <0>         0.0593
     34 H13        -1.1789   -0.0630    5.1803 H         1 <0>         0.0541
     35 H14        -1.0974   -3.9391    3.3707 H         1 <0>         0.0538
     36 H15        -2.4892   -3.4512    4.3671 H         1 <0>         0.0596
     37 H16        -2.2292   -2.7018    2.7737 H         1 <0>         0.0640
     38 H17         3.5970   -2.1744    4.8789 H         1 <0>         0.4002
     39 H18         6.3755   -1.4800    3.9004 H         1 <0>         0.1399
     40 H19         5.4133   -4.0746    5.3764 H         1 <0>         0.0974
     41 H20         7.1565   -3.6572    4.9423 H         1 <0>         0.1042
     42 H21         7.0057   -1.5567    6.3563 H         1 <0>         0.1055
     43 H22         5.2625   -1.9742    6.7904 H         1 <0>         0.0977
     44 H23         1.6577   -0.1776   -1.3654 H         1 <0>         0.0662
     45 H24         0.6221   -1.6227   -1.2772 H         1 <0>         0.0610
     46 H25         0.0574   -0.1747   -2.1448 H         1 <0>         0.0655
@<TRIPOS>BOND
     1    1    2 1
     2    1   22 1
     3    1   23 1
     4    1   24 1
     5    2    6 1
     6    2    3 1
     7    2   21 1
     8    3    4 1
     9    3   25 1
    10    3   26 1
    11    4    5 1
    12    5   10 ar
    13    5    6 ar
    14    6    7 ar
    15    7    8 ar
    16    7   27 1
    17    8    9 ar
    18    8   15 1
    19    9   10 ar
    20    9   28 1
    21   10   11 1
    22   11   12 1
    23   11   13 1
    24   11   14 1
    25   12   29 1
    26   12   30 1
    27   12   31 1
    28   13   32 1
    29   13   33 1
    30   13   34 1
    31   14   35 1
    32   14   36 1
    33   14   37 1
    34   15   16 2
    35   15   17 am
    36   17   18 1
    37   17   38 1
    38   18   20 1
    39   18   19 1
    40   18   39 1
    41   19   20 1
    42   19   40 1
    43   19   41 1
    44   20   42 1
    45   20   43 1
    46   21   44 1
    47   21   45 1
    48   21   46 1
@<TRIPOS>MOLECULE
CHEMBL441414
   37    38     0     0     0
SMALL
USER_CHARGES

@<TRIPOS>ATOM
      1 C1         -0.0187    1.5258    0.0104 C.3       1 <0>        -0.1162
      2 C2          0.0021   -0.0041    0.0020 C.3       1 <0>        -0.1321
      3 H1         -1.0205   -0.3814    0.0098 H         1 <0>         0.0664
      4 C3          0.7074   -0.4901   -1.2379 C.ar      1 <0>        -0.0387
      5 C4          2.0258   -0.1416   -1.4645 C.ar      1 <0>        -0.1028
      6 C5          2.6729   -0.5874   -2.6018 C.ar      1 <0>        -0.1185
      7 C6          2.0017   -1.3820   -3.5123 C.ar      1 <0>        -0.1042
      8 C7          0.6836   -1.7312   -3.2852 C.ar      1 <0>        -0.1194
      9 C8          0.0378   -1.2890   -2.1457 C.ar      1 <0>        -0.1243
     10 C9          2.7067   -1.8672   -4.7526 C.3       1 <0>        -0.0638
     11 C10         3.3802   -3.2104   -4.4641 C.3       1 <0>        -0.0790
     12 H2          4.0338   -3.1295   -3.5955 H         1 <0>         0.0877
     13 C11         2.3161   -4.3135   -4.2409 C.3       1 <0>        -0.1178
     14 C12         3.0938   -5.6110   -4.5737 C.3       1 <0>        -0.1233
     15 C13         3.9905   -5.2192   -5.7663 C.3       1 <0>        -0.1568
     16 C14         4.1755   -3.6912   -5.6954 C.3       1 <0>         0.1013
     17 H3          3.7822   -3.2256   -6.5990 H         1 <0>         0.0575
     18 O1          5.5592   -3.3692   -5.5406 O.3       1 <0>        -0.5638
     19 C15         0.7309   -0.5033    1.2229 C.2       1 <0>         0.5042
     20 O2          0.3147   -1.4781    1.8253 O.co2     1 <0>        -0.6985
     21 O3          1.7369    0.0677    1.6083 O.co2     1 <0>        -0.6904
     22 H4          1.0039    1.9031    0.0027 H         1 <0>         0.0599
     23 H5         -0.5459    1.8868   -0.8726 H         1 <0>         0.0362
     24 H6         -0.5289    1.8773    0.9072 H         1 <0>         0.0471
     25 H7          2.5502    0.4792   -0.7532 H         1 <0>         0.1301
     26 H8          3.7027   -0.3146   -2.7792 H         1 <0>         0.1139
     27 H9          0.1591   -2.3518   -3.9967 H         1 <0>         0.1119
     28 H10        -0.9908   -1.5649   -1.9665 H         1 <0>         0.1148
     29 H11         1.9824   -1.9896   -5.5580 H         1 <0>         0.0658
     30 H12         3.4612   -1.1389   -5.0501 H         1 <0>         0.0693
     31 H13         1.9785   -4.3206   -3.2045 H         1 <0>         0.0762
     32 H14         1.4749   -4.1821   -4.9215 H         1 <0>         0.0682
     33 H15         3.7026   -5.9194   -3.7238 H         1 <0>         0.0672
     34 H16         2.4050   -6.4060   -4.8593 H         1 <0>         0.0645
     35 H17         4.9579   -5.7148   -5.6847 H         1 <0>         0.0697
     36 H18         3.5071   -5.4952   -6.7034 H         1 <0>         0.0653
     37 H19         6.1129   -3.6462   -6.2834 H         1 <0>         0.3725
@<TRIPOS>BOND
     1    1    2 1
     2    1   22 1
     3    1   23 1
     4    1   24 1
     5    2    3 1
     6    2    4 1
     7    2   19 1
     8    4    9 ar
     9    4    5 ar
    10    5    6 ar
    11    5   25 1
    12    6    7 ar
    13    6   26 1
    14    7    8 ar
    15    7   10 1
    16    8    9 ar
    17    8   27 1
    18    9   28 1
    19   10   11 1
    20   10   29 1
    21   10   30 1
    22   11   12 1
    23   11   16 1
    24   11   13 1
    25   13   14 1
    26   13   31 1
    27   13   32 1
    28   14   15 1
    29   14   33 1
    30   14   34 1
    31   15   16 1
    32   15   35 1
    33   15   36 1
    34   16   17 1
    35   16   18 1
    36   18   37 1
    37   19   20 2
    38   19   21 1
@<TRIPOS>MOLECULE
CHEMBL326335
   38    41     0     0     0
SMALL
USER_CHARGES

@<TRIPOS>ATOM
      1 C1         -0.0225    1.8097    0.0120 C.3       1 <0>        -0.6494
      2 S1          0.0021   -0.0041    0.0020 S.o2      1 <0>         2.4988
      3 O1          0.8352   -0.4880    1.0465 O.2       1 <0>        -0.9315
      4 O2         -1.3147   -0.5105   -0.1678 O.2       1 <0>        -0.9318
      5 C2          0.8454   -0.4373   -1.4831 C.ar      1 <0>        -0.6550
      6 C3          0.1330   -0.6123   -2.6553 C.ar      1 <0>        -0.0042
      7 C4          0.7913   -0.9519   -3.8210 C.ar      1 <0>        -0.1328
      8 C5          2.1697   -1.1172   -3.8153 C.ar      1 <0>         0.1694
      9 C6          2.8824   -0.9404   -2.6370 C.ar      1 <0>        -0.1249
     10 C7          2.2190   -0.5961   -1.4754 C.ar      1 <0>        -0.0034
     11 N1          2.8406   -1.4623   -4.9966 N.pl3     1 <0>        -0.4149
     12 C8          2.5155   -2.4719   -5.8459 C.2       1 <0>         0.2284
     13 N2          3.3695   -2.4844   -6.8341 N.2       1 <0>        -0.4669
     14 C9          4.2644   -1.5030   -6.6682 C.2       1 <0>         0.0792
     15 C10         3.9531   -0.8378   -5.5216 C.2       1 <0>         0.0452
     16 C11         4.6684    0.3230   -4.9500 C.ar      1 <0>        -0.0186
     17 C12         3.9508    1.4168   -4.4636 C.ar      1 <0>        -0.0879
     18 C13         4.6200    2.4990   -3.9307 C.ar      1 <0>        -0.0970
     19 C14         6.0058    2.5050   -3.8765 C.ar      1 <0>         0.0471
     20 C15         6.7285    1.4157   -4.3607 C.ar      1 <0>         0.0397
     21 C16         6.0626    0.3254   -4.8903 C.ar      1 <0>        -0.0707
     22 O3          8.0601    1.6669   -4.1938 O.3       1 <0>        -0.3037
     23 C17         8.1595    3.0872   -3.9802 C.3       1 <0>         0.2123
     24 O4          6.8863    3.4372   -3.4065 O.3       1 <0>        -0.3053
     25 Cl1         5.5864   -1.1376   -7.7323 Cl        1 <0>         0.0071
     26 H1          1.0001    2.1870    0.0043 H         1 <0>         0.1332
     27 H2         -0.5497    2.1708   -0.8711 H         1 <0>         0.1332
     28 H3         -0.5327    2.1613    0.9088 H         1 <0>         0.1364
     29 H4         -0.9393   -0.4836   -2.6591 H         1 <0>         0.1561
     30 H5          0.2342   -1.0892   -4.7361 H         1 <0>         0.1461
     31 H6          3.9547   -1.0686   -2.6294 H         1 <0>         0.1418
     32 H7          2.7733   -0.4544   -0.5594 H         1 <0>         0.1547
     33 H8          1.6864   -3.1532   -5.7237 H         1 <0>         0.2249
     34 H9          2.8715    1.4160   -4.5048 H         1 <0>         0.1348
     35 H10         4.0629    3.3444   -3.5547 H         1 <0>         0.1421
     36 H11         6.6212   -0.5211   -5.2617 H         1 <0>         0.1423
     37 H12         8.9680    3.3143   -3.2853 H         1 <0>         0.1363
     38 H13         8.3092    3.6072   -4.9264 H         1 <0>         0.0889
@<TRIPOS>BOND
     1    1    2 1
     2    1   26 1
     3    1   27 1
     4    1   28 1
     5    2    3 2
     6    2    4 2
     7    2    5 1
     8    5   10 ar
     9    5    6 ar
    10    6    7 ar
    11    6   29 1
    12    7    8 ar
    13    7   30 1
    14    8    9 ar
    15    8   11 1
    16    9   10 ar
    17    9   31 1
    18   10   32 1
    19   11   15 1
    20   11   12 1
    21   12   13 2
    22   12   33 1
    23   13   14 1
    24   14   15 2
    25   14   25 1
    26   15   16 1
    27   16   21 ar
    28   16   17 ar
    29   17   18 ar
    30   17   34 1
    31   18   19 ar
    32   18   35 1
    33   19   24 1
    34   19   20 ar
    35   20   21 ar
    36   20   22 1
    37   21   36 1
    38   22   23 1
    39   23   24 1
    40   23   37 1
    41   23   38 1
@<TRIPOS>MOLECULE
CHEMBL357315
   51    54     0     0     0
SMALL
USER_CHARGES

@<TRIPOS>ATOM
      1 C1          0.4683    3.4782   -0.3609 C.3       1 <0>        -0.6506
      2 S1         -0.1505    1.7731   -0.3505 S.o2      1 <0>         2.4991
      3 O1          0.3843    1.0650    0.7593 O.2       1 <0>        -0.9368
      4 O2         -1.5465    1.7574   -0.6153 O.2       1 <0>        -0.9369
      5 C2          0.5834    1.0165   -1.7625 C.ar      1 <0>        -0.6596
      6 C3         -0.0651    1.0620   -2.9836 C.ar      1 <0>        -0.0197
      7 C4          0.5047    0.4712   -4.0930 C.ar      1 <0>        -0.1270
      8 C5          1.7366   -0.1724   -3.9812 C.ar      1 <0>         0.0232
      9 C6          2.3854   -0.2150   -2.7477 C.ar      1 <0>        -0.1257
     10 C7          1.8084    0.3842   -1.6467 C.ar      1 <0>        -0.0218
     11 C8          2.3536   -0.8091   -5.1686 C.ar      1 <0>        -0.0490
     12 C9          1.6082   -1.6752   -5.9635 C.ar      1 <0>        -0.0816
     13 C10         2.1848   -2.2696   -7.0721 C.ar      1 <0>         0.0309
     14 C11         3.5159   -2.0034   -7.3990 C.ar      1 <0>         0.0427
     15 C12         4.2654   -1.1441   -6.6165 C.ar      1 <0>        -0.1148
     16 C13         3.6922   -0.5364   -5.5000 C.ar      1 <0>        -0.0134
     17 C14         4.4890    0.3850   -4.6667 C.2       1 <0>        -0.1509
     18 C15         5.1911    1.3563   -5.2367 C.2       1 <0>        -0.0743
     19 C16         5.3740    1.3327   -6.7151 C.3       1 <0>        -0.1026
     20 C17         6.6661    0.5526   -7.0681 C.3       1 <0>        -0.1155
     21 C18         7.8482    1.3227   -6.6481 C.3       1 <0>        -0.1207
     22 C19         7.9610    1.5538   -5.1480 C.3       1 <0>        -0.1192
     23 C20         7.2097    2.8109   -4.7804 C.3       1 <0>        -0.1181
     24 C21         5.7696    2.4495   -4.3565 C.3       1 <0>        -0.0843
     25 O3          3.8364   -2.7078   -8.5240 O.3       1 <0>        -0.3063
     26 C22         2.8207   -3.7207   -8.6461 C.3       1 <0>         0.2125
     27 O4          1.6766   -3.1396   -7.9937 O.3       1 <0>        -0.3064
     28 H1          1.5563    3.4703   -0.2943 H         1 <0>         0.1316
     29 H2          0.1644    3.9695   -1.2852 H         1 <0>         0.1316
     30 H3          0.0562    4.0195    0.4908 H         1 <0>         0.1334
     31 H4         -1.0193    1.5605   -3.0689 H         1 <0>         0.1448
     32 H5         -0.0026    0.5071   -5.0457 H         1 <0>         0.1355
     33 H6          3.3396   -0.7124   -2.6551 H         1 <0>         0.1374
     34 H7          2.3122    0.3561   -0.6919 H         1 <0>         0.1448
     35 H8          0.5783   -1.8840   -5.7143 H         1 <0>         0.1400
     36 H9          5.2947   -0.9406   -6.8725 H         1 <0>         0.1600
     37 H10         4.5009    0.2688   -3.5930 H         1 <0>         0.1291
     38 H11         4.5171    0.8442   -7.1789 H         1 <0>         0.0811
     39 H12         5.4539    2.3542   -7.0871 H         1 <0>         0.0706
     40 H13         6.6597   -0.4091   -6.5551 H         1 <0>         0.0700
     41 H14         6.7059    0.3867   -8.1446 H         1 <0>         0.0711
     42 H15         8.7404    0.7937   -6.9830 H         1 <0>         0.0577
     43 H16         7.8213    2.2927   -7.1447 H         1 <0>         0.0609
     44 H17         7.5323    0.7047   -4.6156 H         1 <0>         0.0668
     45 H18         9.0104    1.6637   -4.8745 H         1 <0>         0.0626
     46 H19         7.7173    3.3091   -3.9544 H         1 <0>         0.0651
     47 H20         7.1753    3.4785   -5.6413 H         1 <0>         0.0648
     48 H21         5.1401    3.3363   -4.4302 H         1 <0>         0.0760
     49 H22         5.7786    2.1060   -3.3221 H         1 <0>         0.0707
     50 H23         2.6029   -3.9200   -9.6953 H         1 <0>         0.1346
     51 H24         3.1283   -4.6345   -8.1376 H         1 <0>         0.0868
@<TRIPOS>BOND
     1    1    2 1
     2    1   28 1
     3    1   29 1
     4    1   30 1
     5    2    3 2
     6    2    4 2
     7    2    5 1
     8    5   10 ar
     9    5    6 ar
    10    6    7 ar
    11    6   31 1
    12    7    8 ar
    13    7   32 1
    14    8    9 ar
    15    8   11 1
    16    9   10 ar
    17    9   33 1
    18   10   34 1
    19   11   16 ar
    20   11   12 ar
    21   12   13 ar
    22   12   35 1
    23   13   27 1
    24   13   14 ar
    25   14   15 ar
    26   14   25 1
    27   15   16 ar
    28   15   36 1
    29   16   17 1
    30   17   18 2
    31   17   37 1
    32   18   24 1
    33   18   19 1
    34   19   20 1
    35   19   38 1
    36   19   39 1
    37   20   21 1
    38   20   40 1
    39   20   41 1
    40   21   22 1
    41   21   42 1
    42   21   43 1
    43   22   23 1
    44   22   44 1
    45   22   45 1
    46   23   24 1
    47   23   46 1
    48   23   47 1
    49   24   48 1
    50   24   49 1
    51   25   26 1
    52   26   27 1
    53   26   50 1
    54   26   51 1
@<TRIPOS>MOLECULE
CHEMBL13920
   48    49     0     0     0
SMALL
USER_CHARGES

@<TRIPOS>ATOM
      1 C1         -0.0187    1.5258    0.0104 C.3       1 <0>        -0.1364
      2 C2          0.0021   -0.0041    0.0020 C.3       1 <0>        -0.0517
      3 C3         -1.4208   -0.5776    0.2013 C.3       1 <0>         0.0542
      4 O1         -1.4944   -0.7620    1.6248 O.3       1 <0>        -0.2910
      5 C4         -0.2449   -0.9741    2.1168 C.ar      1 <0>         0.1526
      6 C5          0.7294   -0.5433    1.2192 C.ar      1 <0>        -0.1754
      7 C6          2.0544   -0.6499    1.5157 C.ar      1 <0>        -0.0108
      8 C7          2.4559   -1.2073    2.7370 C.ar      1 <0>        -0.2021
      9 C8          1.4846   -1.6506    3.6432 C.ar      1 <0>        -0.0390
     10 C9          0.1507   -1.5340    3.3336 C.ar      1 <0>        -0.1041
     11 C10        -0.8905   -2.0129    4.3121 C.3       1 <0>        -0.0219
     12 C11        -0.2005   -2.5788    5.5549 C.3       1 <0>        -0.1480
     13 C12        -1.7880   -0.8414    4.7159 C.3       1 <0>        -0.1415
     14 C13        -1.7403   -3.1048    3.6589 C.3       1 <0>        -0.1417
     15 C14         3.8828   -1.3260    3.0636 C.2       1 <0>         0.4014
     16 O2          4.7197   -0.9407    2.2746 O.2       1 <0>        -0.4542
     17 C15         4.3073   -1.9265    4.3789 C.3       1 <0>        -0.1674
     18 C16         5.8347   -1.9326    4.4676 C.3       1 <0>        -0.1067
     19 C17         6.2657   -2.5422    5.8030 C.3       1 <0>        -0.0125
     20 C18         7.7352   -2.5480    5.8883 C.1       1 <0>        -0.1917
     21 C19         8.9072   -2.5526    5.9563 C.1       1 <0>        -0.2057
     22 C20         0.6299   -0.5328   -1.2892 C.3       1 <0>        -0.1380
     23 H1          1.0039    1.9031    0.0027 H         1 <0>         0.0641
     24 H2         -0.5459    1.8868   -0.8726 H         1 <0>         0.0661
     25 H3         -0.5289    1.8773    0.9072 H         1 <0>         0.0606
     26 H4         -2.1745    0.1343   -0.1352 H         1 <0>         0.1100
     27 H5         -1.5291   -1.5301   -0.3174 H         1 <0>         0.0817
     28 H6          2.7954   -0.3053    0.8096 H         1 <0>         0.1329
     29 H7          1.7840   -2.0846    4.5857 H         1 <0>         0.1451
     30 H8          0.4049   -1.8009    6.0202 H         1 <0>         0.0599
     31 H9         -0.9536   -2.9252    6.2626 H         1 <0>         0.0625
     32 H10         0.4389   -3.4134    5.2672 H         1 <0>         0.0598
     33 H11        -2.2796   -0.4383    3.8305 H         1 <0>         0.0642
     34 H12        -2.5411   -1.1878    5.4237 H         1 <0>         0.0592
     35 H13        -1.1826   -0.0636    5.1812 H         1 <0>         0.0541
     36 H14        -1.1009   -3.9394    3.3712 H         1 <0>         0.0539
     37 H15        -2.4934   -3.4512    4.3667 H         1 <0>         0.0595
     38 H16        -2.2319   -2.7017    2.7735 H         1 <0>         0.0631
     39 H17         3.8982   -1.3344    5.1976 H         1 <0>         0.1024
     40 H18         3.9353   -2.9487    4.4486 H         1 <0>         0.1024
     41 H19         6.2438   -2.5247    3.6490 H         1 <0>         0.0733
     42 H20         6.2067   -0.9104    4.3979 H         1 <0>         0.0733
     43 H21         5.8566   -1.9501    6.6216 H         1 <0>         0.0876
     44 H22         5.8937   -3.5644    5.8727 H         1 <0>         0.0876
     45 H23         9.9555   -2.5568    6.0171 H         1 <0>         0.2169
     46 H24         1.6576   -0.1776   -1.3654 H         1 <0>         0.0653
     47 H25         0.6221   -1.6227   -1.2772 H         1 <0>         0.0609
     48 H26         0.0574   -0.1747   -2.1448 H         1 <0>         0.0656
@<TRIPOS>BOND
     1    1    2 1
     2    1   23 1
     3    1   24 1
     4    1   25 1
     5    2    6 1
     6    2    3 1
     7    2   22 1
     8    3    4 1
     9    3   26 1
    10    3   27 1
    11    4    5 1
    12    5   10 ar
    13    5    6 ar
    14    6    7 ar
    15    7    8 ar
    16    7   28 1
    17    8    9 ar
    18    8   15 1
    19    9   10 ar
    20    9   29 1
    21   10   11 1
    22   11   12 1
    23   11   13 1
    24   11   14 1
    25   12   30 1
    26   12   31 1
    27   12   32 1
    28   13   33 1
    29   13   34 1
    30   13   35 1
    31   14   36 1
    32   14   37 1
    33   14   38 1
    34   15   16 2
    35   15   17 1
    36   17   18 1
    37   17   39 1
    38   17   40 1
    39   18   19 1
    40   18   41 1
    41   18   42 1
    42   19   20 1
    43   19   43 1
    44   19   44 1
    45   20   21 3
    46   21   45 1
    47   22   46 1
    48   22   47 1
    49   22   48 1
@<TRIPOS>MOLECULE
CHEMBL214101
   34    37     0     0     0
SMALL
USER_CHARGES

@<TRIPOS>ATOM
      1 C1         -0.0167    1.3793    0.0096 C.ar      1 <0>        -0.1140
      2 C2          1.1685    2.0931    0.0021 C.ar      1 <0>        -0.1200
      3 C3          2.3774    1.4283   -0.0135 C.ar      1 <0>        -0.0961
      4 C4          2.4030    0.0335   -0.0212 C.ar      1 <0>        -0.0200
      5 C5          1.2045   -0.6805   -0.0131 C.ar      1 <0>        -0.0915
      6 C6          0.0021   -0.0041    0.0020 C.ar      1 <0>        -0.1177
      7 C7          3.6970   -0.6862   -0.0384 C.2       1 <0>        -0.1771
      8 C8          4.1743   -1.4919    0.9526 C.2       1 <0>        -0.0082
      9 C9          5.5191   -1.9950    0.4826 C.3       1 <0>         0.0669
     10 O1          5.7408   -1.4207   -0.8084 O.3       1 <0>        -0.3185
     11 C10         4.6800   -0.6581   -1.1278 C.2       1 <0>         0.5086
     12 O2          4.5554   -0.0349   -2.1640 O.2       1 <0>        -0.4525
     13 C11         3.5127   -1.8078    2.2239 C.ar      1 <0>        -0.0879
     14 C12         3.2822   -0.7959    3.1653 C.ar      1 <0>        -0.0802
     15 C13         2.6660   -1.0921    4.3476 C.ar      1 <0>        -0.1056
     16 C14         2.2655   -2.4027    4.6187 C.ar      1 <0>         0.0727
     17 C15         2.4943   -3.4131    3.6816 C.ar      1 <0>        -0.1069
     18 C16         3.1054   -3.1205    2.4957 C.ar      1 <0>        -0.0900
     19 C17         1.5988   -2.7211    5.9000 C.2       1 <0>         0.0664
     20 N1          1.1628   -3.9180    6.2976 N.2       1 <0>        -0.3635
     21 N2          0.6449   -3.7719    7.4691 N.2       1 <0>        -0.1880
     22 N3          0.7366   -2.5381    7.8234 N.2       1 <0>        -0.1879
     23 N4          1.3200   -1.8690    6.8885 N.2       1 <0>        -0.3630
     24 H1         -0.9604    1.9042    0.0260 H         1 <0>         0.1219
     25 H2          1.1474    3.1729    0.0082 H         1 <0>         0.1236
     26 H3          3.3019    1.9865   -0.0200 H         1 <0>         0.1205
     27 H4          1.2179   -1.7604   -0.0194 H         1 <0>         0.1223
     28 H5         -0.9264   -0.5556    0.0083 H         1 <0>         0.1244
     29 H6          6.2997   -1.6750    1.1728 H         1 <0>         0.1256
     30 H7          5.5066   -3.0825    0.4104 H         1 <0>         0.1240
     31 H8          3.5920    0.2174    2.9563 H         1 <0>         0.1210
     32 H9          2.4884   -0.3126    5.0737 H         1 <0>         0.1336
     33 H10         2.1842   -4.4258    3.8934 H         1 <0>         0.1343
     34 H11         3.2781   -3.9012    1.7697 H         1 <0>         0.1230
@<TRIPOS>BOND
     1    1    6 ar
     2    1    2 ar
     3    1   24 1
     4    2    3 ar
     5    2   25 1
     6    3    4 ar
     7    3   26 1
     8    4    5 ar
     9    4    7 1
    10    5    6 ar
    11    5   27 1
    12    6   28 1
    13    7   11 1
    14    7    8 2
    15    8    9 1
    16    8   13 1
    17    9   10 1
    18    9   29 1
    19    9   30 1
    20   10   11 1
    21   11   12 2
    22   13   18 ar
    23   13   14 ar
    24   14   15 ar
    25   14   31 1
    26   15   16 ar
    27   15   32 1
    28   16   17 ar
    29   16   19 1
    30   17   18 ar
    31   17   33 1
    32   18   34 1
    33   19   20 2
    34   19   23 1
    35   20   21 1
    36   21   22 2
    37   22   23 1
@<TRIPOS>MOLECULE
CHEMBL213338
   39    42     0     0     0
SMALL
USER_CHARGES

@<TRIPOS>ATOM
      1 C1          0.0477    1.5033    0.0091 C.3       1 <0>        -0.1184
      2 C2          0.0528   -0.0036    0.0012 C.ar      1 <0>        -0.0697
      3 C3          0.5722   -0.6963    1.0804 C.ar      1 <0>        -0.1155
      4 C4          0.5802   -2.0759    1.0792 C.ar      1 <0>        -0.0888
      5 C5          0.0626   -2.7726   -0.0133 C.ar      1 <0>        -0.0521
      6 C6         -0.4601   -2.0682   -1.0984 C.ar      1 <0>        -0.0825
      7 C7         -0.4670   -0.6886   -1.0826 C.ar      1 <0>        -0.1238
      8 C8          0.0685   -4.2518   -0.0214 C.2       1 <0>         0.1426
      9 C9          0.0751   -5.0559   -1.1262 C.2       1 <0>        -0.2163
     10 C10         0.0791   -6.3816   -0.6909 C.2       1 <0>        -0.0237
     11 N1          0.0751   -6.3922    0.6184 N.2       1 <0>        -0.2226
     12 N2          0.0744   -5.0677    1.0742 N.pl3     1 <0>        -0.2841
     13 C11         0.0759   -4.6547    2.4109 C.ar      1 <0>         0.0954
     14 C12        -0.7909   -3.6511    2.8278 C.ar      1 <0>        -0.1017
     15 C13        -0.7916   -3.2422    4.1438 C.ar      1 <0>        -0.0920
     16 C14         0.0786   -3.8371    5.0583 C.ar      1 <0>         0.0713
     17 C15         0.9474   -4.8447    4.6369 C.ar      1 <0>        -0.0943
     18 C16         0.9402   -5.2527    3.3207 C.ar      1 <0>        -0.0924
     19 C17         0.0806   -3.4000    6.4718 C.2       1 <0>         0.0664
     20 N3          0.8511   -3.8735    7.4529 N.2       1 <0>        -0.3613
     21 N4          0.5464   -3.2316    8.5286 N.2       1 <0>        -0.1861
     22 N5         -0.3799   -2.3777    8.2658 N.2       1 <0>        -0.1863
     23 N6         -0.6838   -2.4508    7.0151 N.2       1 <0>        -0.3615
     24 C18         0.0866   -7.5985   -1.5797 C.3       1 <0>         0.5590
     25 F1          1.4079   -7.9699   -1.8507 F         1 <0>        -0.1683
     26 F2         -0.5707   -8.6515   -0.9343 F         1 <0>        -0.1665
     27 F3         -0.5704   -7.3040   -2.7792 F         1 <0>        -0.1660
     28 H1         -0.8788    1.8612    0.4581 H         1 <0>         0.0742
     29 H2          0.8964    1.8666    0.5886 H         1 <0>         0.0688
     30 H3          0.1218    1.8722   -1.0139 H         1 <0>         0.0670
     31 H4          0.9725   -0.1558    1.9254 H         1 <0>         0.1296
     32 H5          0.9865   -2.6155    1.9219 H         1 <0>         0.1333
     33 H6         -0.8618   -2.6017   -1.9471 H         1 <0>         0.1296
     34 H7         -0.8753   -0.1421   -1.9199 H         1 <0>         0.1275
     35 H8          0.0770   -4.7242   -2.1540 H         1 <0>         0.1649
     36 H9         -1.4641   -3.1912    2.1196 H         1 <0>         0.1285
     37 H10        -1.4648   -2.4620    4.4670 H         1 <0>         0.1424
     38 H11         1.6222   -5.3066    5.3424 H         1 <0>         0.1423
     39 H12         1.6096   -6.0350    2.9947 H         1 <0>         0.1311
@<TRIPOS>BOND
     1    1    2 1
     2    1   28 1
     3    1   29 1
     4    1   30 1
     5    2    7 ar
     6    2    3 ar
     7    3    4 ar
     8    3   31 1
     9    4    5 ar
    10    4   32 1
    11    5    6 ar
    12    5    8 1
    13    6    7 ar
    14    6   33 1
    15    7   34 1
    16    8   12 1
    17    8    9 2
    18    9   10 1
    19    9   35 1
    20   10   11 2
    21   10   24 1
    22   11   12 1
    23   12   13 1
    24   13   18 ar
    25   13   14 ar
    26   14   15 ar
    27   14   36 1
    28   15   16 ar
    29   15   37 1
    30   16   17 ar
    31   16   19 1
    32   17   18 ar
    33   17   38 1
    34   18   39 1
    35   19   20 2
    36   19   23 1
    37   20   21 1
    38   21   22 2
    39   22   23 1
    40   24   25 1
    41   24   26 1
    42   24   27 1
@<TRIPOS>MOLECULE
CHEMBL132311
   61    65     0     0     0
SMALL
USER_CHARGES

@<TRIPOS>ATOM
      1 C1          0.0098    1.3948   -0.0322 C.ar      1 <0>        -0.1596
      2 C2          0.0262    0.0122   -0.0565 C.ar      1 <0>        -0.0699
      3 C3          1.2294   -0.6656   -0.0662 C.ar      1 <0>        -0.1851
      4 C4          2.4241    0.0431   -0.0515 C.ar      1 <0>         0.1997
      5 C5          2.4040    1.4318   -0.0272 C.ar      1 <0>        -0.1890
      6 C6          1.1973    2.1033   -0.0176 C.ar      1 <0>        -0.0727
      7 N1          3.6428   -0.6393   -0.0608 N.pl3     1 <0>        -0.6440
      8 C7          4.9167    0.0890   -0.1659 C.3       1 <0>         0.1019
      9 C8          5.8482   -0.3986    0.9487 C.3       1 <0>        -0.0222
     10 N2          5.9772   -1.8594    0.8734 N.4       1 <0>        -0.3783
     11 C9          4.6785   -2.4905    1.1397 C.3       1 <0>        -0.0309
     12 C10         3.6892   -2.1062    0.0403 C.3       1 <0>         0.1029
     13 C11         6.9547   -2.3149    1.8709 C.3       1 <0>         0.0115
     14 C12         7.1834   -3.8192    1.7109 C.3       1 <0>        -0.1403
     15 S1          8.3905   -4.3817    2.9426 S.3       1 <0>        -0.1912
     16 C13         8.6626   -6.1260    2.5257 C.3       1 <0>         0.0405
     17 C14         9.5779   -6.1436    1.3634 C.ar      1 <0>        -0.0583
     18 C15        10.8211   -5.5383    1.6415 C.ar      1 <0>        -0.1024
     19 C16        11.8332   -5.5097    0.7162 C.ar      1 <0>        -0.1142
     20 C17        11.6317   -6.0995   -0.5188 C.ar      1 <0>        -0.1100
     21 C18        10.4124   -6.6654   -0.7943 C.ar      1 <0>        -0.1226
     22 C19         9.3623   -6.6557    0.1446 C.ar      1 <0>        -0.1065
     23 C20         8.0844   -7.1870   -0.4651 C.3       1 <0>         0.1137
     24 O1          7.3190   -7.9854    0.3871 O.3       1 <0>        -0.3128
     25 C21         6.7828   -7.5149    1.5490 C.ar      1 <0>         0.1281
     26 C22         7.3323   -6.7731    2.5316 C.ar      1 <0>        -0.1594
     27 C23         6.6048   -6.5369    3.7066 C.ar      1 <0>        -0.0567
     28 C24         5.2993   -6.9913    3.8527 C.ar      1 <0>        -0.1438
     29 C25         4.7046   -7.6913    2.7967 C.ar      1 <0>        -0.0487
     30 C26         5.4391   -7.9464    1.6726 C.ar      1 <0>        -0.1667
     31 C27         4.5547   -6.7410    5.0980 C.2       1 <0>         0.5186
     32 O2          5.0845   -6.1284    6.0149 O.co2     1 <0>        -0.6812
     33 O3          3.4062   -7.1455    5.2158 O.co2     1 <0>        -0.6807
     34 H1         -0.9325    1.9225   -0.0292 H         1 <0>         0.1247
     35 H2         -0.9030   -0.5381   -0.0675 H         1 <0>         0.1279
     36 H3          1.2415   -1.7453   -0.0848 H         1 <0>         0.1245
     37 H4          3.3311    1.9858   -0.0154 H         1 <0>         0.1217
     38 H5          1.1809    3.1830    0.0014 H         1 <0>         0.1261
     39 H6          5.3722   -0.1080   -1.1363 H         1 <0>         0.0862
     40 H7          4.7378    1.1582   -0.0521 H         1 <0>         0.1261
     41 H8          6.8299    0.0596    0.8284 H         1 <0>         0.1405
     42 H9          5.4331   -0.1199    1.9172 H         1 <0>         0.1349
     43 H10         4.7981   -3.5737    1.1602 H         1 <0>         0.1434
     44 H11         4.2988   -2.1485    2.1025 H         1 <0>         0.1388
     45 H12         2.6992   -2.4876    0.2903 H         1 <0>         0.1282
     46 H13         4.0187   -2.5285   -0.9090 H         1 <0>         0.0863
     47 H14         7.8967   -1.7865    1.7241 H         1 <0>         0.1395
     48 H15         6.5751   -2.1095    2.8718 H         1 <0>         0.1415
     49 H16         6.2414   -4.3476    1.8577 H         1 <0>         0.1073
     50 H17         7.5630   -4.0246    0.7100 H         1 <0>         0.0966
     51 H18         9.2173   -6.5493    3.3631 H         1 <0>         0.1326
     52 H19        10.9805   -5.0855    2.6089 H         1 <0>         0.1282
     53 H20        12.7741   -5.0331    0.9484 H         1 <0>         0.1290
     54 H21        12.4218   -6.1141   -1.2549 H         1 <0>         0.1281
     55 H22        10.2538   -7.1307   -1.7559 H         1 <0>         0.1249
     56 H23         7.4761   -6.3403   -0.7830 H         1 <0>         0.0514
     57 H24         8.3412   -7.7726   -1.3478 H         1 <0>         0.1150
     58 H25         7.0681   -5.9903    4.5147 H         1 <0>         0.1434
     59 H26         3.6802   -8.0254    2.8691 H         1 <0>         0.1374
     60 H27         4.9835   -8.4898    0.8580 H         1 <0>         0.1269
     61 H28         6.2941   -2.1207   -0.0482 H         1 <0>         0.4195
@<TRIPOS>BOND
     1    1    6 ar
     2    1    2 ar
     3    1   34 1
     4    2    3 ar
     5    2   35 1
     6    3    4 ar
     7    3   36 1
     8    4    5 ar
     9    4    7 1
    10    5    6 ar
    11    5   37 1
    12    6   38 1
    13    7   12 1
    14    7    8 1
    15    8    9 1
    16    8   39 1
    17    8   40 1
    18    9   10 1
    19    9   41 1
    20    9   42 1
    21   10   11 1
    22   10   13 1
    23   10   61 1
    24   11   12 1
    25   11   43 1
    26   11   44 1
    27   12   45 1
    28   12   46 1
    29   13   14 1
    30   13   47 1
    31   13   48 1
    32   14   15 1
    33   14   49 1
    34   14   50 1
    35   15   16 1
    36   16   26 1
    37   16   17 1
    38   16   51 1
    39   17   22 ar
    40   17   18 ar
    41   18   19 ar
    42   18   52 1
    43   19   20 ar
    44   19   53 1
    45   20   21 ar
    46   20   54 1
    47   21   22 ar
    48   21   55 1
    49   22   23 1
    50   23   24 1
    51   23   56 1
    52   23   57 1
    53   24   25 1
    54   25   30 ar
    55   25   26 ar
    56   26   27 ar
    57   27   28 ar
    58   27   58 1
    59   28   29 ar
    60   28   31 1
    61   29   30 ar
    62   29   59 1
    63   30   60 1
    64   31   32 2
    65   31   33 1
@<TRIPOS>MOLECULE
CHEMBL132311__1
   60    64     0     0     0
SMALL
USER_CHARGES

@<TRIPOS>ATOM
      1 C1          0.0096    1.3974   -0.0312 C.ar      1 <0>        -0.1853
      2 C2          1.1972    2.1056   -0.0161 C.ar      1 <0>        -0.0723
      3 C3          2.4038    1.4338   -0.0252 C.ar      1 <0>        -0.2041
      4 C4          2.4235    0.0450   -0.0497 C.ar      1 <0>         0.2235
      5 C5          1.2286   -0.6633   -0.0648 C.ar      1 <0>        -0.2001
      6 C6          0.0256    0.0148   -0.0556 C.ar      1 <0>        -0.0699
      7 N1          3.6420   -0.6376   -0.0594 N.pl3     1 <0>        -0.6294
      8 C7          4.9150    0.0915   -0.1649 C.3       1 <0>         0.1278
      9 C8          5.8415   -0.3813    0.9604 C.3       1 <0>         0.0402
     10 N2          5.9581   -1.8449    0.9118 N.3       1 <0>        -0.5318
     11 C9          4.6611   -2.4911    1.1528 C.3       1 <0>         0.0333
     12 C10         3.6865   -2.1043    0.0416 C.3       1 <0>         0.1281
     13 C11         6.9699   -2.3242    1.8629 C.3       1 <0>         0.0749
     14 C12         7.2423   -3.8088    1.6126 C.3       1 <0>        -0.0777
     15 S1          8.4917   -4.4007    2.7871 S.3       1 <0>        -0.2411
     16 C13         8.8097   -6.1088    2.2657 C.3       1 <0>         0.0356
     17 C14         9.7011   -6.0307    1.0875 C.ar      1 <0>        -0.0458
     18 C15        10.9302   -5.4021    1.3765 C.ar      1 <0>        -0.0986
     19 C16        11.9217   -5.2881    0.4357 C.ar      1 <0>        -0.1197
     20 C17        11.7135   -5.8132   -0.8272 C.ar      1 <0>        -0.1170
     21 C18        10.5072   -6.4018   -1.1118 C.ar      1 <0>        -0.1231
     22 C19         9.4767   -6.4794   -0.1545 C.ar      1 <0>        -0.1063
     23 C20         8.2039   -7.0165   -0.7697 C.3       1 <0>         0.1120
     24 O1          7.4815   -7.8864    0.0495 O.3       1 <0>        -0.3165
     25 C21         6.9548   -7.5003    1.2463 C.ar      1 <0>         0.1262
     26 C22         7.5008   -6.7979    2.2594 C.ar      1 <0>        -0.1481
     27 C23         6.7905   -6.6526    3.4593 C.ar      1 <0>        -0.0503
     28 C24         5.5032   -7.1567    3.6035 C.ar      1 <0>        -0.1476
     29 C25         4.9092   -7.8146    2.5203 C.ar      1 <0>        -0.0524
     30 C26         5.6281   -7.9815    1.3700 C.ar      1 <0>        -0.1666
     31 C27         4.7767   -7.0017    4.8748 C.2       1 <0>         0.5223
     32 O2          5.3058   -6.4253    5.8153 O.co2     1 <0>        -0.6834
     33 O3          3.6441   -7.4494    4.9906 O.co2     1 <0>        -0.6878
     34 H1         -0.9326    1.9252   -0.0195 H         1 <0>         0.1153
     35 H2          1.1812    3.1853    0.0025 H         1 <0>         0.1177
     36 H3          3.3310    1.9875   -0.0138 H         1 <0>         0.1200
     37 H4          1.2404   -1.7431   -0.0842 H         1 <0>         0.1225
     38 H5         -0.9038   -0.5352   -0.0674 H         1 <0>         0.1195
     39 H6          5.3765   -0.1153   -1.1304 H         1 <0>         0.0691
     40 H7          4.7334    1.1616   -0.0643 H         1 <0>         0.0855
     41 H8          6.8270    0.0665    0.8325 H         1 <0>         0.0851
     42 H9          5.4273   -0.0812    1.9229 H         1 <0>         0.0401
     43 H10         4.7905   -3.5733    1.1645 H         1 <0>         0.0908
     44 H11         4.2633   -2.1616    2.1127 H         1 <0>         0.0435
     45 H12         2.6931   -2.4853    0.2786 H         1 <0>         0.0875
     46 H13         4.0277   -2.5262   -0.9037 H         1 <0>         0.0689
     47 H14         7.8916   -1.7580    1.7289 H         1 <0>         0.0827
     48 H15         6.6048   -2.1884    2.8809 H         1 <0>         0.0470
     49 H16         6.3206   -4.3750    1.7466 H         1 <0>         0.0847
     50 H17         7.6074   -3.9446    0.5946 H         1 <0>         0.0824
     51 H18         9.3945   -6.5606    3.0670 H         1 <0>         0.1232
     52 H19        11.0951   -5.0000    2.3652 H         1 <0>         0.1279
     53 H20        12.8518   -4.7952    0.6772 H         1 <0>         0.1249
     54 H21        12.4884   -5.7603   -1.5775 H         1 <0>         0.1234
     55 H22        10.3435   -6.8166   -2.0955 H         1 <0>         0.1213
     56 H23         7.5630   -6.1733   -1.0271 H         1 <0>         0.0575
     57 H24         8.4608   -7.5425   -1.6892 H         1 <0>         0.1110
     58 H25         7.2529   -6.1379    4.2886 H         1 <0>         0.1419
     59 H26         3.8974   -8.1854    2.5926 H         1 <0>         0.1338
     60 H27         5.1732   -8.4923    0.5342 H         1 <0>         0.1235
@<TRIPOS>BOND
     1    1    6 ar
     2    1    2 ar
     3    1   34 1
     4    2    3 ar
     5    2   35 1
     6    3    4 ar
     7    3   36 1
     8    4    5 ar
     9    4    7 1
    10    5    6 ar
    11    5   37 1
    12    6   38 1
    13    7   12 1
    14    7    8 1
    15    8    9 1
    16    8   39 1
    17    8   40 1
    18    9   10 1
    19    9   41 1
    20    9   42 1
    21   10   11 1
    22   10   13 1
    23   11   12 1
    24   11   43 1
    25   11   44 1
    26   12   45 1
    27   12   46 1
    28   13   14 1
    29   13   47 1
    30   13   48 1
    31   14   15 1
    32   14   49 1
    33   14   50 1
    34   15   16 1
    35   16   26 1
    36   16   17 1
    37   16   51 1
    38   17   22 ar
    39   17   18 ar
    40   18   19 ar
    41   18   52 1
    42   19   20 ar
    43   19   53 1
    44   20   21 ar
    45   20   54 1
    46   21   22 ar
    47   21   55 1
    48   22   23 1
    49   23   24 1
    50   23   56 1
    51   23   57 1
    52   24   25 1
    53   25   30 ar
    54   25   26 ar
    55   26   27 ar
    56   27   28 ar
    57   27   58 1
    58   28   29 ar
    59   28   31 1
    60   29   30 ar
    61   29   59 1
    62   30   60 1
    63   31   32 2
    64   31   33 1
@<TRIPOS>MOLECULE
CHEMBL132311__2
   61    65     0     0     0
SMALL
USER_CHARGES

@<TRIPOS>ATOM
      1 C1         -0.0206    1.3758    0.0173 C.ar      1 <0>        -0.1605
      2 C2         -0.0015   -0.0068   -0.0050 C.ar      1 <0>        -0.0712
      3 C3          1.2031   -0.6820   -0.0219 C.ar      1 <0>        -0.1879
      4 C4          2.3963    0.0291   -0.0164 C.ar      1 <0>         0.2010
      5 C5          2.3735    1.4179    0.0060 C.ar      1 <0>        -0.1884
      6 C6          1.1654    2.0868    0.0229 C.ar      1 <0>        -0.0711
      7 N1          3.6164   -0.6507   -0.0330 N.pl3     1 <0>        -0.6439
      8 C7          4.8880    0.0802   -0.1462 C.3       1 <0>         0.0996
      9 C8          5.8275   -0.4049    0.9627 C.3       1 <0>        -0.0215
     10 N2          5.9591   -1.8654    0.8873 N.4       1 <0>        -0.3799
     11 C9          4.6634   -2.4991    1.1620 C.3       1 <0>        -0.0266
     12 C10         3.6665   -2.1174    0.0686 C.3       1 <0>         0.1014
     13 C11         6.9437   -2.3184    1.8789 C.3       1 <0>         0.0112
     14 C12         7.1746   -3.8223    1.7182 C.3       1 <0>        -0.1390
     15 S1          8.3905   -4.3817    2.9426 S.3       1 <0>        -0.1899
     16 C13         8.6626   -6.1260    2.5257 C.3       1 <0>         0.0401
     17 C14         7.4087   -6.8387    2.8558 C.ar      1 <0>        -0.0656
     18 C15         6.9702   -6.5858    4.1722 C.ar      1 <0>        -0.1016
     19 C16         5.7929   -7.1004    4.6524 C.ar      1 <0>        -0.1186
     20 C17         5.0105   -7.8796    3.8191 C.ar      1 <0>        -0.1099
     21 C18         5.4526   -8.1437    2.5473 C.ar      1 <0>        -0.1257
     22 C19         6.6824   -7.6470    2.0726 C.ar      1 <0>        -0.1008
     23 C20         7.0100   -8.2199    0.7120 C.3       1 <0>         0.1066
     24 O1          7.6014   -7.3175   -0.1743 O.3       1 <0>        -0.3185
     25 C21         8.8081   -6.7319    0.0705 C.ar      1 <0>         0.1213
     26 C22         9.2888   -6.1462    1.1856 C.ar      1 <0>        -0.1538
     27 C23        10.5231   -5.4829    1.1391 C.ar      1 <0>        -0.0538
     28 C24        11.2974   -5.4759   -0.0152 C.ar      1 <0>        -0.1396
     29 C25        10.8310   -6.1551   -1.1466 C.ar      1 <0>        -0.0477
     30 C26         9.6093   -6.7658   -1.0973 C.ar      1 <0>        -0.1636
     31 C27        12.5866   -4.7654   -0.0474 C.2       1 <0>         0.5185
     32 O2         12.9844   -4.1746    0.9473 O.co2     1 <0>        -0.6821
     33 O3         13.2599   -4.7658   -1.0687 O.co2     1 <0>        -0.6799
     34 H1         -0.9640    1.9015    0.0259 H         1 <0>         0.1246
     35 H2         -0.9296   -0.5591   -0.0089 H         1 <0>         0.1267
     36 H3          1.2173   -1.7618   -0.0390 H         1 <0>         0.1226
     37 H4          3.2994    1.9738    0.0107 H         1 <0>         0.1232
     38 H5          1.1469    3.1665    0.0404 H         1 <0>         0.1269
     39 H6          5.3379   -0.1162   -1.1194 H         1 <0>         0.0896
     40 H7          4.7076    1.1491   -0.0319 H         1 <0>         0.1268
     41 H8          6.8074    0.0553    0.8361 H         1 <0>         0.1440
     42 H9          5.4179   -0.1266    1.9337 H         1 <0>         0.1327
     43 H10         4.7854   -3.5821    1.1822 H         1 <0>         0.1405
     44 H11         4.2889   -2.1574    2.1269 H         1 <0>         0.1328
     45 H12         2.6788   -2.5008    0.3249 H         1 <0>         0.1251
     46 H13         3.9909   -2.5395   -0.8826 H         1 <0>         0.0881
     47 H14         7.8837   -1.7881    1.7260 H         1 <0>         0.1444
     48 H15         6.5699   -2.1134    2.8820 H         1 <0>         0.1361
     49 H16         6.2346   -4.3526    1.8710 H         1 <0>         0.0986
     50 H17         7.5484   -4.0274    0.7150 H         1 <0>         0.1070
     51 H18         9.4165   -6.4854    3.2261 H         1 <0>         0.1317
     52 H19         7.5775   -5.9704    4.8194 H         1 <0>         0.1322
     53 H20         5.4813   -6.9002    5.6669 H         1 <0>         0.1283
     54 H21         4.0664   -8.2742    4.1645 H         1 <0>         0.1271
     55 H22         4.8417   -8.7479    1.8930 H         1 <0>         0.1246
     56 H23         7.6865   -9.0638    0.8471 H         1 <0>         0.0652
     57 H24         6.0885   -8.5904    0.2629 H         1 <0>         0.1142
     58 H25        10.8795   -4.9666    2.0182 H         1 <0>         0.1391
     59 H26        11.4278   -6.1958   -2.0458 H         1 <0>         0.1378
     60 H27         9.2456   -7.2871   -1.9705 H         1 <0>         0.1266
     61 H28         6.2708   -2.1265   -0.0361 H         1 <0>         0.4249
@<TRIPOS>BOND
     1    1    6 ar
     2    1    2 ar
     3    1   34 1
     4    2    3 ar
     5    2   35 1
     6    3    4 ar
     7    3   36 1
     8    4    5 ar
     9    4    7 1
    10    5    6 ar
    11    5   37 1
    12    6   38 1
    13    7   12 1
    14    7    8 1
    15    8    9 1
    16    8   39 1
    17    8   40 1
    18    9   10 1
    19    9   41 1
    20    9   42 1
    21   10   11 1
    22   10   13 1
    23   10   61 1
    24   11   12 1
    25   11   43 1
    26   11   44 1
    27   12   45 1
    28   12   46 1
    29   13   14 1
    30   13   47 1
    31   13   48 1
    32   14   15 1
    33   14   49 1
    34   14   50 1
    35   15   16 1
    36   16   26 1
    37   16   17 1
    38   16   51 1
    39   17   22 ar
    40   17   18 ar
    41   18   19 ar
    42   18   52 1
    43   19   20 ar
    44   19   53 1
    45   20   21 ar
    46   20   54 1
    47   21   22 ar
    48   21   55 1
    49   22   23 1
    50   23   24 1
    51   23   56 1
    52   23   57 1
    53   24   25 1
    54   25   30 ar
    55   25   26 ar
    56   26   27 ar
    57   27   28 ar
    58   27   58 1
    59   28   29 ar
    60   28   31 1
    61   29   30 ar
    62   29   59 1
    63   30   60 1
    64   31   32 2
    65   31   33 1
@<TRIPOS>MOLECULE
CHEMBL132311__3
   60    64     0     0     0
SMALL
USER_CHARGES

@<TRIPOS>ATOM
      1 C1         -0.0206    1.3755    0.0151 C.ar      1 <0>        -0.1862
      2 C2          1.1654    2.0866    0.0216 C.ar      1 <0>        -0.0708
      3 C3          2.3735    1.4176    0.0058 C.ar      1 <0>        -0.2032
      4 C4          2.3964    0.0289   -0.0166 C.ar      1 <0>         0.2245
      5 C5          1.2032   -0.6823   -0.0231 C.ar      1 <0>        -0.2030
      6 C6         -0.0014   -0.0070   -0.0072 C.ar      1 <0>        -0.0711
      7 N1          3.6165   -0.6509   -0.0331 N.pl3     1 <0>        -0.6288
      8 C7          4.8870    0.0812   -0.1465 C.3       1 <0>         0.1254
      9 C8          5.8213   -0.3887    0.9736 C.3       1 <0>         0.0414
     10 N2          5.9411   -1.8520    0.9252 N.3       1 <0>        -0.5308
     11 C9          4.6470   -2.5012    1.1742 C.3       1 <0>         0.0382
     12 C10         3.6650   -2.1174    0.0685 C.3       1 <0>         0.1268
     13 C11         6.9595   -2.3284    1.8707 C.3       1 <0>         0.0759
     14 C12         7.2341   -3.8125    1.6196 C.3       1 <0>        -0.0772
     15 S1          8.4917   -4.4007    2.7871 S.3       1 <0>        -0.2391
     16 C13         8.8097   -6.1088    2.2657 C.3       1 <0>         0.0353
     17 C14         7.5859   -6.8793    2.5777 C.ar      1 <0>        -0.0535
     18 C15         7.1667   -6.7160    3.9145 C.ar      1 <0>        -0.0976
     19 C16         6.0162   -7.2949    4.3863 C.ar      1 <0>        -0.1223
     20 C17         5.2417   -8.0505    3.5244 C.ar      1 <0>        -0.1161
     21 C18         5.6658   -8.2276    2.2315 C.ar      1 <0>        -0.1256
     22 C19         6.8693   -7.6651    1.7632 C.ar      1 <0>        -0.1044
     23 C20         7.1868   -8.1489    0.3660 C.3       1 <0>         0.1110
     24 O1          7.7313   -7.1789   -0.4779 O.3       1 <0>        -0.3170
     25 C21         8.9238   -6.5693   -0.2225 C.ar      1 <0>         0.1236
     26 C22         9.4087   -6.0325    0.9153 C.ar      1 <0>        -0.1425
     27 C23        10.6204   -5.3280    0.8838 C.ar      1 <0>        -0.0475
     28 C24        11.3703   -5.2303   -0.2825 C.ar      1 <0>        -0.1461
     29 C25        10.9023   -5.8590   -1.4421 C.ar      1 <0>        -0.0521
     30 C26         9.7016   -6.5108   -1.4051 C.ar      1 <0>        -0.1651
     31 C27        12.6356   -4.4776   -0.2979 C.2       1 <0>         0.5227
     32 O2         13.0350   -3.9317    0.7215 O.co2     1 <0>        -0.6843
     33 O3         13.2875   -4.3982   -1.3300 O.co2     1 <0>        -0.6878
     34 H1         -0.9640    1.9011    0.0321 H         1 <0>         0.1153
     35 H2          1.1469    3.1663    0.0387 H         1 <0>         0.1185
     36 H3          3.2994    1.9736    0.0105 H         1 <0>         0.1215
     37 H4          1.2174   -1.7621   -0.0409 H         1 <0>         0.1206
     38 H5         -0.9295   -0.5593   -0.0123 H         1 <0>         0.1182
     39 H6          5.3434   -0.1251   -1.1146 H         1 <0>         0.0729
     40 H7          4.7035    1.1509   -0.0455 H         1 <0>         0.0865
     41 H8          6.8049    0.0614    0.8397 H         1 <0>         0.0895
     42 H9          5.4120   -0.0890    1.9384 H         1 <0>         0.0379
     43 H10         4.7791   -3.5831    1.1858 H         1 <0>         0.0873
     44 H11         4.2541   -2.1720    2.1362 H         1 <0>         0.0368
     45 H12         2.6740   -2.5006    0.3115 H         1 <0>         0.0844
     46 H13         4.0016   -2.5391   -0.8786 H         1 <0>         0.0712
     47 H14         7.8791   -1.7601    1.7309 H         1 <0>         0.0886
     48 H15         6.6001   -2.1928    2.8907 H         1 <0>         0.0405
     49 H16         6.3145   -4.3808    1.7594 H         1 <0>         0.0755
     50 H17         7.5935   -3.9480    0.5996 H         1 <0>         0.0933
     51 H18         9.5888   -6.4827    2.9301 H         1 <0>         0.1226
     52 H19         7.7676   -6.1189    4.5844 H         1 <0>         0.1318
     53 H20         5.7194   -7.1629    5.4163 H         1 <0>         0.1245
     54 H21         4.3177   -8.4946    3.8641 H         1 <0>         0.1230
     55 H22         5.0608   -8.8132    1.5552 H         1 <0>         0.1213
     56 H23         7.8920   -8.9767    0.4398 H         1 <0>         0.0600
     57 H24         6.2683   -8.5230   -0.0862 H         1 <0>         0.1103
     58 H25        10.9784   -4.8511    1.7843 H         1 <0>         0.1384
     59 H26        11.4815   -5.8292   -2.3531 H         1 <0>         0.1338
     60 H27         9.3366   -6.9933   -2.2998 H         1 <0>         0.1231
@<TRIPOS>BOND
     1    1    6 ar
     2    1    2 ar
     3    1   34 1
     4    2    3 ar
     5    2   35 1
     6    3    4 ar
     7    3   36 1
     8    4    5 ar
     9    4    7 1
    10    5    6 ar
    11    5   37 1
    12    6   38 1
    13    7   12 1
    14    7    8 1
    15    8    9 1
    16    8   39 1
    17    8   40 1
    18    9   10 1
    19    9   41 1
    20    9   42 1
    21   10   11 1
    22   10   13 1
    23   11   12 1
    24   11   43 1
    25   11   44 1
    26   12   45 1
    27   12   46 1
    28   13   14 1
    29   13   47 1
    30   13   48 1
    31   14   15 1
    32   14   49 1
    33   14   50 1
    34   15   16 1
    35   16   26 1
    36   16   17 1
    37   16   51 1
    38   17   22 ar
    39   17   18 ar
    40   18   19 ar
    41   18   52 1
    42   19   20 ar
    43   19   53 1
    44   20   21 ar
    45   20   54 1
    46   21   22 ar
    47   21   55 1
    48   22   23 1
    49   23   24 1
    50   23   56 1
    51   23   57 1
    52   24   25 1
    53   25   30 ar
    54   25   26 ar
    55   26   27 ar
    56   27   28 ar
    57   27   58 1
    58   28   29 ar
    59   28   31 1
    60   29   30 ar
    61   29   59 1
    62   30   60 1
    63   31   32 2
    64   31   33 1
@<TRIPOS>MOLECULE
CHEMBL434673
   50    52     0     0     0
SMALL
USER_CHARGES

@<TRIPOS>ATOM
      1 C1         -0.3184   -0.3479    2.4598 C.3       1 <0>        -0.1608
      2 C2         -1.5503   -0.7917    1.6683 C.3       1 <0>         0.0926
      3 C3         -2.7450    0.0843    2.0505 C.3       1 <0>        -0.1670
      4 O1         -1.2907   -0.6593    0.2693 O.3       1 <0>        -0.2942
      5 C4         -1.4334   -1.7746   -0.4925 C.2       1 <0>         0.0815
      6 C5         -0.3392   -2.3339   -1.1368 C.2       1 <0>        -0.0672
      7 C6         -0.5174   -3.4936   -1.9218 C.2       1 <0>         0.1034
      8 N1         -1.6967   -4.0365   -2.0429 N.2       1 <0>        -0.2156
      9 N2         -2.8145   -3.4916   -1.4034 N.am      1 <0>        -0.3971
     10 C7         -2.6974   -2.3886   -0.6378 C.2       1 <0>         0.4840
     11 O2         -3.6767   -1.9211   -0.0782 O.2       1 <0>        -0.5167
     12 C8         -4.1241   -4.1286   -1.5629 C.3       1 <0>         0.1668
     13 C9         -4.8290   -3.5362   -2.7558 C.ar      1 <0>        -0.1210
     14 C10        -5.6393   -2.4271   -2.5994 C.ar      1 <0>        -0.0926
     15 C11        -6.2859   -1.8837   -3.6937 C.ar      1 <0>        -0.1252
     16 C12        -6.1219   -2.4490   -4.9445 C.ar      1 <0>        -0.1081
     17 C13        -5.3109   -3.5575   -5.1010 C.ar      1 <0>        -0.1259
     18 C14        -4.6609   -4.0983   -4.0075 C.ar      1 <0>        -0.0928
     19 C15         1.0026   -1.7198   -1.0028 C.ar      1 <0>         0.0071
     20 C16         1.2557   -0.4636   -1.5529 C.ar      1 <0>        -0.1045
     21 C17         2.5073    0.1031   -1.4249 C.ar      1 <0>        -0.0201
     22 C18         3.5101   -0.5725   -0.7529 C.ar      1 <0>        -0.6532
     23 C19         3.2651   -1.8190   -0.2051 C.ar      1 <0>        -0.0216
     24 C20         2.0158   -2.3933   -0.3212 C.ar      1 <0>        -0.1203
     25 S1          5.1061    0.1572   -0.5946 S.o2      1 <0>         2.4982
     26 O3          5.9948   -0.9422   -0.4504 O.2       1 <0>        -0.9355
     27 O4          5.2150    1.0357   -1.7062 O.2       1 <0>        -0.9351
     28 C21         5.0330    1.1080    0.9485 C.3       1 <0>        -0.6502
     29 H1         -0.5164   -0.4488    3.5269 H         1 <0>         0.0765
     30 H2          0.5327   -0.9720    2.1875 H         1 <0>         0.0605
     31 H3         -0.0940    0.6935    2.2289 H         1 <0>         0.0686
     32 H4         -1.7747   -1.8331    1.8993 H         1 <0>         0.0646
     33 H5         -2.9430   -0.0166    3.1176 H         1 <0>         0.0698
     34 H6         -2.5206    1.1257    1.8196 H         1 <0>         0.0634
     35 H7         -3.6226   -0.2319    1.4866 H         1 <0>         0.0787
     36 H8          0.3296   -3.9345   -2.4262 H         1 <0>         0.2003
     37 H9         -3.9911   -5.1998   -1.7145 H         1 <0>         0.1070
     38 H10        -4.7217   -3.9599   -0.6670 H         1 <0>         0.1103
     39 H11        -5.7674   -1.9855   -1.6222 H         1 <0>         0.1288
     40 H12        -6.9194   -1.0177   -3.5714 H         1 <0>         0.1241
     41 H13        -6.6276   -2.0249   -5.7993 H         1 <0>         0.1237
     42 H14        -5.1830   -3.9994   -6.0782 H         1 <0>         0.1248
     43 H15        -4.0244   -4.9621   -4.1304 H         1 <0>         0.1260
     44 H16         0.4737    0.0645   -2.0784 H         1 <0>         0.1352
     45 H17         2.7044    1.0760   -1.8505 H         1 <0>         0.1468
     46 H18         4.0521   -2.3419    0.3181 H         1 <0>         0.1472
     47 H19         1.8244   -3.3645    0.1107 H         1 <0>         0.1368
     48 H20         4.8123    0.4370    1.7786 H         1 <0>         0.1318
     49 H21         5.9925    1.5956    1.1206 H         1 <0>         0.1342
     50 H22         4.2502    1.8628    0.8734 H         1 <0>         0.1322
@<TRIPOS>BOND
     1    1    2 1
     2    1   29 1
     3    1   30 1
     4    1   31 1
     5    2    3 1
     6    2    4 1
     7    2   32 1
     8    3   33 1
     9    3   34 1
    10    3   35 1
    11    4    5 1
    12    5   10 1
    13    5    6 2
    14    6    7 1
    15    6   19 1
    16    7    8 2
    17    7   36 1
    18    8    9 1
    19    9   10 am
    20    9   12 1
    21   10   11 2
    22   12   13 1
    23   12   37 1
    24   12   38 1
    25   13   18 ar
    26   13   14 ar
    27   14   15 ar
    28   14   39 1
    29   15   16 ar
    30   15   40 1
    31   16   17 ar
    32   16   41 1
    33   17   18 ar
    34   17   42 1
    35   18   43 1
    36   19   24 ar
    37   19   20 ar
    38   20   21 ar
    39   20   44 1
    40   21   22 ar
    41   21   45 1
    42   22   23 ar
    43   22   25 1
    44   23   24 ar
    45   23   46 1
    46   24   47 1
    47   25   26 2
    48   25   27 2
    49   25   28 1
    50   28   48 1
    51   28   49 1
    52   28   50 1
@<TRIPOS>MOLECULE
CHEMBL155206
   51    54     0     0     0
SMALL
USER_CHARGES

@<TRIPOS>ATOM
      1 C1         -0.2976    2.1134   -0.3625 C.3       1 <0>        -0.6498
      2 S1         -0.5180    0.3138   -0.4219 S.o2      1 <0>         2.4976
      3 O1          0.1904   -0.3015    0.6452 O.2       1 <0>        -0.9344
      4 O2         -1.8814   -0.0046   -0.6650 O.2       1 <0>        -0.9341
      5 C2          0.3300   -0.1985   -1.8790 C.ar      1 <0>        -0.6474
      6 C3         -0.3131   -0.1511   -3.1030 C.ar      1 <0>        -0.0200
      7 C4          0.3457   -0.5504   -4.2476 C.ar      1 <0>        -0.1097
      8 C5          1.6629   -1.0026   -4.1689 C.ar      1 <0>        -0.0114
      9 C6          2.3059   -1.0481   -2.9319 C.ar      1 <0>        -0.1015
     10 C7          1.6381   -0.6411   -1.7951 C.ar      1 <0>        -0.0177
     11 C8          2.3757   -1.4333   -5.3937 C.2       1 <0>         0.0362
     12 C9          1.9544   -2.5811   -6.0975 C.2       1 <0>         0.0772
     13 N1          2.5791   -2.9638   -7.1764 N.2       1 <0>        -0.1886
     14 N2          3.6790   -2.2549   -7.6689 N.am      1 <0>        -0.3994
     15 C10         4.1239   -1.1510   -7.0366 C.2       1 <0>         0.5126
     16 O3          5.0845   -0.5368   -7.4725 O.2       1 <0>        -0.5054
     17 C11         3.4642   -0.7070   -5.8656 C.2       1 <0>        -0.1860
     18 S2          4.0157    0.7357   -5.0176 S.3       1 <0>         0.0649
     19 C12         3.6867    2.0466   -6.1480 C.ar      1 <0>        -0.0983
     20 C13         2.9934    1.7934   -7.3257 C.ar      1 <0>        -0.1114
     21 C14         2.7374    2.8231   -8.2092 C.ar      1 <0>        -0.1016
     22 C15         3.1700    4.1053   -7.9235 C.ar      1 <0>        -0.1187
     23 C16         3.8603    4.3611   -6.7526 C.ar      1 <0>        -0.1006
     24 C17         4.1149    3.3374   -5.8616 C.ar      1 <0>        -0.0963
     25 C18         4.3548   -2.7169   -8.8839 C.3       1 <0>         0.1659
     26 C19         5.4559   -3.6764   -8.5124 C.ar      1 <0>        -0.1221
     27 C20         6.7287   -3.2021   -8.2561 C.ar      1 <0>        -0.0916
     28 C21         7.7387   -4.0823   -7.9153 C.ar      1 <0>        -0.1245
     29 C22         7.4757   -5.4367   -7.8304 C.ar      1 <0>        -0.1073
     30 C23         6.2026   -5.9109   -8.0858 C.ar      1 <0>        -0.1259
     31 C24         5.1916   -5.0303   -8.4224 C.ar      1 <0>        -0.0934
     32 H1          0.7666    2.3490   -0.3539 H         1 <0>         0.1332
     33 H2         -0.7627    2.5655   -1.2386 H         1 <0>         0.1325
     34 H3         -0.7642    2.5070    0.5405 H         1 <0>         0.1348
     35 H4         -1.3331    0.1990   -3.1626 H         1 <0>         0.1480
     36 H5         -0.1574   -0.5133   -5.2025 H         1 <0>         0.1382
     37 H6          3.3255   -1.3976   -2.8645 H         1 <0>         0.1357
     38 H7          2.1363   -0.6717   -0.8374 H         1 <0>         0.1512
     39 H8          1.1076   -3.1478   -5.7395 H         1 <0>         0.2031
     40 H9          2.6556    0.7923   -7.5496 H         1 <0>         0.1076
     41 H10         2.1990    2.6270   -9.1247 H         1 <0>         0.1245
     42 H11         2.9687    4.9087   -8.6166 H         1 <0>         0.1269
     43 H12         4.1966    5.3636   -6.5327 H         1 <0>         0.1305
     44 H13         4.6500    3.5387   -4.9453 H         1 <0>         0.1287
     45 H14         3.6362   -3.2210   -9.5301 H         1 <0>         0.1073
     46 H15         4.7799   -1.8624   -9.4105 H         1 <0>         0.1116
     47 H16         6.9342   -2.1439   -8.3224 H         1 <0>         0.1295
     48 H17         8.7333   -3.7118   -7.7157 H         1 <0>         0.1248
     49 H18         8.2649   -6.1245   -7.5648 H         1 <0>         0.1242
     50 H19         5.9971   -6.9692   -8.0198 H         1 <0>         0.1251
     51 H20         4.1961   -5.4004   -8.6184 H         1 <0>         0.1256
@<TRIPOS>BOND
     1    1    2 1
     2    1   32 1
     3    1   33 1
     4    1   34 1
     5    2    3 2
     6    2    4 2
     7    2    5 1
     8    5   10 ar
     9    5    6 ar
    10    6    7 ar
    11    6   35 1
    12    7    8 ar
    13    7   36 1
    14    8    9 ar
    15    8   11 1
    16    9   10 ar
    17    9   37 1
    18   10   38 1
    19   11   17 2
    20   11   12 1
    21   12   13 2
    22   12   39 1
    23   13   14 1
    24   14   15 am
    25   14   25 1
    26   15   16 2
    27   15   17 1
    28   17   18 1
    29   18   19 1
    30   19   24 ar
    31   19   20 ar
    32   20   21 ar
    33   20   40 1
    34   21   22 ar
    35   21   41 1
    36   22   23 ar
    37   22   42 1
    38   23   24 ar
    39   23   43 1
    40   24   44 1
    41   25   26 1
    42   25   45 1
    43   25   46 1
    44   26   31 ar
    45   26   27 ar
    46   27   28 ar
    47   27   47 1
    48   28   29 ar
    49   28   48 1
    50   29   30 ar
    51   29   49 1
    52   30   31 ar
    53   30   50 1
    54   31   51 1
@<TRIPOS>MOLECULE
CHEMBL161728
   46    48     0     0     0
SMALL
USER_CHARGES

@<TRIPOS>ATOM
      1 C1          0.0495    1.4781    0.3576 C.3       1 <0>        -0.0598
      2 C2          0.0313   -0.0146    0.1517 C.2       1 <0>         0.2040
      3 N1         -1.0327   -0.7677    0.1674 N.2       1 <0>        -0.4736
      4 C3         -0.6680   -2.0398   -0.0519 C.2       1 <0>         0.0370
      5 C4          0.6806   -2.0572   -0.2077 C.2       1 <0>        -0.0372
      6 O1          1.1054   -0.7806   -0.0827 O.3       1 <0>        -0.1921
      7 C5          1.5221   -3.2441   -0.4694 C.ar      1 <0>         0.0467
      8 C6          1.1616   -4.1530   -1.4655 C.ar      1 <0>        -0.1156
      9 C7          1.9513   -5.2586   -1.7046 C.ar      1 <0>        -0.0190
     10 C8          3.0983   -5.4676   -0.9595 C.ar      1 <0>        -0.6540
     11 C9          3.4612   -4.5705    0.0293 C.ar      1 <0>        -0.0194
     12 C10         2.6835   -3.4577    0.2746 C.ar      1 <0>        -0.1170
     13 S1          4.1009   -6.8826   -1.2710 S.o2      1 <0>         2.4994
     14 O2          4.7649   -7.1345   -0.0402 O.2       1 <0>        -0.9344
     15 O3          3.2111   -7.8428   -1.8238 O.2       1 <0>        -0.9339
     16 C11         5.2942   -6.3415   -2.5255 C.3       1 <0>        -0.6499
     17 C12        -1.5875   -3.2321   -0.1141 C.3       1 <0>        -0.0035
     18 C13        -2.4697   -3.1174   -1.3740 C.3       1 <0>        -0.1047
     19 C14        -2.9951   -4.4854   -1.7158 C.3       1 <0>        -0.1212
     20 C15        -4.3883   -4.7492   -1.1132 C.3       1 <0>        -0.1172
     21 C16        -4.5215   -4.2331    0.3323 C.3       1 <0>        -0.1208
     22 C17        -3.2983   -4.5189    1.1608 C.3       1 <0>        -0.1155
     23 C18        -2.3728   -3.2861    1.1101 C.3       1 <0>        -0.1125
     24 H1          1.0744    1.8422    0.2870 H         1 <0>         0.0896
     25 H2         -0.5601    1.9580   -0.4081 H         1 <0>         0.1005
     26 H3         -0.3528    1.7140    1.3429 H         1 <0>         0.1007
     27 H4          0.2664   -3.9912   -2.0475 H         1 <0>         0.1404
     28 H5          1.6734   -5.9629   -2.4748 H         1 <0>         0.1510
     29 H6          4.3576   -4.7395    0.6075 H         1 <0>         0.1493
     30 H7          2.9703   -2.7558    1.0437 H         1 <0>         0.1371
     31 H8          5.8806   -5.5100   -2.1344 H         1 <0>         0.1322
     32 H9          5.9585   -7.1686   -2.7757 H         1 <0>         0.1350
     33 H10         4.7606   -6.0206   -3.4201 H         1 <0>         0.1324
     34 H11        -0.9857   -4.1380   -0.1876 H         1 <0>         0.0845
     35 H12        -3.3036   -2.4436   -1.1770 H         1 <0>         0.0754
     36 H13        -1.8750   -2.7357   -2.2039 H         1 <0>         0.0606
     37 H14        -3.0563   -4.5790   -2.8000 H         1 <0>         0.0624
     38 H15        -2.2997   -5.2348   -1.3377 H         1 <0>         0.0625
     39 H16        -5.1381   -4.2570   -1.7327 H         1 <0>         0.0590
     40 H17        -4.5776   -5.8226   -1.1222 H         1 <0>         0.0597
     41 H18        -4.6874   -3.1561    0.3084 H         1 <0>         0.0623
     42 H19        -5.3830   -4.7105    0.7992 H         1 <0>         0.0589
     43 H20        -3.5920   -4.7140    2.1922 H         1 <0>         0.0651
     44 H21        -2.7760   -5.3857    0.7557 H         1 <0>         0.0663
     45 H22        -1.6950   -3.3181    1.9631 H         1 <0>         0.0565
     46 H23        -2.9816   -2.3846    1.1789 H         1 <0>         0.0729
@<TRIPOS>BOND
     1    1    2 1
     2    1   24 1
     3    1   25 1
     4    1   26 1
     5    2    6 1
     6    2    3 2
     7    3    4 1
     8    4    5 2
     9    4   17 1
    10    5    6 1
    11    5    7 1
    12    7   12 ar
    13    7    8 ar
    14    8    9 ar
    15    8   27 1
    16    9   10 ar
    17    9   28 1
    18   10   11 ar
    19   10   13 1
    20   11   12 ar
    21   11   29 1
    22   12   30 1
    23   13   14 2
    24   13   15 2
    25   13   16 1
    26   16   31 1
    27   16   32 1
    28   16   33 1
    29   17   23 1
    30   17   18 1
    31   17   34 1
    32   18   19 1
    33   18   35 1
    34   18   36 1
    35   19   20 1
    36   19   37 1
    37   19   38 1
    38   20   21 1
    39   20   39 1
    40   20   40 1
    41   21   22 1
    42   21   41 1
    43   21   42 1
    44   22   23 1
    45   22   43 1
    46   22   44 1
    47   23   45 1
    48   23   46 1
@<TRIPOS>MOLECULE
CHEMBL224612
   29    30     0     0     0
SMALL
USER_CHARGES

@<TRIPOS>ATOM
      1 C1         -0.0145    1.3824    0.0211 C.ar      1 <0>        -0.1022
      2 C2          0.6036    1.0406    1.2102 C.ar      1 <0>        -0.1323
      3 C3          1.8089    0.3672    1.1950 C.ar      1 <0>        -0.0691
      4 C4          2.4007    0.0324   -0.0171 C.ar      1 <0>        -0.1434
      5 C5          1.7764    0.3771   -1.2100 C.ar      1 <0>        -0.0692
      6 C6          0.5714    1.0509   -1.1870 C.ar      1 <0>        -0.1328
      7 S1          3.9390   -0.8265   -0.0415 S.3       1 <0>         0.0313
      8 C7          3.4828   -2.5222    0.1032 C.ar      1 <0>        -0.2053
      9 C8          2.1485   -2.8957    0.0902 C.ar      1 <0>         0.1218
     10 N1          1.8022   -4.1647    0.1983 N.ar      1 <0>        -0.5395
     11 C9          2.6985   -5.1252    0.3224 C.ar      1 <0>         0.1314
     12 C10         4.0489   -4.8386    0.3442 C.ar      1 <0>        -0.2938
     13 C11         4.4632   -3.5146    0.2274 C.ar      1 <0>         0.3281
     14 N2          5.8181   -3.1848    0.2389 N.2       1 <0>        -1.0430
     15 S2          6.9590   -4.3759    0.3868 S.o2      1 <0>         2.5134
     16 O1          6.7337   -4.9360    1.6732 O.2       1 <0>        -0.9528
     17 O2          6.8108   -5.1675   -0.7839 O.2       1 <0>        -0.9527
     18 C12         8.5497   -3.5045    0.3546 C.3       1 <0>        -0.0056
     19 F1          8.6066   -2.5983    1.4190 F         1 <0>        -0.1626
     20 F2          9.5913   -4.4307    0.4746 F         1 <0>        -0.1829
     21 F3          8.6779   -2.8125   -0.8544 F         1 <0>        -0.1627
     22 H1         -0.9593    1.9055    0.0361 H         1 <0>         0.1208
     23 H2          0.1432    1.3011    2.1518 H         1 <0>         0.1231
     24 H3          2.2914    0.1012    2.1240 H         1 <0>         0.1301
     25 H4          2.2335    0.1188   -2.1538 H         1 <0>         0.1308
     26 H5          0.0857    1.3191   -2.1136 H         1 <0>         0.1233
     27 H6          1.3834   -2.1400   -0.0092 H         1 <0>         0.1387
     28 H7          2.3709   -6.1507    0.4084 H         1 <0>         0.1419
     29 H8          4.7747   -5.6318    0.4465 H         1 <0>         0.1153
@<TRIPOS>BOND
     1    1    6 ar
     2    1    2 ar
     3    1   22 1
     4    2    3 ar
     5    2   23 1
     6    3    4 ar
     7    3   24 1
     8    4    5 ar
     9    4    7 1
    10    5    6 ar
    11    5   25 1
    12    6   26 1
    13    7    8 1
    14    8   13 ar
    15    8    9 ar
    16    9   10 ar
    17    9   27 1
    18   10   11 ar
    19   11   12 ar
    20   11   28 1
    21   12   13 ar
    22   12   29 1
    23   13   14 1
    24   14   15 1
    25   15   16 2
    26   15   17 2
    27   15   18 1
    28   18   19 1
    29   18   20 1
    30   18   21 1
@<TRIPOS>MOLECULE
CHEMBL224400
   30    31     0     0     0
SMALL
USER_CHARGES

@<TRIPOS>ATOM
      1 C1         -0.0051    1.3910    0.1533 C.ar      1 <0>        -0.1644
      2 C2          0.2375    0.3338    1.0111 C.ar      1 <0>        -0.0913
      3 C3          1.4385   -0.3450    0.9506 C.ar      1 <0>        -0.1650
      4 C4          2.4036    0.0351    0.0262 C.ar      1 <0>         0.1930
      5 C5          2.1564    1.0974   -0.8344 C.ar      1 <0>        -0.1671
      6 C6          0.9533    1.7720   -0.7681 C.ar      1 <0>        -0.0923
      7 N1          3.6198   -0.6489   -0.0374 N.pl3     1 <0>        -0.6668
      8 C7          3.6435   -2.0459    0.0605 C.ar      1 <0>         0.0901
      9 C8          2.4633   -2.7710    0.0643 C.ar      1 <0>         0.0508
     10 N2          2.4807   -4.0877    0.1560 N.ar      1 <0>        -0.5191
     11 C9          3.6086   -4.7665    0.2472 C.ar      1 <0>         0.1008
     12 C10         4.8285   -4.1203    0.2505 C.ar      1 <0>        -0.2812
     13 C11         4.8607   -2.7319    0.1504 C.ar      1 <0>         0.2673
     14 N3          6.0731   -2.0426    0.1449 N.2       1 <0>        -1.0624
     15 S1          7.5000   -2.8761    0.2522 S.o2      1 <0>         2.5166
     16 O1          7.4644   -3.4927    1.5319 O.2       1 <0>        -0.9533
     17 O2          7.5501   -3.6630   -0.9300 O.2       1 <0>        -0.9541
     18 C12         8.7893   -1.6007    0.2089 C.3       1 <0>        -0.0078
     19 F1          8.6177   -0.7273    1.2882 F         1 <0>        -0.1644
     20 F2         10.0474   -2.2064    0.2945 F         1 <0>        -0.1827
     21 F3          8.6970   -0.8848   -0.9896 F         1 <0>        -0.1647
     22 H1         -0.9469    1.9175    0.2000 H         1 <0>         0.1147
     23 H2         -0.5132    0.0388    1.7294 H         1 <0>         0.1190
     24 H3          1.6276   -1.1702    1.6213 H         1 <0>         0.1278
     25 H4          2.9044    1.3955   -1.5541 H         1 <0>         0.1209
     26 H5          0.7604    2.5979   -1.4367 H         1 <0>         0.1174
     27 H6          4.4479   -0.1565   -0.1495 H         1 <0>         0.4185
     28 H7          1.5183   -2.2533   -0.0082 H         1 <0>         0.1483
     29 H8          3.5768   -5.8435    0.3208 H         1 <0>         0.1391
     30 H9          5.7462   -4.6848    0.3256 H         1 <0>         0.1123
@<TRIPOS>BOND
     1    1    6 ar
     2    1    2 ar
     3    1   22 1
     4    2    3 ar
     5    2   23 1
     6    3    4 ar
     7    3   24 1
     8    4    5 ar
     9    4    7 1
    10    5    6 ar
    11    5   25 1
    12    6   26 1
    13    7    8 1
    14    7   27 1
    15    8   13 ar
    16    8    9 ar
    17    9   10 ar
    18    9   28 1
    19   10   11 ar
    20   11   12 ar
    21   11   29 1
    22   12   13 ar
    23   12   30 1
    24   13   14 1
    25   14   15 1
    26   15   16 2
    27   15   17 2
    28   15   18 1
    29   18   19 1
    30   18   20 1
    31   18   21 1
@<TRIPOS>MOLECULE
CHEMBL224400__1
   31    32     0     0     0
SMALL
USER_CHARGES

@<TRIPOS>ATOM
      1 C1          5.1972    1.3961    3.2284 C.ar      1 <0>        -0.1652
      2 C2          4.7103    2.1010    2.1428 C.ar      1 <0>        -0.0809
      3 C3          4.1863    1.4261    1.0580 C.ar      1 <0>        -0.1799
      4 C4          4.1491    0.0371    1.0578 C.ar      1 <0>         0.2151
      5 C5          4.6397   -0.6679    2.1501 C.ar      1 <0>        -0.1597
      6 C6          5.1617    0.0136    3.2317 C.ar      1 <0>        -0.0814
      7 N1          3.6195   -0.6487   -0.0372 N.pl3     1 <0>        -0.6684
      8 C7          3.7255   -2.0459   -0.1080 C.2       1 <0>         0.0946
      9 C8          2.6193   -2.8197   -0.1893 C.2       1 <0>         0.1081
     10 N2          2.7268   -4.1786   -0.2584 N.pl3     1 <0>        -0.5710
     11 C9          3.9292   -4.8099   -0.2487 C.2       1 <0>         0.1882
     12 C10         5.0838   -4.1214   -0.1698 C.2       1 <0>        -0.3021
     13 C11         5.0424   -2.7012   -0.1016 C.2       1 <0>         0.3833
     14 N3          6.1558   -1.9907   -0.0291 N.2       1 <0>        -0.9667
     15 S1          7.6258   -2.7532   -0.0236 S.o2      1 <0>         2.5388
     16 O1          7.6322   -3.5197    1.1729 O.2       1 <0>        -0.9162
     17 O2          7.7092   -3.3890   -1.2917 O.2       1 <0>        -0.9181
     18 C12         8.8450   -1.4144    0.0855 C.3       1 <0>        -0.0004
     19 F1          8.6349   -0.6871    1.2619 F         1 <0>        -0.1529
     20 F2         10.1342   -1.9575    0.0970 F         1 <0>        -0.1668
     21 F3          8.7061   -0.5661   -1.0183 F         1 <0>        -0.1561
     22 H1          5.6102    1.9264    4.0737 H         1 <0>         0.1178
     23 H2          4.7395    3.1806    2.1436 H         1 <0>         0.1210
     24 H3          3.8055    1.9772    0.2108 H         1 <0>         0.1204
     25 H4          4.6120   -1.7475    2.1535 H         1 <0>         0.1128
     26 H5          5.5429   -0.5337    4.0812 H         1 <0>         0.1197
     27 H6          3.1784   -0.1591   -0.7490 H         1 <0>         0.4119
     28 H7          1.6428   -2.3585   -0.1992 H         1 <0>         0.1846
     29 H8          3.9601   -5.8880   -0.3051 H         1 <0>         0.1846
     30 H9          6.0304   -4.6413   -0.1630 H         1 <0>         0.1524
     31 H10         1.9179   -4.7109   -0.3160 H         1 <0>         0.4326
@<TRIPOS>BOND
     1    1    6 ar
     2    1    2 ar
     3    1   22 1
     4    2    3 ar
     5    2   23 1
     6    3    4 ar
     7    3   24 1
     8    4    5 ar
     9    4    7 1
    10    5    6 ar
    11    5   25 1
    12    6   26 1
    13    7    8 1
    14    7   27 1
    15    8   13 1
    16    8    9 2
    17    9   10 1
    18    9   28 1
    19   10   11 1
    20   10   31 1
    21   11   12 2
    22   11   29 1
    23   12   13 1
    24   12   30 1
    25   13   14 2
    26   14   15 1
    27   15   16 2
    28   15   17 2
    29   15   18 1
    30   18   19 1
    31   18   20 1
    32   18   21 1
@<TRIPOS>MOLECULE
CHEMBL224400__2
   30    31     0     0     0
SMALL
USER_CHARGES

@<TRIPOS>ATOM
      1 C1          5.1972    1.3961    3.2284 C.ar      1 <0>        -0.1892
      2 C2          4.7103    2.1010    2.1428 C.ar      1 <0>        -0.0849
      3 C3          4.1863    1.4261    1.0580 C.ar      1 <0>        -0.2028
      4 C4          4.1491    0.0371    1.0578 C.ar      1 <0>         0.2413
      5 C5          4.6397   -0.6679    2.1501 C.ar      1 <0>        -0.1532
      6 C6          5.1617    0.0136    3.2317 C.ar      1 <0>        -0.0828
      7 N1          3.6195   -0.6487   -0.0372 N.pl3     1 <0>        -0.6631
      8 C7          3.7255   -2.0459   -0.1080 C.2       1 <0>         0.0094
      9 C8          2.6193   -2.8197   -0.1893 C.2       1 <0>         0.1129
     10 N2          2.7268   -4.1786   -0.2584 N.2       1 <0>        -0.5768
     11 C9          3.9292   -4.8099   -0.2491 C.2       1 <0>         0.1476
     12 C10         5.0838   -4.1214   -0.1702 C.2       1 <0>        -0.3465
     13 C11         5.0424   -2.7012   -0.1016 C.2       1 <0>         0.3424
     14 N3          6.1558   -1.9907   -0.0291 N.2       1 <0>        -1.0139
     15 S1          7.6258   -2.7532   -0.0236 S.o2      1 <0>         2.5196
     16 O1          7.6322   -3.5197    1.1729 O.2       1 <0>        -0.9425
     17 O2          7.7092   -3.3890   -1.2917 O.2       1 <0>        -0.9441
     18 C12         8.8450   -1.4144    0.0855 C.3       1 <0>        -0.0077
     19 F1          8.6349   -0.6871    1.2619 F         1 <0>        -0.1588
     20 F2         10.1342   -1.9575    0.0970 F         1 <0>        -0.1813
     21 F3          8.7061   -0.5661   -1.0183 F         1 <0>        -0.1629
     22 H1          5.6102    1.9264    4.0737 H         1 <0>         0.1071
     23 H2          4.7395    3.1806    2.1436 H         1 <0>         0.1099
     24 H3          3.8055    1.9772    0.2108 H         1 <0>         0.1115
     25 H4          4.6120   -1.7475    2.1535 H         1 <0>         0.1176
     26 H5          5.5429   -0.5337    4.0812 H         1 <0>         0.1113
     27 H6          3.1784   -0.1591   -0.7490 H         1 <0>         0.3964
     28 H7          1.6428   -2.3585   -0.1992 H         1 <0>         0.1391
     29 H8          3.9601   -5.8879   -0.3059 H         1 <0>         0.1350
     30 H9          6.0304   -4.6413   -0.1638 H         1 <0>         0.1093
@<TRIPOS>BOND
     1    1    6 ar
     2    1    2 ar
     3    1   22 1
     4    2    3 ar
     5    2   23 1
     6    3    4 ar
     7    3   24 1
     8    4    5 ar
     9    4    7 1
    10    5    6 ar
    11    5   25 1
    12    6   26 1
    13    7    8 1
    14    7   27 1
    15    8   13 1
    16    8    9 2
    17    9   10 1
    18    9   28 1
    19   10   11 1
    20   11   12 2
    21   11   29 1
    22   12   13 1
    23   12   30 1
    24   13   14 2
    25   14   15 1
    26   15   16 2
    27   15   17 2
    28   15   18 1
    29   18   19 1
    30   18   20 1
    31   18   21 1
@<TRIPOS>MOLECULE
CHEMBL549958
   44    47     0     0     0
SMALL
USER_CHARGES

@<TRIPOS>ATOM
      1 C1         -1.4330    2.0984   -2.1614 C.3       1 <0>        -0.6494
      2 S1         -1.4914    0.2855   -2.1423 S.o2      1 <0>         2.4979
      3 O1         -1.1890   -0.2003   -0.8416 O.2       1 <0>        -0.9344
      4 O2         -2.6418   -0.1745   -2.8381 O.2       1 <0>        -0.9338
      5 C2         -0.1301   -0.2219   -3.1394 C.ar      1 <0>        -0.6513
      6 C3         -0.2991   -0.4030   -4.4993 C.ar      1 <0>        -0.0162
      7 C4          0.7688   -0.8010   -5.2816 C.ar      1 <0>        -0.1116
      8 C5          2.0059   -1.0176   -4.7040 C.ar      1 <0>        -0.0522
      9 C6          2.1751   -0.8356   -3.3441 C.ar      1 <0>        -0.1241
     10 C7          1.1082   -0.4334   -2.5626 C.ar      1 <0>        -0.0151
     11 C8          3.1699   -1.4525   -5.5566 C.3       1 <0>         0.1930
     12 N1          4.0825   -2.2666   -4.7572 N.am      1 <0>        -0.5561
     13 C9          4.9705   -1.7677   -3.9016 C.2       1 <0>         0.5598
     14 O3          5.5582   -2.5522   -3.1817 O.2       1 <0>        -0.5042
     15 C10         5.2955   -0.3456   -3.7597 C.ar      1 <0>        -0.1333
     16 C11         6.0001    0.1049   -2.6372 C.ar      1 <0>        -0.0427
     17 C12         6.2901    1.4436   -2.4989 C.ar      1 <0>        -0.1204
     18 C13         5.8895    2.3566   -3.4624 C.ar      1 <0>        -0.0737
     19 C14         5.1990    1.9308   -4.5796 C.ar      1 <0>        -0.0961
     20 C15         4.9066    0.5846   -4.7371 C.ar      1 <0>        -0.0638
     21 S2          4.0522    0.0125   -6.1713 S.3       1 <0>        -0.0695
     22 C16         4.0183   -3.6574   -4.9002 C.ar      1 <0>         0.1134
     23 C17         3.1593   -4.3997   -4.1005 C.ar      1 <0>        -0.0680
     24 C18         3.0974   -5.7720   -4.2432 C.ar      1 <0>        -0.1444
     25 C19         3.8912   -6.4078   -5.1830 C.ar      1 <0>         0.1137
     26 C20         4.7485   -5.6695   -5.9815 C.ar      1 <0>        -0.1445
     27 C21         4.8092   -4.2964   -5.8460 C.ar      1 <0>        -0.0740
     28 F1          3.8295   -7.7503   -5.3207 F         1 <0>        -0.1333
     29 H1         -0.4826    2.4357   -1.7479 H         1 <0>         0.1319
     30 H2         -1.5298    2.4543   -3.1871 H         1 <0>         0.1329
     31 H3         -2.2516    2.4947   -1.5606 H         1 <0>         0.1351
     32 H4         -1.2656   -0.2338   -4.9506 H         1 <0>         0.1496
     33 H5          0.6366   -0.9432   -6.3440 H         1 <0>         0.1405
     34 H6          3.1415   -1.0051   -2.8928 H         1 <0>         0.1259
     35 H7          1.2413   -0.2876   -1.5007 H         1 <0>         0.1458
     36 H8          2.8041   -2.0375   -6.4004 H         1 <0>         0.1520
     37 H9          6.3163   -0.5974   -1.8801 H         1 <0>         0.1436
     38 H10         6.8347    1.7860   -1.6314 H         1 <0>         0.1384
     39 H11         6.1180    3.4048   -3.3383 H         1 <0>         0.1388
     40 H12         4.8874    2.6441   -5.3282 H         1 <0>         0.1395
     41 H13         2.5403   -3.9042   -3.3672 H         1 <0>         0.1343
     42 H14         2.4298   -6.3496   -3.6212 H         1 <0>         0.1438
     43 H15         5.3667   -6.1673   -6.7139 H         1 <0>         0.1444
     44 H16         5.4744   -3.7205   -6.4723 H         1 <0>         0.1377
@<TRIPOS>BOND
     1    1    2 1
     2    1   29 1
     3    1   30 1
     4    1   31 1
     5    2    3 2
     6    2    4 2
     7    2    5 1
     8    5   10 ar
     9    5    6 ar
    10    6    7 ar
    11    6   32 1
    12    7    8 ar
    13    7   33 1
    14    8    9 ar
    15    8   11 1
    16    9   10 ar
    17    9   34 1
    18   10   35 1
    19   11   21 1
    20   11   12 1
    21   11   36 1
    22   12   13 am
    23   12   22 1
    24   13   14 2
    25   13   15 1
    26   15   20 ar
    27   15   16 ar
    28   16   17 ar
    29   16   37 1
    30   17   18 ar
    31   17   38 1
    32   18   19 ar
    33   18   39 1
    34   19   20 ar
    35   19   40 1
    36   20   21 1
    37   22   27 ar
    38   22   23 ar
    39   23   24 ar
    40   23   41 1
    41   24   25 ar
    42   24   42 1
    43   25   26 ar
    44   25   28 1
    45   26   27 ar
    46   26   43 1
    47   27   44 1
@<TRIPOS>MOLECULE
CHEMBL549958__1
   44    47     0     0     0
SMALL
USER_CHARGES

@<TRIPOS>ATOM
      1 C1         -2.5090    0.4444   -3.0759 C.3       1 <0>        -0.6499
      2 S1         -2.0051   -1.2688   -2.7570 S.o2      1 <0>         2.4979
      3 O1         -1.6973   -1.4402   -1.3804 O.2       1 <0>        -0.9342
      4 O2         -2.8822   -2.1686   -3.4207 O.2       1 <0>        -0.9335
      5 C2         -0.4622   -1.4493   -3.5886 C.ar      1 <0>        -0.6513
      6 C3         -0.4318   -1.8678   -4.9057 C.ar      1 <0>        -0.0162
      7 C4          0.7787   -2.0094   -5.5582 C.ar      1 <0>        -0.1118
      8 C5          1.9586   -1.7320   -4.8936 C.ar      1 <0>        -0.0521
      9 C6          1.9281   -1.3127   -3.5767 C.ar      1 <0>        -0.1242
     10 C7          0.7175   -1.1670   -2.9256 C.ar      1 <0>        -0.0152
     11 C8          3.2783   -1.8874   -5.6045 C.3       1 <0>         0.1927
     12 N1          4.2430   -0.9377   -5.0548 N.am      1 <0>        -0.5567
     13 C9          4.9019   -1.1216   -3.9140 C.2       1 <0>         0.5610
     14 O3          5.5542   -0.1886   -3.4860 O.2       1 <0>        -0.5052
     15 C10         4.9029   -2.3620   -3.1333 C.ar      1 <0>        -0.1350
     16 C11         5.3632   -2.3590   -1.8113 C.ar      1 <0>        -0.0428
     17 C12         5.3482   -3.5223   -1.0752 C.ar      1 <0>        -0.1200
     18 C13         4.8787   -4.7033   -1.6296 C.ar      1 <0>        -0.0723
     19 C14         4.4264   -4.7277   -2.9338 C.ar      1 <0>        -0.0952
     20 C15         4.4429   -3.5660   -3.6906 C.ar      1 <0>        -0.0640
     21 S2          3.8986   -3.5792   -5.3691 S.3       1 <0>        -0.0689
     22 C16         4.4888    0.2383   -5.7727 C.ar      1 <0>         0.1149
     23 C17         5.4997    0.2738   -6.7241 C.ar      1 <0>        -0.0738
     24 C18         5.7406    1.4354   -7.4313 C.ar      1 <0>        -0.1440
     25 C19         4.9748    2.5641   -7.1923 C.ar      1 <0>         0.1131
     26 C20         3.9662    2.5309   -6.2441 C.ar      1 <0>        -0.1451
     27 C21         3.7182    1.3697   -5.5386 C.ar      1 <0>        -0.0688
     28 F1          5.2123    3.6995   -7.8849 F         1 <0>        -0.1334
     29 H1         -1.7552    1.1246   -2.6794 H         1 <0>         0.1318
     30 H2         -2.6094    0.5996   -4.1502 H         1 <0>         0.1326
     31 H3         -3.4652    0.6383   -2.5899 H         1 <0>         0.1352
     32 H4         -1.3537   -2.0844   -5.4250 H         1 <0>         0.1496
     33 H5          0.8025   -2.3370   -6.5870 H         1 <0>         0.1405
     34 H6          2.8500   -1.0964   -3.0574 H         1 <0>         0.1260
     35 H7          0.6934   -0.8358   -1.8980 H         1 <0>         0.1458
     36 H8          3.1431   -1.6943   -6.6687 H         1 <0>         0.1518
     37 H9          5.7296   -1.4445   -1.3689 H         1 <0>         0.1433
     38 H10         5.7058   -3.5151   -0.0561 H         1 <0>         0.1386
     39 H11         4.8672   -5.6075   -1.0392 H         1 <0>         0.1394
     40 H12         4.0612   -5.6489   -3.3633 H         1 <0>         0.1400
     41 H13         6.0975   -0.6061   -6.9105 H         1 <0>         0.1380
     42 H14         6.5270    1.4636   -8.1710 H         1 <0>         0.1445
     43 H15         3.3701    3.4123   -6.0592 H         1 <0>         0.1430
     44 H16         2.9283    1.3427   -4.8026 H         1 <0>         0.1338
@<TRIPOS>BOND
     1    1    2 1
     2    1   29 1
     3    1   30 1
     4    1   31 1
     5    2    3 2
     6    2    4 2
     7    2    5 1
     8    5   10 ar
     9    5    6 ar
    10    6    7 ar
    11    6   32 1
    12    7    8 ar
    13    7   33 1
    14    8    9 ar
    15    8   11 1
    16    9   10 ar
    17    9   34 1
    18   10   35 1
    19   11   21 1
    20   11   12 1
    21   11   36 1
    22   12   13 am
    23   12   22 1
    24   13   14 2
    25   13   15 1
    26   15   20 ar
    27   15   16 ar
    28   16   17 ar
    29   16   37 1
    30   17   18 ar
    31   17   38 1
    32   18   19 ar
    33   18   39 1
    34   19   20 ar
    35   19   40 1
    36   20   21 1
    37   22   27 ar
    38   22   23 ar
    39   23   24 ar
    40   23   41 1
    41   24   25 ar
    42   24   42 1
    43   25   26 ar
    44   25   28 1
    45   26   27 ar
    46   26   43 1
    47   27   44 1
@<TRIPOS>MOLECULE
CHEMBL147580
   36    38     0     0     0
SMALL
USER_CHARGES

@<TRIPOS>ATOM
      1 C1         -0.1054    1.8482   -0.0676 C.3       1 <0>        -0.6362
      2 S1         -0.0674    0.0347   -0.0502 S.o2      1 <0>         2.5302
      3 O1          0.7518   -0.4275    1.0148 O.2       1 <0>        -1.0205
      4 O2         -1.3775   -0.4841   -0.2342 O.2       1 <0>        -1.0194
      5 N1          0.7512   -0.3870   -1.4266 N.2       1 <0>        -1.0668
      6 C2          0.9627   -1.7288   -1.7266 C.ar      1 <0>         0.3235
      7 C3          0.4821   -2.7159   -0.8738 C.ar      1 <0>        -0.2547
      8 C4          0.6878   -4.0482   -1.1642 C.ar      1 <0>         0.0157
      9 C5          1.3823   -4.4139   -2.3202 C.ar      1 <0>        -0.2999
     10 C6          1.8674   -3.4134   -3.1818 C.ar      1 <0>         0.0030
     11 C7          1.6534   -2.0847   -2.8879 C.ar      1 <0>        -0.0250
     12 O3          2.1184   -1.1195   -3.7253 O.3       1 <0>        -0.2162
     13 C8          3.2860   -0.5021   -3.4020 C.ar      1 <0>         0.1207
     14 C9          4.0245   -0.9401   -2.3131 C.ar      1 <0>        -0.1328
     15 C10         5.2107   -0.3120   -1.9854 C.ar      1 <0>        -0.1220
     16 C11         5.6634    0.7548   -2.7433 C.ar      1 <0>         0.0714
     17 C12         4.9285    1.1945   -3.8311 C.ar      1 <0>        -0.1577
     18 C13         3.7433    0.5645   -4.1656 C.ar      1 <0>         0.0885
     19 F1          3.0286    0.9896   -5.2303 F         1 <0>        -0.1281
     20 F2          6.8234    1.3675   -2.4206 F         1 <0>        -0.1412
     21 C14         1.4812   -5.8752   -2.4249 C.2       1 <0>         0.4159
     22 O4          2.0267   -6.4892   -3.3177 O.2       1 <0>        -0.4820
     23 C15         0.7877   -6.4813   -1.2292 C.3       1 <0>        -0.1682
     24 C16         0.2725   -5.2895   -0.4108 C.3       1 <0>        -0.0853
     25 H1          0.9144    2.2330   -0.0641 H         1 <0>         0.1178
     26 H2         -0.6205    2.1923   -0.9645 H         1 <0>         0.1187
     27 H3         -0.6329    2.2090    0.8154 H         1 <0>         0.1059
     28 H4         -0.0550   -2.4379    0.0210 H         1 <0>         0.1159
     29 H5          2.4052   -3.6875   -4.0774 H         1 <0>         0.1233
     30 H6          3.6723   -1.7718   -1.7210 H         1 <0>         0.1468
     31 H7          5.7854   -0.6532   -1.1370 H         1 <0>         0.1392
     32 H8          5.2829    2.0267   -4.4212 H         1 <0>         0.1473
     33 H9         -0.0452   -7.1058   -1.5523 H         1 <0>         0.0992
     34 H10         1.4934   -7.0670   -0.6402 H         1 <0>         0.0991
     35 H11         0.7233   -5.2937    0.5816 H         1 <0>         0.0868
     36 H12        -0.8137   -5.3325   -0.3295 H         1 <0>         0.0870
@<TRIPOS>BOND
     1    1    2 1
     2    1   25 1
     3    1   26 1
     4    1   27 1
     5    2    3 2
     6    2    4 2
     7    2    5 1
     8    5    6 1
     9    6   11 ar
    10    6    7 ar
    11    7    8 ar
    12    7   28 1
    13    8   24 1
    14    8    9 ar
    15    9   10 ar
    16    9   21 1
    17   10   11 ar
    18   10   29 1
    19   11   12 1
    20   12   13 1
    21   13   18 ar
    22   13   14 ar
    23   14   15 ar
    24   14   30 1
    25   15   16 ar
    26   15   31 1
    27   16   17 ar
    28   16   20 1
    29   17   18 ar
    30   17   32 1
    31   18   19 1
    32   21   22 2
    33   21   23 1
    34   23   24 1
    35   23   33 1
    36   23   34 1
    37   24   35 1
    38   24   36 1
@<TRIPOS>MOLECULE
CHEMBL294100
   50    51     0     0     0
SMALL
USER_CHARGES

@<TRIPOS>ATOM
      1 C1          0.1837    1.5055    0.1221 C.3       1 <0>        -0.1794
      2 C2          0.1058   -0.0211    0.0553 C.3       1 <0>        -0.0211
      3 C3          0.8570   -0.6226    1.2447 C.3       1 <0>        -0.1432
      4 C4         -1.3593   -0.4595    0.1028 C.3       1 <0>        -0.1435
      5 C5          0.7322   -0.5003   -1.2289 C.ar      1 <0>        -0.0775
      6 C6          1.2633    0.4102   -2.1173 C.ar      1 <0>        -0.0892
      7 C7          1.8433   -0.0347   -3.3065 C.ar      1 <0>        -0.1131
      8 C8          1.8829   -1.4006   -3.5911 C.ar      1 <0>        -0.0746
      9 C9          1.3496   -2.3048   -2.6976 C.ar      1 <0>        -0.0950
     10 C10         0.7786   -1.8587   -1.5130 C.ar      1 <0>         0.1416
     11 O1          0.2590   -2.7533   -0.6323 O.3       1 <0>        -0.4819
     12 C11         1.3914   -3.7797   -3.0041 C.3       1 <0>        -0.0211
     13 C12         2.0728   -4.0004   -4.3561 C.3       1 <0>        -0.1487
     14 C13         2.1790   -4.5055   -1.9116 C.3       1 <0>        -0.1434
     15 C14        -0.0350   -4.3305   -3.0559 C.3       1 <0>        -0.1435
     16 C15         2.4134    0.9379   -4.2618 C.2       1 <0>         0.0909
     17 C16         2.1968    2.2355   -4.0956 C.2       1 <0>        -0.6935
     18 C17         2.5662    3.3832   -5.0212 C.3       1 <0>        -0.0997
     19 C18         1.6884    4.5901   -4.6808 C.3       1 <0>         0.0750
     20 N1          1.4564    4.6601   -3.2276 N.pl3     1 <0>        -1.1090
     21 S1          1.3946    3.0610   -2.7365 S.o2      1 <0>         2.6538
     22 O2          0.0302    2.6637   -2.7425 O.2       1 <0>        -0.9500
     23 O3          2.2403    2.9335   -1.6018 O.2       1 <0>        -0.9549
     24 H1          1.2274    1.8179    0.0883 H         1 <0>         0.0742
     25 H2         -0.3515    1.9341   -0.7253 H         1 <0>         0.0705
     26 H3         -0.2694    1.8521    1.0509 H         1 <0>         0.0630
     27 H4          0.4039   -0.2760    2.1735 H         1 <0>         0.0576
     28 H5          0.8015   -1.7102    1.1971 H         1 <0>         0.0755
     29 H6          1.9007   -0.3102    1.2109 H         1 <0>         0.0535
     30 H7         -1.8945   -0.0310   -0.7446 H         1 <0>         0.0585
     31 H8         -1.4148   -1.5471    0.0552 H         1 <0>         0.0578
     32 H9         -1.8124   -0.1129    1.0316 H         1 <0>         0.0638
     33 H10         1.2305    1.4663   -1.8938 H         1 <0>         0.0986
     34 H11         2.3305   -1.7486   -4.5103 H         1 <0>         0.1414
     35 H12        -0.6751   -2.9546   -0.7811 H         1 <0>         0.3868
     36 H13         3.0890   -3.6081   -4.3192 H         1 <0>         0.0597
     37 H14         2.1030   -5.0672   -4.5779 H         1 <0>         0.0621
     38 H15         1.5117   -3.4833   -5.1345 H         1 <0>         0.0590
     39 H16         1.6936   -4.3483   -0.9484 H         1 <0>         0.0762
     40 H17         2.2093   -5.5723   -2.1333 H         1 <0>         0.0563
     41 H18         3.1953   -4.1131   -1.8747 H         1 <0>         0.0523
     42 H19        -0.5962   -3.8134   -3.8343 H         1 <0>         0.0559
     43 H20        -0.0048   -5.3972   -3.2776 H         1 <0>         0.0630
     44 H21        -0.5204   -4.1732   -2.0927 H         1 <0>         0.0586
     45 H22         3.0065    0.5919   -5.0954 H         1 <0>         0.1420
     46 H23         3.6157    3.6426   -4.8826 H         1 <0>         0.0983
     47 H24         2.3974    3.0877   -6.0567 H         1 <0>         0.1101
     48 H25         2.1858    5.5022   -5.0109 H         1 <0>         0.1043
     49 H26         0.7317    4.4965   -5.1946 H         1 <0>         0.0826
     50 H27         1.3584    5.4546   -2.6797 H         1 <0>         0.4394
@<TRIPOS>BOND
     1    1    2 1
     2    1   24 1
     3    1   25 1
     4    1   26 1
     5    2    3 1
     6    2    4 1
     7    2    5 1
     8    3   27 1
     9    3   28 1
    10    3   29 1
    11    4   30 1
    12    4   31 1
    13    4   32 1
    14    5   10 ar
    15    5    6 ar
    16    6    7 ar
    17    6   33 1
    18    7    8 ar
    19    7   16 1
    20    8    9 ar
    21    8   34 1
    22    9   10 ar
    23    9   12 1
    24   10   11 1
    25   11   35 1
    26   12   13 1
    27   12   14 1
    28   12   15 1
    29   13   36 1
    30   13   37 1
    31   13   38 1
    32   14   39 1
    33   14   40 1
    34   14   41 1
    35   15   42 1
    36   15   43 1
    37   15   44 1
    38   16   17 2
    39   16   45 1
    40   17   21 1
    41   17   18 1
    42   18   19 1
    43   18   46 1
    44   18   47 1
    45   19   20 1
    46   19   48 1
    47   19   49 1
    48   20   21 1
    49   20   50 1
    50   21   22 2
    51   21   23 2
@<TRIPOS>MOLECULE
CHEMBL273118
   47    50     0     0     0
SMALL
USER_CHARGES

@<TRIPOS>ATOM
      1 C1         -0.0225    1.8097    0.0120 C.3       1 <0>        -0.6496
      2 S1          0.0021   -0.0041    0.0020 S.o2      1 <0>         2.4985
      3 O1          0.8352   -0.4880    1.0465 O.2       1 <0>        -0.9346
      4 O2         -1.3147   -0.5105   -0.1678 O.2       1 <0>        -0.9337
      5 C2          0.8454   -0.4373   -1.4831 C.ar      1 <0>        -0.6404
      6 C3          0.1315   -0.6121   -2.6550 C.ar      1 <0>        -0.0328
      7 C4          0.7868   -0.9515   -3.8212 C.ar      1 <0>        -0.0864
      8 C5          2.1706   -1.1181   -3.8167 C.ar      1 <0>         0.0028
      9 C6          2.8847   -0.9407   -2.6331 C.ar      1 <0>        -0.0871
     10 C7          2.2196   -0.5958   -1.4740 C.ar      1 <0>        -0.0342
     11 C8          2.8804   -1.4832   -5.0667 C.ar      1 <0>         0.4096
     12 N1          2.1831   -1.6426   -6.1832 N.ar      1 <0>        -0.5122
     13 C9          2.7813   -1.9684   -7.3184 C.ar      1 <0>         0.1293
     14 C10         4.1522   -2.1437   -7.3345 C.ar      1 <0>        -0.2424
     15 C11         4.8605   -1.9692   -6.1430 C.ar      1 <0>         0.4565
     16 N2          4.1968   -1.6370   -5.0412 N.ar      1 <0>        -0.5456
     17 N3          6.2357   -2.1352   -6.1121 N.pl3     1 <0>        -0.6989
     18 C12         6.9577   -2.4963   -7.3346 C.3       1 <0>         0.2066
     19 C13         8.4294   -2.6144   -7.0326 C.2       1 <0>        -0.1660
     20 C14         9.1125   -3.7013   -6.6459 C.2       1 <0>        -0.0970
     21 C15        10.5441   -3.5953   -6.4054 C.ar      1 <0>        -0.1019
     22 C16        11.4506   -4.6019   -5.9959 C.ar      1 <0>        -0.0684
     23 C17        12.7684   -4.3195   -5.8178 C.ar      1 <0>        -0.1227
     24 C18        13.2724   -3.0429   -6.0290 C.ar      1 <0>        -0.0854
     25 C19        12.4204   -2.0331   -6.4296 C.ar      1 <0>        -0.0813
     26 C20        11.0819   -2.3068   -6.6136 C.ar      1 <0>        -0.1061
     27 S2          9.6775   -1.3442   -7.1122 S.3       1 <0>         0.0502
     28 C21         1.9760   -2.1467   -8.5797 C.3       1 <0>         0.5248
     29 F1          0.6415   -1.8067   -8.3329 F         1 <0>        -0.1554
     30 F2          2.4905   -1.3180   -9.5826 F         1 <0>        -0.1652
     31 F3          2.0483   -3.4808   -8.9945 F         1 <0>        -0.1649
     32 H1          1.0001    2.1870    0.0043 H         1 <0>         0.1323
     33 H2         -0.5497    2.1708   -0.8711 H         1 <0>         0.1328
     34 H3         -0.5327    2.1613    0.9088 H         1 <0>         0.1346
     35 H4         -0.9407   -0.4831   -2.6572 H         1 <0>         0.1506
     36 H5          0.2284   -1.0881   -4.7355 H         1 <0>         0.1506
     37 H6          3.9570   -1.0688   -2.6238 H         1 <0>         0.1477
     38 H7          2.7725   -0.4534   -0.5573 H         1 <0>         0.1495
     39 H8          4.6642   -2.4100   -8.2474 H         1 <0>         0.1585
     40 H9          6.7205   -2.0123   -5.2809 H         1 <0>         0.4176
     41 H10         6.5856   -3.4504   -7.7079 H         1 <0>         0.0973
     42 H11         6.8024   -1.7254   -8.0894 H         1 <0>         0.0912
     43 H12         8.6057   -4.6458   -6.5137 H         1 <0>         0.1408
     44 H13        11.0914   -5.6056   -5.8226 H         1 <0>         0.1277
     45 H14        13.4388   -5.1062   -5.5045 H         1 <0>         0.1308
     46 H15        14.3230   -2.8414   -5.8806 H         1 <0>         0.1377
     47 H16        12.7997   -1.0358   -6.5969 H         1 <0>         0.1340
@<TRIPOS>BOND
     1    1    2 1
     2    1   32 1
     3    1   33 1
     4    1   34 1
     5    2    3 2
     6    2    4 2
     7    2    5 1
     8    5   10 ar
     9    5    6 ar
    10    6    7 ar
    11    6   35 1
    12    7    8 ar
    13    7   36 1
    14    8    9 ar
    15    8   11 1
    16    9   10 ar
    17    9   37 1
    18   10   38 1
    19   11   16 ar
    20   11   12 ar
    21   12   13 ar
    22   13   14 ar
    23   13   28 1
    24   14   15 ar
    25   14   39 1
    26   15   16 ar
    27   15   17 1
    28   17   18 1
    29   17   40 1
    30   18   19 1
    31   18   41 1
    32   18   42 1
    33   19   27 1
    34   19   20 2
    35   20   21 1
    36   20   43 1
    37   21   26 ar
    38   21   22 ar
    39   22   23 ar
    40   22   44 1
    41   23   24 ar
    42   23   45 1
    43   24   25 ar
    44   24   46 1
    45   25   26 ar
    46   25   47 1
    47   26   27 1
    48   28   29 1
    49   28   30 1
    50   28   31 1
@<TRIPOS>MOLECULE
CHEMBL369609
   55    57     0     0     0
SMALL
USER_CHARGES

@<TRIPOS>ATOM
      1 C1          1.7339   -3.9877    1.0780 C.3       1 <0>        -0.1532
      2 C2          0.8978   -2.8240    0.5415 C.3       1 <0>        -0.1238
      3 C3         -0.5810   -3.2165    0.5401 C.3       1 <0>        -0.1127
      4 C4         -1.4170   -2.0529    0.0035 C.3       1 <0>        -0.0853
      5 C5         -2.8537   -2.4872   -0.1322 C.2       1 <0>        -0.0726
      6 C6         -3.3089   -2.9624   -1.3171 C.2       1 <0>        -0.0278
      7 C7         -2.4348   -2.9337   -2.5108 C.ar      1 <0>        -0.0407
      8 C8         -2.0063   -1.7141   -3.0363 C.ar      1 <0>        -0.1062
      9 C9         -1.1911   -1.6942   -4.1492 C.ar      1 <0>        -0.1180
     10 C10        -0.7984   -2.8801   -4.7440 C.ar      1 <0>        -0.1160
     11 C11        -1.2199   -4.0927   -4.2279 C.ar      1 <0>        -0.1172
     12 C12        -2.0309   -4.1264   -3.1123 C.ar      1 <0>        -0.1009
     13 C13        -4.6801   -3.5099   -1.4170 C.ar      1 <0>        -0.0447
     14 C14        -5.0274   -4.6627   -0.7115 C.ar      1 <0>        -0.1020
     15 C15        -6.3076   -5.1678   -0.8086 C.ar      1 <0>        -0.1190
     16 C16        -7.2462   -4.5339   -1.6033 C.ar      1 <0>        -0.1155
     17 C17        -6.9081   -3.3906   -2.3053 C.ar      1 <0>        -0.1173
     18 C18        -5.6329   -2.8723   -2.2126 C.ar      1 <0>        -0.1018
     19 C19        -3.7617   -2.3953    1.0211 C.ar      1 <0>         0.0250
     20 C20        -4.8584   -1.5277    0.9851 C.ar      1 <0>        -0.1210
     21 C21        -5.7053   -1.4478    2.0702 C.ar      1 <0>        -0.0092
     22 C22        -5.4727   -2.2231    3.1929 C.ar      1 <0>        -0.7040
     23 C23        -4.3898   -3.0839    3.2363 C.ar      1 <0>        -0.0223
     24 C24        -3.5366   -3.1794    2.1574 C.ar      1 <0>        -0.1310
     25 S1         -6.5606   -2.1130    4.5745 S.o2      1 <0>         2.6977
     26 O1         -5.8183   -2.5346    5.7105 O.2       1 <0>        -0.9666
     27 O2         -7.1824   -0.8374    4.5013 O.2       1 <0>        -0.9340
     28 O3         -7.6594   -3.1452    4.3654 O.3       1 <0>        -0.7283
     29 C25        -7.2455   -4.4916    4.6060 C.3       1 <0>         0.0273
     30 H1          2.7874   -3.7080    1.0791 H         1 <0>         0.0547
     31 H2          1.4193   -4.2225    2.0949 H         1 <0>         0.0536
     32 H3          1.5905   -4.8615    0.4424 H         1 <0>         0.0534
     33 H4          1.0412   -1.9502    1.1772 H         1 <0>         0.0618
     34 H5          1.2124   -2.5891   -0.4753 H         1 <0>         0.0619
     35 H6         -0.7243   -4.0903   -0.0956 H         1 <0>         0.0641
     36 H7         -0.8955   -3.4514    1.5569 H         1 <0>         0.0632
     37 H8         -1.3553   -1.2122    0.6946 H         1 <0>         0.0725
     38 H9         -1.0352   -1.7505   -0.9716 H         1 <0>         0.0854
     39 H10        -2.3124   -0.7877   -2.5731 H         1 <0>         0.1229
     40 H11        -0.8590   -0.7510   -4.5571 H         1 <0>         0.1243
     41 H12        -0.1605   -2.8592   -5.6152 H         1 <0>         0.1225
     42 H13        -0.9099   -5.0148   -4.6968 H         1 <0>         0.1233
     43 H14        -2.3556   -5.0736   -2.7077 H         1 <0>         0.1205
     44 H15        -4.2956   -5.1586   -0.0911 H         1 <0>         0.1191
     45 H16        -6.5775   -6.0601   -0.2633 H         1 <0>         0.1224
     46 H17        -8.2469   -4.9335   -1.6762 H         1 <0>         0.1223
     47 H18        -7.6453   -2.9004   -2.9240 H         1 <0>         0.1237
     48 H19        -5.3716   -1.9773   -2.7576 H         1 <0>         0.1213
     49 H20        -5.0411   -0.9219    0.1099 H         1 <0>         0.1327
     50 H21        -6.5523   -0.7782    2.0441 H         1 <0>         0.1430
     51 H22        -4.2148   -3.6853    4.1162 H         1 <0>         0.1420
     52 H23        -2.6944   -3.8547    2.1912 H         1 <0>         0.1354
     53 H24        -6.9053   -4.5884    5.6371 H         1 <0>         0.0966
     54 H25        -8.0849   -5.1657    4.4356 H         1 <0>         0.1208
     55 H26        -6.4306   -4.7477    3.9290 H         1 <0>         0.0775
@<TRIPOS>BOND
     1    1    2 1
     2    1   30 1
     3    1   31 1
     4    1   32 1
     5    2    3 1
     6    2   33 1
     7    2   34 1
     8    3    4 1
     9    3   35 1
    10    3   36 1
    11    4    5 1
    12    4   37 1
    13    4   38 1
    14    5    6 2
    15    5   19 1
    16    6    7 1
    17    6   13 1
    18    7   12 ar
    19    7    8 ar
    20    8    9 ar
    21    8   39 1
    22    9   10 ar
    23    9   40 1
    24   10   11 ar
    25   10   41 1
    26   11   12 ar
    27   11   42 1
    28   12   43 1
    29   13   18 ar
    30   13   14 ar
    31   14   15 ar
    32   14   44 1
    33   15   16 ar
    34   15   45 1
    35   16   17 ar
    36   16   46 1
    37   17   18 ar
    38   17   47 1
    39   18   48 1
    40   19   24 ar
    41   19   20 ar
    42   20   21 ar
    43   20   49 1
    44   21   22 ar
    45   21   50 1
    46   22   23 ar
    47   22   25 1
    48   23   24 ar
    49   23   51 1
    50   24   52 1
    51   25   26 2
    52   25   27 2
    53   25   28 1
    54   28   29 1
    55   29   53 1
    56   29   54 1
    57   29   55 1
@<TRIPOS>MOLECULE
CHEMBL225463
   52    56     0     0     0
SMALL
USER_CHARGES

@<TRIPOS>ATOM
      1 C1          1.9870   -0.8430    1.6006 C.3       1 <0>        -0.6500
      2 S1          0.5734   -0.8215    0.4641 S.o2      1 <0>         2.5004
      3 O1         -0.2395   -1.9683    0.6721 O.2       1 <0>        -0.9330
      4 O2         -0.0025    0.4770    0.4238 O.2       1 <0>        -0.9329
      5 C2          1.2750   -1.0519   -1.1357 C.ar      1 <0>        -0.6609
      6 C3          1.6699    0.0443   -1.8803 C.ar      1 <0>        -0.0064
      7 C4          2.2198   -0.1330   -3.1348 C.ar      1 <0>        -0.1354
      8 C5          2.3764   -1.4138   -3.6480 C.ar      1 <0>         0.2051
      9 C6          1.9792   -2.5126   -2.8975 C.ar      1 <0>        -0.1280
     10 C7          1.4348   -2.3289   -1.6416 C.ar      1 <0>        -0.0052
     11 N1          2.9333   -1.5969   -4.9202 N.pl3     1 <0>        -0.3308
     12 C8          4.0464   -0.9751   -5.4096 C.2       1 <0>         0.1314
     13 C9          4.2428   -1.4357   -6.6811 C.2       1 <0>        -0.2146
     14 C10         3.2302   -2.3524   -6.9654 C.2       1 <0>         0.0822
     15 N2          2.4524   -2.4554   -5.9171 N.2       1 <0>        -0.2632
     16 C11         3.0630   -3.1036   -8.2611 C.3       1 <0>         0.1450
     17 O3          4.1066   -2.7335   -9.1644 O.3       1 <0>        -0.3012
     18 C12         4.1021   -3.3251  -10.3887 C.ar      1 <0>         0.1473
     19 C13         3.1098   -4.2380  -10.7138 C.ar      1 <0>        -0.1994
     20 C14         3.1032   -4.8405  -11.9577 C.ar      1 <0>        -0.0571
     21 C15         4.0876   -4.5344  -12.8831 C.ar      1 <0>        -0.0048
     22 C16         5.0849   -3.6182  -12.5590 C.ar      1 <0>         0.0751
     23 C17         5.0862   -3.0112  -11.3137 C.ar      1 <0>        -0.1323
     24 O4          5.9248   -3.4910  -13.6276 O.3       1 <0>        -0.3049
     25 C18         5.6689   -4.6398  -14.4569 C.3       1 <0>         0.2137
     26 O5          4.3030   -4.9815  -14.1558 O.3       1 <0>        -0.3076
     27 C19         4.8838    0.0137   -4.6960 C.ar      1 <0>        -0.0448
     28 C20         4.9352    0.0119   -3.3016 C.ar      1 <0>        -0.1072
     29 C21         5.7185    0.9366   -2.6420 C.ar      1 <0>        -0.1169
     30 C22         6.4519    1.8642   -3.3601 C.ar      1 <0>        -0.1033
     31 C23         6.4048    1.8716   -4.7428 C.ar      1 <0>        -0.1161
     32 C24         5.6299    0.9485   -5.4145 C.ar      1 <0>        -0.0844
     33 H1          2.5029   -1.7998    1.5207 H         1 <0>         0.1327
     34 H2          2.6737   -0.0372    1.3416 H         1 <0>         0.1326
     35 H3          1.6337   -0.7050    2.6225 H         1 <0>         0.1356
     36 H4          1.5479    1.0402   -1.4807 H         1 <0>         0.1543
     37 H5          2.5275    0.7236   -3.7162 H         1 <0>         0.1421
     38 H6          2.0997   -3.5100   -3.2939 H         1 <0>         0.1443
     39 H7          1.1294   -3.1833   -1.0558 H         1 <0>         0.1542
     40 H8          5.0401   -1.1419   -7.3478 H         1 <0>         0.1645
     41 H9          3.1122   -4.1754   -8.0687 H         1 <0>         0.0916
     42 H10         2.0969   -2.8575   -8.7017 H         1 <0>         0.0918
     43 H11         2.3415   -4.4786   -9.9939 H         1 <0>         0.1449
     44 H12         2.3297   -5.5513  -12.2084 H         1 <0>         0.1410
     45 H13         5.8561   -2.2970  -11.0618 H         1 <0>         0.1460
     46 H14         5.7760   -4.3829  -15.5108 H         1 <0>         0.1340
     47 H15         6.3362   -5.4599  -14.1918 H         1 <0>         0.0866
     48 H16         4.3629   -0.7115   -2.7399 H         1 <0>         0.1239
     49 H17         5.7590    0.9364   -1.5628 H         1 <0>         0.1283
     50 H18         7.0635    2.5859   -2.8391 H         1 <0>         0.1283
     51 H19         6.9790    2.5987   -5.2977 H         1 <0>         0.1315
     52 H20         5.5977    0.9521   -6.4940 H         1 <0>         0.1323
@<TRIPOS>BOND
     1    1    2 1
     2    1   33 1
     3    1   34 1
     4    1   35 1
     5    2    3 2
     6    2    4 2
     7    2    5 1
     8    5   10 ar
     9    5    6 ar
    10    6    7 ar
    11    6   36 1
    12    7    8 ar
    13    7   37 1
    14    8    9 ar
    15    8   11 1
    16    9   10 ar
    17    9   38 1
    18   10   39 1
    19   11   15 1
    20   11   12 1
    21   12   13 2
    22   12   27 1
    23   13   14 1
    24   13   40 1
    25   14   15 2
    26   14   16 1
    27   16   17 1
    28   16   41 1
    29   16   42 1
    30   17   18 1
    31   18   23 ar
    32   18   19 ar
    33   19   20 ar
    34   19   43 1
    35   20   21 ar
    36   20   44 1
    37   21   26 1
    38   21   22 ar
    39   22   23 ar
    40   22   24 1
    41   23   45 1
    42   24   25 1
    43   25   26 1
    44   25   46 1
    45   25   47 1
    46   27   32 ar
    47   27   28 ar
    48   28   29 ar
    49   28   48 1
    50   29   30 ar
    51   29   49 1
    52   30   31 ar
    53   30   50 1
    54   31   32 ar
    55   31   51 1
    56   32   52 1
@<TRIPOS>MOLECULE
CHEMBL62723
   59    61     0     0     0
SMALL
USER_CHARGES

@<TRIPOS>ATOM
      1 C1         -1.4227    1.0099   -1.1326 C.3       1 <0>        -0.1494
      2 C2         -1.2057   -0.5046   -1.1468 C.3       1 <0>        -0.0217
      3 C3         -0.8923   -0.9882    0.2705 C.3       1 <0>        -0.1426
      4 C4         -2.4728   -1.1965   -1.6533 C.3       1 <0>        -0.1431
      5 C5         -0.0527   -0.8383   -2.0580 C.ar      1 <0>        -0.0962
      6 C6          0.6210    0.1701   -2.7133 C.ar      1 <0>        -0.0787
      7 C7          1.6888   -0.1400   -3.5570 C.ar      1 <0>        -0.0999
      8 C8          2.0702   -1.4710   -3.7337 C.ar      1 <0>        -0.1006
      9 C9          1.3915   -2.4739   -3.0748 C.ar      1 <0>        -0.0983
     10 C10         0.3333   -2.1608   -2.2319 C.ar      1 <0>         0.1420
     11 O1         -0.3296   -3.1515   -1.5800 O.3       1 <0>        -0.4841
     12 C11         1.8020   -3.9113   -3.2652 C.3       1 <0>        -0.0212
     13 C12         2.9872   -3.9796   -4.2304 C.3       1 <0>        -0.1515
     14 C13         2.2077   -4.5088   -1.9164 C.3       1 <0>        -0.1429
     15 C14         0.6281   -4.7049   -3.8422 C.3       1 <0>        -0.1435
     16 C15         2.4134    0.9379   -4.2618 C.2       1 <0>         0.0970
     17 C16         3.5387    0.6674   -4.9089 C.2       1 <0>        -0.6934
     18 C17         4.3707   -0.6085   -4.8948 C.3       1 <0>        -0.1082
     19 C18         5.8300   -0.2157   -5.1333 C.3       1 <0>         0.0724
     20 N1          5.9452    0.9137   -6.0646 N.pl3     1 <0>        -0.9287
     21 S1          4.4663    1.6986   -6.0268 S.o2      1 <0>         2.6479
     22 O2          4.6668    2.9500   -5.3841 O.2       1 <0>        -0.9413
     23 O3          3.8785    1.5671   -7.3138 O.2       1 <0>        -0.9371
     24 C19         7.0563    1.2592   -6.8279 C.ar      1 <0>         0.2528
     25 C20         8.3403    0.8836   -6.4334 C.ar      1 <0>        -0.2067
     26 C21         9.4150    1.2454   -7.2180 C.ar      1 <0>         0.1332
     27 N2          9.2397    1.9374   -8.3283 N.ar      1 <0>        -0.5033
     28 C22         8.0412    2.3116   -8.7353 C.ar      1 <0>         0.1420
     29 C23         6.9145    1.9852   -8.0104 C.ar      1 <0>        -0.2335
     30 H1         -0.5200    1.5029   -0.7718 H         1 <0>         0.0597
     31 H2         -1.6460    1.3545   -2.1423 H         1 <0>         0.0591
     32 H3         -2.2566    1.2513   -0.4736 H         1 <0>         0.0623
     33 H4         -1.7263   -0.7468    0.9295 H         1 <0>         0.0564
     34 H5         -0.7378   -2.0671    0.2603 H         1 <0>         0.0751
     35 H6          0.0104   -0.4952    0.6313 H         1 <0>         0.0517
     36 H7         -2.6961   -0.8520   -2.6630 H         1 <0>         0.0553
     37 H8         -2.3183   -2.2755   -1.6634 H         1 <0>         0.0579
     38 H9         -3.3068   -0.9551   -0.9943 H         1 <0>         0.0630
     39 H10         0.3228    1.1988   -2.5744 H         1 <0>         0.1385
     40 H11         2.8957   -1.7150   -4.3860 H         1 <0>         0.1529
     41 H12        -1.0804   -3.5119   -2.0714 H         1 <0>         0.3863
     42 H13         3.8236   -3.4142   -3.8194 H         1 <0>         0.0578
     43 H14         3.2842   -5.0193   -4.3681 H         1 <0>         0.0643
     44 H15         2.6982   -3.5540   -5.1914 H         1 <0>         0.0586
     45 H16         1.3634   -4.4601   -1.2288 H         1 <0>         0.0759
     46 H17         2.5047   -5.5485   -2.0541 H         1 <0>         0.0566
     47 H18         3.0441   -3.9434   -1.5054 H         1 <0>         0.0514
     48 H19         0.3391   -4.2792   -4.8031 H         1 <0>         0.0554
     49 H20         0.9250   -5.7446   -3.9799 H         1 <0>         0.0632
     50 H21        -0.2163   -4.6562   -3.1545 H         1 <0>         0.0583
     51 H22         2.0264    1.9461   -4.2498 H         1 <0>         0.1442
     52 H23         4.2743   -1.1017   -3.9276 H         1 <0>         0.1250
     53 H24         4.0342   -1.2776   -5.6867 H         1 <0>         0.1051
     54 H25         6.2837    0.0608   -4.1816 H         1 <0>         0.0907
     55 H26         6.3657   -1.0714   -5.5445 H         1 <0>         0.1045
     56 H27         8.4908    0.3176   -5.5260 H         1 <0>         0.1403
     57 H28        10.4129    0.9592   -6.9202 H         1 <0>         0.1629
     58 H29         7.9413    2.8771   -9.6500 H         1 <0>         0.1657
     59 H30         5.9363    2.2906   -8.3515 H         1 <0>         0.1403
@<TRIPOS>BOND
     1    1    2 1
     2    1   30 1
     3    1   31 1
     4    1   32 1
     5    2    3 1
     6    2    4 1
     7    2    5 1
     8    3   33 1
     9    3   34 1
    10    3   35 1
    11    4   36 1
    12    4   37 1
    13    4   38 1
    14    5   10 ar
    15    5    6 ar
    16    6    7 ar
    17    6   39 1
    18    7    8 ar
    19    7   16 1
    20    8    9 ar
    21    8   40 1
    22    9   10 ar
    23    9   12 1
    24   10   11 1
    25   11   41 1
    26   12   13 1
    27   12   14 1
    28   12   15 1
    29   13   42 1
    30   13   43 1
    31   13   44 1
    32   14   45 1
    33   14   46 1
    34   14   47 1
    35   15   48 1
    36   15   49 1
    37   15   50 1
    38   16   17 2
    39   16   51 1
    40   17   21 1
    41   17   18 1
    42   18   19 1
    43   18   52 1
    44   18   53 1
    45   19   20 1
    46   19   54 1
    47   19   55 1
    48   20   21 1
    49   20   24 1
    50   21   22 2
    51   21   23 2
    52   24   29 ar
    53   24   25 ar
    54   25   26 ar
    55   25   56 1
    56   26   27 ar
    57   26   57 1
    58   27   28 ar
    59   28   29 ar
    60   28   58 1
    61   29   59 1
@<TRIPOS>MOLECULE
CHEMBL271932
   45    47     0     0     0
SMALL
USER_CHARGES

@<TRIPOS>ATOM
      1 C1         -0.0173    1.4248    0.0099 C.3       1 <0>         0.0367
      2 O1          0.0021   -0.0041    0.0020 O.3       1 <0>        -0.2988
      3 C2          0.6042   -0.6055   -1.0530 C.ar      1 <0>         0.3950
      4 C3          0.6588   -1.9921   -1.1356 C.ar      1 <0>        -0.3137
      5 C4          1.2877   -2.5671   -2.2378 C.ar      1 <0>         0.4663
      6 N1          1.8120   -1.7756   -3.1692 N.ar      1 <0>        -0.5807
      7 C5          1.7408   -0.4570   -3.0565 C.ar      1 <0>         0.4293
      8 N2          1.1449    0.1227   -2.0237 N.ar      1 <0>        -0.5985
      9 C6          2.3381    0.3920   -4.1159 C.ar      1 <0>         0.0093
     10 C7          2.9596   -0.1961   -5.2160 C.ar      1 <0>        -0.0886
     11 C8          3.5133    0.5988   -6.1990 C.ar      1 <0>        -0.0342
     12 C9          3.4521    1.9767   -6.0939 C.ar      1 <0>        -0.6437
     13 C10         2.8365    2.5658   -5.0043 C.ar      1 <0>        -0.0344
     14 C11         2.2748    1.7808   -4.0179 C.ar      1 <0>        -0.0899
     15 S1          4.1617    2.9853   -7.3525 S.o2      1 <0>         2.4990
     16 O2          4.4841    4.2058   -6.7002 O.2       1 <0>        -0.9353
     17 O3          5.1812    2.1811   -7.9298 O.2       1 <0>        -0.9352
     18 C12         2.8230    3.2501   -8.5476 C.3       1 <0>        -0.6498
     19 N3          1.3662   -3.9455   -2.3619 N.pl3     1 <0>        -0.7020
     20 C13         0.7856   -4.8081   -1.3298 C.3       1 <0>         0.1663
     21 C14         1.0046   -6.2523   -1.7006 C.ar      1 <0>        -0.1152
     22 C15         0.0665   -6.9192   -2.4663 C.ar      1 <0>        -0.0973
     23 C16         0.2674   -8.2439   -2.8064 C.ar      1 <0>        -0.1217
     24 C17         1.4065   -8.9016   -2.3813 C.ar      1 <0>        -0.1071
     25 C18         2.3450   -8.2344   -1.6164 C.ar      1 <0>        -0.1215
     26 C19         2.1462   -6.9085   -1.2799 C.ar      1 <0>        -0.0971
     27 H1          1.0053    1.8021    0.0021 H         1 <0>         0.0633
     28 H2         -0.5445    1.7859   -0.8732 H         1 <0>         0.0629
     29 H3         -0.5275    1.7763    0.9067 H         1 <0>         0.1012
     30 H4          0.2241   -2.6092   -0.3632 H         1 <0>         0.1498
     31 H5          3.0083   -1.2718   -5.2989 H         1 <0>         0.1479
     32 H6          3.9955    0.1441   -7.0518 H         1 <0>         0.1482
     33 H7          2.7916    3.6421   -4.9273 H         1 <0>         0.1482
     34 H8          1.7907    2.2418   -3.1697 H         1 <0>         0.1465
     35 H9          1.9887    3.7486   -8.0540 H         1 <0>         0.1322
     36 H10         3.1847    3.8720   -9.3665 H         1 <0>         0.1340
     37 H11         2.4912    2.2890   -8.9404 H         1 <0>         0.1323
     38 H12         1.8055   -4.3389   -3.1320 H         1 <0>         0.4124
     39 H13         1.2645   -4.6022   -0.3725 H         1 <0>         0.0786
     40 H14        -0.2836   -4.6113   -1.2510 H         1 <0>         0.0785
     41 H15        -0.8234   -6.4053   -2.7984 H         1 <0>         0.1246
     42 H16        -0.4659   -8.7651   -3.4040 H         1 <0>         0.1259
     43 H17         1.5631   -9.9367   -2.6464 H         1 <0>         0.1252
     44 H18         3.2348   -8.7484   -1.2840 H         1 <0>         0.1260
     45 H19         2.8812   -6.3862   -0.6854 H         1 <0>         0.1248
@<TRIPOS>BOND
     1    1    2 1
     2    1   27 1
     3    1   28 1
     4    1   29 1
     5    2    3 1
     6    3    8 ar
     7    3    4 ar
     8    4    5 ar
     9    4   30 1
    10    5    6 ar
    11    5   19 1
    12    6    7 ar
    13    7    8 ar
    14    7    9 1
    15    9   14 ar
    16    9   10 ar
    17   10   11 ar
    18   10   31 1
    19   11   12 ar
    20   11   32 1
    21   12   13 ar
    22   12   15 1
    23   13   14 ar
    24   13   33 1
    25   14   34 1
    26   15   16 2
    27   15   17 2
    28   15   18 1
    29   18   35 1
    30   18   36 1
    31   18   37 1
    32   19   20 1
    33   19   38 1
    34   20   21 1
    35   20   39 1
    36   20   40 1
    37   21   26 ar
    38   21   22 ar
    39   22   23 ar
    40   22   41 1
    41   23   24 ar
    42   23   42 1
    43   24   25 ar
    44   24   43 1
    45   25   26 ar
    46   25   44 1
    47   26   45 1
@<TRIPOS>MOLECULE
CHEMBL96954
   50    53     0     0     0
SMALL
USER_CHARGES

@<TRIPOS>ATOM
      1 C1         -0.0130    1.7279   -0.1716 C.3       1 <0>        -0.1087
      2 C2          0.0431    0.2257   -0.0643 C.2       1 <0>         0.1303
      3 C3          0.0501   -0.6205   -1.1037 C.2       1 <0>        -0.1595
      4 C4          0.1119   -1.9796   -0.5551 C.ar      1 <0>        -0.0350
      5 C5          0.1446   -3.2524   -1.1266 C.ar      1 <0>        -0.1136
      6 C6          0.2032   -4.3658   -0.3108 C.ar      1 <0>         0.1157
      7 C7          0.2294   -4.2201    1.0732 C.ar      1 <0>        -0.1746
      8 C8          0.1970   -2.9678    1.6470 C.ar      1 <0>        -0.0808
      9 C9          0.1386   -1.8364    0.8427 C.ar      1 <0>         0.0766
     10 N1          0.1007   -0.4794    1.1133 N.am      1 <0>        -0.5029
     11 C10         0.1147    0.0670    2.3452 C.2       1 <0>         0.6015
     12 O1         -0.9305    0.3543    2.8944 O.2       1 <0>        -0.4255
     13 C11         1.4002    0.3165    3.0276 C.ar      1 <0>        -0.1663
     14 C12         2.6050    0.0963    2.3560 C.ar      1 <0>        -0.0432
     15 C13         3.8020    0.3311    2.9987 C.ar      1 <0>        -0.1206
     16 C14         3.8114    0.7843    4.3077 C.ar      1 <0>         0.0046
     17 C15         2.6200    1.0041    4.9793 C.ar      1 <0>        -0.1226
     18 C16         1.4164    0.7790    4.3455 C.ar      1 <0>        -0.0373
     19 Cl1         5.3228    1.0776    5.1099 Cl        1 <0>        -0.0510
     20 O2          0.2348   -5.6084   -0.8618 O.3       1 <0>        -0.3160
     21 C17         0.2951   -6.7162    0.0389 C.3       1 <0>         0.0266
     22 C18         0.0029   -0.2458   -2.5626 C.3       1 <0>        -0.0307
     23 C19         1.4066   -0.0697   -3.0818 C.2       1 <0>         0.4574
     24 O3          2.3488   -0.2317   -2.3428 O.2       1 <0>        -0.4754
     25 O4          1.6103    0.2673   -4.3653 O.3       1 <0>        -0.2928
     26 C20         2.8906    0.3002   -4.8210 C.ar      1 <0>         0.0379
     27 C21         3.6172   -0.8771   -4.9697 C.ar      1 <0>        -0.0815
     28 C22         4.9185   -0.7930   -5.4374 C.ar      1 <0>        -0.1540
     29 C23         5.4485    0.4478   -5.7389 C.ar      1 <0>         0.0993
     30 N2          4.7327    1.5446   -5.5867 N.ar      1 <0>        -0.4654
     31 C24         3.4893    1.5073   -5.1499 C.ar      1 <0>         0.1061
     32 H1          1.0001    2.1264   -0.2254 H         1 <0>         0.0876
     33 H2         -0.5617    2.0076   -1.0709 H         1 <0>         0.0955
     34 H3         -0.5179    2.1361    0.7039 H         1 <0>         0.0738
     35 H4          0.1239   -3.3663   -2.2004 H         1 <0>         0.1333
     36 H5          0.2752   -5.0964    1.7029 H         1 <0>         0.1366
     37 H6          0.2171   -2.8656    2.7220 H         1 <0>         0.1237
     38 H7          2.5989   -0.2574    1.3356 H         1 <0>         0.1431
     39 H8          4.7342    0.1609    2.4806 H         1 <0>         0.1450
     40 H9          2.6339    1.3572    5.9998 H         1 <0>         0.1471
     41 H10         0.4881    0.9553    4.8685 H         1 <0>         0.1482
     42 H11         0.3152   -7.6460   -0.5296 H         1 <0>         0.1013
     43 H12         1.1973   -6.6420    0.6461 H         1 <0>         0.0556
     44 H13        -0.5811   -6.7055    0.6871 H         1 <0>         0.0560
     45 H14        -0.4959   -1.0355   -3.1245 H         1 <0>         0.1222
     46 H15        -0.5479    0.6874   -2.6805 H         1 <0>         0.1201
     47 H16         3.1776   -1.8330   -4.7260 H         1 <0>         0.1395
     48 H17         5.5120   -1.6863   -5.5648 H         1 <0>         0.1441
     49 H18         6.4625    0.5197   -6.1036 H         1 <0>         0.1642
     50 H19         2.9327    2.4266   -5.0429 H         1 <0>         0.1642
@<TRIPOS>BOND
     1    1    2 1
     2    1   32 1
     3    1   33 1
     4    1   34 1
     5    2   10 1
     6    2    3 2
     7    3    4 1
     8    3   22 1
     9    4    9 ar
    10    4    5 ar
    11    5    6 ar
    12    5   35 1
    13    6    7 ar
    14    6   20 1
    15    7    8 ar
    16    7   36 1
    17    8    9 ar
    18    8   37 1
    19    9   10 1
    20   10   11 am
    21   11   12 2
    22   11   13 1
    23   13   18 ar
    24   13   14 ar
    25   14   15 ar
    26   14   38 1
    27   15   16 ar
    28   15   39 1
    29   16   17 ar
    30   16   19 1
    31   17   18 ar
    32   17   40 1
    33   18   41 1
    34   20   21 1
    35   21   42 1
    36   21   43 1
    37   21   44 1
    38   22   23 1
    39   22   45 1
    40   22   46 1
    41   23   24 2
    42   23   25 1
    43   25   26 1
    44   26   31 ar
    45   26   27 ar
    46   27   28 ar
    47   27   47 1
    48   28   29 ar
    49   28   48 1
    50   29   30 ar
    51   29   49 1
    52   30   31 ar
    53   31   50 1
@<TRIPOS>MOLECULE
CHEMBL33957
   32    34     0     0     0
SMALL
USER_CHARGES

@<TRIPOS>ATOM
      1 C1         -0.0167    1.3806    0.0096 C.ar      1 <0>        -0.0307
      2 C2          1.1672    2.0822    0.0021 C.ar      1 <0>        -0.1664
      3 C3          2.3886    1.4233   -0.0131 C.ar      1 <0>         0.1147
      4 C4          2.3994    0.0300   -0.0211 C.ar      1 <0>        -0.1028
      5 C5          1.2130   -0.6733   -0.0144 C.ar      1 <0>        -0.0092
      6 C6          0.0021   -0.0041    0.0020 C.ar      1 <0>        -0.1063
      7 Br1        -1.6201   -0.9759    0.0129 Br        1 <0>        -0.0277
      8 C7          1.2357   -2.1801   -0.0237 C.3       1 <0>        -0.0639
      9 C8          1.9531   -2.6717   -1.2825 C.3       1 <0>        -0.1102
     10 C9          1.9762   -4.2015   -1.2919 C.3       1 <0>        -0.1195
     11 C10         2.7165   -4.7080   -0.0525 C.3       1 <0>        -0.1222
     12 C11         1.9991   -4.2165    1.2064 C.3       1 <0>        -0.1195
     13 C12         1.9761   -2.6867    1.2158 C.3       1 <0>        -0.1102
     14 O1          3.4124    2.3106   -0.0181 O.3       1 <0>        -0.2723
     15 C13         3.0050    3.5852   -0.0074 C.2       1 <0>         0.4976
     16 O2          3.7093    4.5669   -0.0085 O.2       1 <0>        -0.4215
     17 C14         1.4897    3.5598    0.0070 C.3       1 <0>        -0.1430
     18 H1         -0.9586    1.9088    0.0260 H         1 <0>         0.1449
     19 H2          3.3399   -0.5008   -0.0329 H         1 <0>         0.1457
     20 H3          0.2137   -2.5590   -0.0166 H         1 <0>         0.0991
     21 H4          1.4257   -2.3108   -2.1656 H         1 <0>         0.0658
     22 H5          2.9751   -2.2928   -1.2897 H         1 <0>         0.0662
     23 H6          0.9541   -4.5803   -1.2848 H         1 <0>         0.0643
     24 H7          2.4872   -4.5516   -2.1888 H         1 <0>         0.0653
     25 H8          2.7329   -5.7978   -0.0592 H         1 <0>         0.0631
     26 H9          3.7385   -4.3291   -0.0596 H         1 <0>         0.0624
     27 H10         0.9771   -4.5953    1.2135 H         1 <0>         0.0643
     28 H11         2.5265   -4.5773    2.0894 H         1 <0>         0.0653
     29 H12         2.9981   -2.3078    1.2087 H         1 <0>         0.0662
     30 H13         1.4650   -2.3365    2.1126 H         1 <0>         0.0658
     31 H14         1.0885    4.0439   -0.8834 H         1 <0>         0.1374
     32 H15         1.1057    4.0343    0.9100 H         1 <0>         0.1374
@<TRIPOS>BOND
     1    1    6 ar
     2    1    2 ar
     3    1   18 1
     4    2   17 1
     5    2    3 ar
     6    3    4 ar
     7    3   14 1
     8    4    5 ar
     9    4   19 1
    10    5    6 ar
    11    5    8 1
    12    6    7 1
    13    8   13 1
    14    8    9 1
    15    8   20 1
    16    9   10 1
    17    9   21 1
    18    9   22 1
    19   10   11 1
    20   10   23 1
    21   10   24 1
    22   11   12 1
    23   11   25 1
    24   11   26 1
    25   12   13 1
    26   12   27 1
    27   12   28 1
    28   13   29 1
    29   13   30 1
    30   14   15 1
    31   15   16 2
    32   15   17 1
    33   17   31 1
    34   17   32 1
@<TRIPOS>MOLECULE
CHEMBL13988
   51    53     0     0     0
SMALL
USER_CHARGES

@<TRIPOS>ATOM
      1 C1         -0.0187    1.5258    0.0104 C.3       1 <0>        -0.1363
      2 C2          0.0021   -0.0041    0.0020 C.3       1 <0>        -0.0511
      3 C3         -1.4208   -0.5776    0.2013 C.3       1 <0>         0.0543
      4 O1         -1.4942   -0.7625    1.6248 O.3       1 <0>        -0.2916
      5 C4         -0.2443   -0.9743    2.1166 C.ar      1 <0>         0.1501
      6 C5          0.7293   -0.5432    1.2190 C.ar      1 <0>        -0.1762
      7 C6          2.0638   -0.6510    1.5199 C.ar      1 <0>        -0.0120
      8 C7          2.4598   -1.2079    2.7410 C.ar      1 <0>        -0.1904
      9 C8          1.4871   -1.6495    3.6428 C.ar      1 <0>        -0.0396
     10 C9          0.1529   -1.5337    3.3323 C.ar      1 <0>        -0.1034
     11 C10        -0.8878   -2.0127    4.3115 C.3       1 <0>        -0.0216
     12 C11        -0.1970   -2.5784    5.5539 C.3       1 <0>        -0.1482
     13 C12        -1.7851   -0.8412    4.7157 C.3       1 <0>        -0.1412
     14 C13        -1.7378   -3.1046    3.6588 C.3       1 <0>        -0.1415
     15 C14         3.8925   -1.3287    3.0739 C.2       1 <0>         0.4298
     16 O2          4.7348   -0.9432    2.2853 O.2       1 <0>        -0.4643
     17 C15         4.3018   -1.9148    4.3586 C.2       1 <0>        -0.2419
     18 C16         5.5945   -2.0237    4.6590 C.2       1 <0>        -0.0488
     19 C17         6.0140   -2.6245    5.9758 C.3       1 <0>        -0.0732
     20 C18         6.9757   -3.7873    5.7226 C.3       1 <0>        -0.1541
     21 C19         6.5222   -5.1848    6.1495 C.3       1 <0>        -0.1789
     22 C20         7.6101   -4.4580    6.9427 C.3       1 <0>        -0.1786
     23 C21         0.6300   -0.5328   -1.2892 C.3       1 <0>        -0.1379
     24 H1          1.0039    1.9031    0.0027 H         1 <0>         0.0641
     25 H2         -0.5459    1.8868   -0.8726 H         1 <0>         0.0658
     26 H3         -0.5289    1.8773    0.9072 H         1 <0>         0.0605
     27 H4         -2.1746    0.1344   -0.1349 H         1 <0>         0.1096
     28 H5         -1.5293   -1.5299   -0.3178 H         1 <0>         0.0813
     29 H6          2.8069   -0.3064    0.8160 H         1 <0>         0.1334
     30 H7          1.7847   -2.0831    4.5861 H         1 <0>         0.1441
     31 H8          0.4086   -1.8005    6.0189 H         1 <0>         0.0595
     32 H9         -0.9497   -2.9248    6.2621 H         1 <0>         0.0623
     33 H10         0.4423   -3.4130    5.2659 H         1 <0>         0.0595
     34 H11        -2.2772   -0.4382    3.8306 H         1 <0>         0.0644
     35 H12        -2.5378   -1.1876    5.4239 H         1 <0>         0.0589
     36 H13        -1.1795   -0.0633    5.1807 H         1 <0>         0.0540
     37 H14        -1.0986   -3.9392    3.3708 H         1 <0>         0.0538
     38 H15        -2.4905   -3.4510    4.3670 H         1 <0>         0.0592
     39 H16        -2.2299   -2.7016    2.7737 H         1 <0>         0.0633
     40 H17         3.5540   -2.2570    5.0587 H         1 <0>         0.1298
     41 H18         6.3423   -1.6815    3.9589 H         1 <0>         0.1265
     42 H19         6.5124   -1.8657    6.5790 H         1 <0>         0.0898
     43 H20         5.1341   -2.9896    6.5054 H         1 <0>         0.0764
     44 H21         7.5815   -3.7083    4.8199 H         1 <0>         0.1077
     45 H22         5.5389   -5.2759    6.6108 H         1 <0>         0.0952
     46 H23         6.8296   -6.0256    5.5276 H         1 <0>         0.0946
     47 H24         8.6331   -4.8205    6.8426 H         1 <0>         0.0957
     48 H25         7.3424   -4.0708    7.9258 H         1 <0>         0.0956
     49 H26         1.6576   -0.1776   -1.3654 H         1 <0>         0.0652
     50 H27         0.6221   -1.6227   -1.2772 H         1 <0>         0.0608
     51 H28         0.0574   -0.1747   -2.1448 H         1 <0>         0.0653
@<TRIPOS>BOND
     1    1    2 1
     2    1   24 1
     3    1   25 1
     4    1   26 1
     5    2    6 1
     6    2    3 1
     7    2   23 1
     8    3    4 1
     9    3   27 1
    10    3   28 1
    11    4    5 1
    12    5   10 ar
    13    5    6 ar
    14    6    7 ar
    15    7    8 ar
    16    7   29 1
    17    8    9 ar
    18    8   15 1
    19    9   10 ar
    20    9   30 1
    21   10   11 1
    22   11   12 1
    23   11   13 1
    24   11   14 1
    25   12   31 1
    26   12   32 1
    27   12   33 1
    28   13   34 1
    29   13   35 1
    30   13   36 1
    31   14   37 1
    32   14   38 1
    33   14   39 1
    34   15   16 2
    35   15   17 1
    36   17   18 2
    37   17   40 1
    38   18   19 1
    39   18   41 1
    40   19   20 1
    41   19   42 1
    42   19   43 1
    43   20   22 1
    44   20   21 1
    45   20   44 1
    46   21   22 1
    47   21   45 1
    48   21   46 1
    49   22   47 1
    50   22   48 1
    51   23   49 1
    52   23   50 1
    53   23   51 1
@<TRIPOS>MOLECULE
CHEMBL350039
   47    50     0     0     0
SMALL
USER_CHARGES

@<TRIPOS>ATOM
      1 C1         -0.5619    1.6394   -0.2281 C.3       1 <0>        -0.6499
      2 S1          0.0906   -0.0287    0.0586 S.o2      1 <0>         2.4973
      3 O1          1.1183    0.0096    1.0392 O.2       1 <0>        -0.9346
      4 O2         -0.9770   -0.9605    0.1642 O.2       1 <0>        -0.9347
      5 C2          0.9141   -0.4564   -1.4392 C.ar      1 <0>        -0.6508
      6 C3          0.2164   -1.0900   -2.4522 C.ar      1 <0>        -0.0194
      7 C4          0.8554   -1.4275   -3.6274 C.ar      1 <0>        -0.1184
      8 C5          2.2083   -1.1286   -3.7932 C.ar      1 <0>        -0.0021
      9 C6          2.9062   -0.4895   -2.7678 C.ar      1 <0>        -0.1070
     10 C7          2.2543   -0.1522   -1.5996 C.ar      1 <0>        -0.0181
     11 C8          2.9002   -1.4883   -5.0513 C.2       1 <0>        -0.0238
     12 C9          3.0606   -2.8412   -5.4155 C.2       1 <0>         0.0946
     13 N1          3.6694   -3.1622   -6.5238 N.2       1 <0>        -0.2076
     14 N2          4.1805   -2.1849   -7.3830 N.am      1 <0>        -0.3632
     15 C10         4.0574   -0.8759   -7.0871 C.2       1 <0>         0.5082
     16 O3          4.5065   -0.0293   -7.8422 O.2       1 <0>        -0.5026
     17 C11         3.3968   -0.4915   -5.8946 C.2       1 <0>        -0.0674
     18 C12         3.2409    0.9380   -5.5459 C.ar      1 <0>        -0.0432
     19 C13         1.9690    1.5081   -5.4782 C.ar      1 <0>        -0.0914
     20 C14         1.8305    2.8414   -5.1521 C.ar      1 <0>        -0.1195
     21 C15         2.9492    3.6130   -4.8924 C.ar      1 <0>        -0.1063
     22 C16         4.2131    3.0538   -4.9578 C.ar      1 <0>        -0.1169
     23 C17         4.3649    1.7204   -5.2776 C.ar      1 <0>        -0.0832
     24 C18         4.8268   -2.5699   -8.5620 C.ar      1 <0>         0.1339
     25 C19         6.0631   -2.0262   -8.8877 C.ar      1 <0>        -0.0931
     26 C20         6.6988   -2.4088  -10.0524 C.ar      1 <0>        -0.1070
     27 C21         6.1060   -3.3322  -10.8942 C.ar      1 <0>        -0.1103
     28 C22         4.8754   -3.8754  -10.5731 C.ar      1 <0>        -0.1097
     29 C23         4.2367   -3.5011   -9.4074 C.ar      1 <0>        -0.1015
     30 H1          0.2619    2.3197   -0.4437 H         1 <0>         0.1323
     31 H2         -1.2485    1.6204   -1.0745 H         1 <0>         0.1323
     32 H3         -1.0913    1.9803    0.6616 H         1 <0>         0.1346
     33 H4         -0.8306   -1.3211   -2.3225 H         1 <0>         0.1484
     34 H5          0.3098   -1.9224   -4.4173 H         1 <0>         0.1386
     35 H6          3.9535   -0.2555   -2.8901 H         1 <0>         0.1346
     36 H7          2.7923    0.3464   -0.8069 H         1 <0>         0.1473
     37 H8          2.6764   -3.6182   -4.7713 H         1 <0>         0.2026
     38 H9          1.0950    0.9069   -5.6811 H         1 <0>         0.1211
     39 H10         0.8467    3.2840   -5.0998 H         1 <0>         0.1268
     40 H11         2.8355    4.6564   -4.6379 H         1 <0>         0.1259
     41 H12         5.0824    3.6614   -4.7540 H         1 <0>         0.1279
     42 H13         5.3517    1.2839   -5.3240 H         1 <0>         0.1216
     43 H14         6.5264   -1.3048   -8.2309 H         1 <0>         0.1279
     44 H15         7.6597   -1.9863  -10.3063 H         1 <0>         0.1328
     45 H16         6.6052   -3.6294  -11.8047 H         1 <0>         0.1303
     46 H17         4.4153   -4.5962  -11.2328 H         1 <0>         0.1329
     47 H18         3.2777   -3.9290   -9.1550 H         1 <0>         0.1297
@<TRIPOS>BOND
     1    1    2 1
     2    1   30 1
     3    1   31 1
     4    1   32 1
     5    2    3 2
     6    2    4 2
     7    2    5 1
     8    5   10 ar
     9    5    6 ar
    10    6    7 ar
    11    6   33 1
    12    7    8 ar
    13    7   34 1
    14    8    9 ar
    15    8   11 1
    16    9   10 ar
    17    9   35 1
    18   10   36 1
    19   11   17 2
    20   11   12 1
    21   12   13 2
    22   12   37 1
    23   13   14 1
    24   14   15 am
    25   14   24 1
    26   15   16 2
    27   15   17 1
    28   17   18 1
    29   18   23 ar
    30   18   19 ar
    31   19   20 ar
    32   19   38 1
    33   20   21 ar
    34   20   39 1
    35   21   22 ar
    36   21   40 1
    37   22   23 ar
    38   22   41 1
    39   23   42 1
    40   24   29 ar
    41   24   25 ar
    42   25   26 ar
    43   25   43 1
    44   26   27 ar
    45   26   44 1
    46   27   28 ar
    47   27   45 1
    48   28   29 ar
    49   28   46 1
    50   29   47 1
@<TRIPOS>MOLECULE
CHEMBL271348
   52    55     0     0     0
SMALL
USER_CHARGES

@<TRIPOS>ATOM
      1 C1         -0.0225    1.8097    0.0120 C.3       1 <0>        -0.6500
      2 S1          0.0021   -0.0041    0.0020 S.o2      1 <0>         2.4987
      3 O1          0.8352   -0.4880    1.0465 O.2       1 <0>        -0.9352
      4 O2         -1.3147   -0.5105   -0.1678 O.2       1 <0>        -0.9352
      5 C2          0.8454   -0.4373   -1.4831 C.ar      1 <0>        -0.6436
      6 C3          0.1315   -0.6121   -2.6550 C.ar      1 <0>        -0.0344
      7 C4          0.7868   -0.9519   -3.8211 C.ar      1 <0>        -0.0897
      8 C5          2.1705   -1.1185   -3.8166 C.ar      1 <0>         0.0096
      9 C6          2.8847   -0.9407   -2.6331 C.ar      1 <0>        -0.0885
     10 C7          2.2196   -0.5958   -1.4740 C.ar      1 <0>        -0.0341
     11 C8          2.8803   -1.4842   -5.0665 C.ar      1 <0>         0.4303
     12 N1          4.1961   -1.6430   -5.0392 N.ar      1 <0>        -0.5809
     13 C9          4.8645   -1.9707   -6.1410 C.ar      1 <0>         0.4683
     14 C10         4.1629   -2.1465   -7.3323 C.ar      1 <0>        -0.3160
     15 C11         2.7844   -1.9712   -7.3208 C.ar      1 <0>         0.3997
     16 N2          2.1820   -1.6490   -6.1811 N.ar      1 <0>        -0.5968
     17 O3          2.0626   -2.1322   -8.4569 O.3       1 <0>        -0.2902
     18 C12         0.6506   -1.9343   -8.3619 C.3       1 <0>         0.0830
     19 C13        -0.0541   -3.2785   -8.0861 C.3       1 <0>        -0.1403
     20 C14        -1.3674   -3.1936   -8.9029 C.3       1 <0>        -0.1235
     21 C15        -0.9205   -2.4634  -10.1937 C.3       1 <0>        -0.1236
     22 C16         0.0997   -1.4160   -9.7020 C.3       1 <0>        -0.1251
     23 N3          6.2404   -2.1347   -6.1053 N.pl3     1 <0>        -0.7046
     24 C17         6.9670   -2.4958   -7.3251 C.3       1 <0>         0.2137
     25 C18         8.4378   -2.6116   -7.0181 C.2       1 <0>        -0.1834
     26 C19         9.1444   -3.6989   -6.6234 C.2       1 <0>        -0.1229
     27 C20        10.5019   -3.5702   -6.3972 C.2       1 <0>        -0.1657
     28 C21        11.0865   -2.3605   -6.5768 C.2       1 <0>        -0.1578
     29 S2          9.7032   -1.3541   -7.0874 S.3       1 <0>         0.0580
     30 H1          1.0001    2.1870    0.0043 H         1 <0>         0.1323
     31 H2         -0.5497    2.1708   -0.8711 H         1 <0>         0.1322
     32 H3         -0.5327    2.1613    0.9088 H         1 <0>         0.1340
     33 H4         -0.9407   -0.4828   -2.6573 H         1 <0>         0.1479
     34 H5          0.2283   -1.0889   -4.7353 H         1 <0>         0.1461
     35 H6          3.9571   -1.0685   -2.6239 H         1 <0>         0.1479
     36 H7          2.7724   -0.4538   -0.5572 H         1 <0>         0.1481
     37 H8          4.6786   -2.4124   -8.2432 H         1 <0>         0.1492
     38 H9          0.4261   -1.2240   -7.5662 H         1 <0>         0.0955
     39 H10         0.5591   -4.1094   -8.4351 H         1 <0>         0.0747
     40 H11        -0.2720   -3.3841   -7.0233 H         1 <0>         0.0746
     41 H12        -1.7441   -4.1901   -9.1334 H         1 <0>         0.0722
     42 H13        -2.1173   -2.6100   -8.3689 H         1 <0>         0.0716
     43 H14        -0.4472   -3.1626  -10.8831 H         1 <0>         0.0696
     44 H15        -1.7706   -1.9741  -10.6690 H         1 <0>         0.0715
     45 H16        -0.3929   -0.4546   -9.5564 H         1 <0>         0.0786
     46 H17         0.9095   -1.3155  -10.4247 H         1 <0>         0.0795
     47 H18         6.7222   -2.0104   -5.2726 H         1 <0>         0.4135
     48 H19         6.5975   -3.4508   -7.6988 H         1 <0>         0.0924
     49 H20         6.8131   -1.7257   -8.0811 H         1 <0>         0.0850
     50 H21         8.6540   -4.6514   -6.4873 H         1 <0>         0.1363
     51 H22        11.0881   -4.4207   -6.0818 H         1 <0>         0.1380
     52 H23        12.1213   -2.0794   -6.4484 H         1 <0>         0.1892
@<TRIPOS>BOND
     1    1    2 1
     2    1   30 1
     3    1   31 1
     4    1   32 1
     5    2    3 2
     6    2    4 2
     7    2    5 1
     8    5   10 ar
     9    5    6 ar
    10    6    7 ar
    11    6   33 1
    12    7    8 ar
    13    7   34 1
    14    8    9 ar
    15    8   11 1
    16    9   10 ar
    17    9   35 1
    18   10   36 1
    19   11   16 ar
    20   11   12 ar
    21   12   13 ar
    22   13   14 ar
    23   13   23 1
    24   14   15 ar
    25   14   37 1
    26   15   16 ar
    27   15   17 1
    28   17   18 1
    29   18   22 1
    30   18   19 1
    31   18   38 1
    32   19   20 1
    33   19   39 1
    34   19   40 1
    35   20   21 1
    36   20   41 1
    37   20   42 1
    38   21   22 1
    39   21   43 1
    40   21   44 1
    41   22   45 1
    42   22   46 1
    43   23   24 1
    44   23   47 1
    45   24   25 1
    46   24   48 1
    47   24   49 1
    48   25   29 1
    49   25   26 2
    50   26   27 1
    51   26   50 1
    52   27   28 2
    53   27   51 1
    54   28   29 1
    55   28   52 1
@<TRIPOS>MOLECULE
CHEMBL29562
   40    43     0     0     0
SMALL
USER_CHARGES

@<TRIPOS>ATOM
      1 C1          0.0001    1.3680    0.2450 C.ar      1 <0>        -0.1329
      2 C2          1.1470    2.0697   -0.0975 C.ar      1 <0>        -0.0793
      3 C3          2.3449    1.4130   -0.2859 C.ar      1 <0>        -0.1092
      4 C4          2.4091    0.0340   -0.1323 C.ar      1 <0>         0.0673
      5 C5          1.2434   -0.6723    0.2150 C.ar      1 <0>        -0.1376
      6 C6          0.0401    0.0104    0.4014 C.ar      1 <0>        -0.0611
      7 C7          1.6421   -2.0787    0.2965 C.2       1 <0>        -0.1300
      8 C8          2.9668   -2.1115    0.0034 C.2       1 <0>         0.0576
      9 O1          3.4095   -0.8630   -0.2476 O.3       1 <0>        -0.1847
     10 C9          3.7960   -3.3274   -0.0343 C.2       1 <0>         0.1657
     11 C10         3.3413   -4.6302   -0.0503 C.2       1 <0>        -0.1824
     12 C11         4.4560   -5.4669   -0.0866 C.2       1 <0>        -0.0035
     13 N1          5.5372   -4.7285   -0.0928 N.2       1 <0>        -0.2090
     14 N2          5.1625   -3.3793   -0.0661 N.pl3     1 <0>        -0.3084
     15 C12         6.0310   -2.2807   -0.0687 C.ar      1 <0>         0.1958
     16 C13         5.8073   -1.2149    0.7930 C.ar      1 <0>        -0.1184
     17 C14         6.6656   -0.1328    0.7880 C.ar      1 <0>        -0.0013
     18 C15         7.7464   -0.1098   -0.0742 C.ar      1 <0>        -0.6721
     19 C16         7.9719   -1.1695   -0.9336 C.ar      1 <0>         0.0012
     20 C17         7.1209   -2.2573   -0.9290 C.ar      1 <0>        -0.1195
     21 S1          8.8384    1.2730   -0.0784 S.o2      1 <0>         2.7037
     22 O2          9.4580    1.2975   -1.3570 O.2       1 <0>        -0.9566
     23 O3          8.1002    2.3749    0.4316 O.2       1 <0>        -0.9544
     24 N3         10.0350    0.9553    1.0214 N.pl3     1 <0>        -1.2463
     25 C18         4.4219   -6.9733   -0.1137 C.3       1 <0>         0.5596
     26 F1          4.3867   -7.4152   -1.4407 F         1 <0>        -0.1621
     27 F2          5.5656   -7.4770    0.5153 F         1 <0>        -0.1622
     28 F3          3.2820   -7.4262    0.5590 F         1 <0>        -0.1597
     29 H1         -0.9291    1.8980    0.3934 H         1 <0>         0.1347
     30 H2          1.1011    3.1420   -0.2182 H         1 <0>         0.1405
     31 H3          3.2311    1.9696   -0.5527 H         1 <0>         0.1369
     32 H4         -0.8553   -0.5314    0.6681 H         1 <0>         0.1331
     33 H5          1.0101   -2.9197    0.5408 H         1 <0>         0.1708
     34 H6          2.3083   -4.9449   -0.0370 H         1 <0>         0.1804
     35 H7          4.9629   -1.2320    1.4661 H         1 <0>         0.1400
     36 H8          6.4922    0.6963    1.4579 H         1 <0>         0.1563
     37 H9          8.8167   -1.1484   -1.6060 H         1 <0>         0.1573
     38 H10         7.3000   -3.0866   -1.5973 H         1 <0>         0.1475
     39 H11        10.9237    1.3214    0.8906 H         1 <0>         0.4240
     40 H12         9.8472    0.4031    1.7964 H         1 <0>         0.4182
@<TRIPOS>BOND
     1    1    6 ar
     2    1    2 ar
     3    1   29 1
     4    2    3 ar
     5    2   30 1
     6    3    4 ar
     7    3   31 1
     8    4    9 1
     9    4    5 ar
    10    5    6 ar
    11    5    7 1
    12    6   32 1
    13    7    8 2
    14    7   33 1
    15    8    9 1
    16    8   10 1
    17   10   14 1
    18   10   11 2
    19   11   12 1
    20   11   34 1
    21   12   13 2
    22   12   25 1
    23   13   14 1
    24   14   15 1
    25   15   20 ar
    26   15   16 ar
    27   16   17 ar
    28   16   35 1
    29   17   18 ar
    30   17   36 1
    31   18   19 ar
    32   18   21 1
    33   19   20 ar
    34   19   37 1
    35   20   38 1
    36   21   22 2
    37   21   23 2
    38   21   24 1
    39   24   39 1
    40   24   40 1
    41   25   26 1
    42   25   27 1
    43   25   28 1
@<TRIPOS>MOLECULE
CHEMBL304982
   45    46     0     0     0
SMALL
USER_CHARGES

@<TRIPOS>ATOM
      1 C1         -0.7122   -1.2409   -3.4255 C.3       1 <0>        -0.1530
      2 C2         -0.1302   -0.3377   -2.3362 C.3       1 <0>        -0.1196
      3 C3         -1.2565    0.4690   -1.6870 C.3       1 <0>         0.0835
      4 C4         -0.6614    1.4611   -0.6857 C.3       1 <0>        -0.1790
      5 O1         -2.1467   -0.4181   -1.0068 O.3       1 <0>        -0.2825
      6 C5         -3.4577   -0.0612   -0.9606 C.2       1 <0>         0.0124
      7 C6         -4.1581    0.2259    0.1608 C.2       1 <0>        -0.0911
      8 C7         -5.5617    0.5645   -0.2838 C.3       1 <0>         0.1361
      9 O2         -5.5757    0.4430   -1.7093 O.3       1 <0>        -0.2991
     10 C8         -4.3449    0.0826   -2.1172 C.2       1 <0>         0.4839
     11 O3         -4.0187   -0.1005   -3.2741 O.2       1 <0>        -0.4334
     12 C9         -6.5595   -0.4157    0.3362 C.3       1 <0>        -0.1561
     13 C10        -5.9100    1.9974    0.1242 C.3       1 <0>        -0.1499
     14 C11        -3.6521    0.2107    1.5425 C.ar      1 <0>         0.0258
     15 C12        -4.1039   -0.7566    2.4459 C.ar      1 <0>        -0.1188
     16 C13        -3.6250   -0.7642    3.7389 C.ar      1 <0>        -0.0192
     17 C14        -2.7001    0.1824    4.1437 C.ar      1 <0>        -0.6529
     18 C15        -2.2484    1.1432    3.2558 C.ar      1 <0>        -0.0196
     19 C16        -2.7127    1.1600    1.9575 C.ar      1 <0>        -0.1160
     20 S1         -2.0947    0.1646    5.7983 S.o2      1 <0>         2.4984
     21 O4         -1.7106    1.5078    6.0584 O.2       1 <0>        -0.9348
     22 O5         -3.1264   -0.4533    6.5553 O.2       1 <0>        -0.9345
     23 C17        -0.6307   -0.9052    5.7476 C.3       1 <0>        -0.6499
     24 H1          0.0902   -1.8156   -3.8881 H         1 <0>         0.0573
     25 H2         -1.4385   -1.9224   -2.9827 H         1 <0>         0.0590
     26 H3         -1.2028   -0.6282   -4.1817 H         1 <0>         0.0574
     27 H4          0.3605   -0.9505   -1.5800 H         1 <0>         0.0742
     28 H5          0.5962    0.3437   -2.7791 H         1 <0>         0.0833
     29 H6         -1.8037    1.0134   -2.4565 H         1 <0>         0.0719
     30 H7         -0.1888    0.9145    0.1303 H         1 <0>         0.0711
     31 H8          0.0823    2.0809   -1.1866 H         1 <0>         0.0780
     32 H9         -1.4539    2.0949   -0.2876 H         1 <0>         0.0581
     33 H10        -6.5031   -0.3527    1.4229 H         1 <0>         0.0880
     34 H11        -7.5681   -0.1628    0.0094 H         1 <0>         0.0846
     35 H12        -6.3180   -1.4298    0.0181 H         1 <0>         0.0717
     36 H13        -5.2095    2.6890   -0.3439 H         1 <0>         0.0698
     37 H14        -6.9237    2.2315   -0.2010 H         1 <0>         0.0852
     38 H15        -5.8451    2.0925    1.2080 H         1 <0>         0.0867
     39 H16        -4.8262   -1.4955    2.1316 H         1 <0>         0.1392
     40 H17        -3.9729   -1.5106    4.4377 H         1 <0>         0.1490
     41 H18        -1.5268    1.8788    3.5792 H         1 <0>         0.1482
     42 H19        -2.3555    1.9072    1.2643 H         1 <0>         0.1367
     43 H20         0.1005   -0.4879    5.0552 H         1 <0>         0.1322
     44 H21        -0.1926   -0.9691    6.7437 H         1 <0>         0.1349
     45 H22        -0.9201   -1.9015    5.4134 H         1 <0>         0.1325
@<TRIPOS>BOND
     1    1    2 1
     2    1   24 1
     3    1   25 1
     4    1   26 1
     5    2    3 1
     6    2   27 1
     7    2   28 1
     8    3    4 1
     9    3    5 1
    10    3   29 1
    11    4   30 1
    12    4   31 1
    13    4   32 1
    14    5    6 1
    15    6   10 1
    16    6    7 2
    17    7    8 1
    18    7   14 1
    19    8    9 1
    20    8   12 1
    21    8   13 1
    22    9   10 1
    23   10   11 2
    24   12   33 1
    25   12   34 1
    26   12   35 1
    27   13   36 1
    28   13   37 1
    29   13   38 1
    30   14   19 ar
    31   14   15 ar
    32   15   16 ar
    33   15   39 1
    34   16   17 ar
    35   16   40 1
    36   17   18 ar
    37   17   20 1
    38   18   19 ar
    39   18   41 1
    40   19   42 1
    41   20   21 2
    42   20   22 2
    43   20   23 1
    44   23   43 1
    45   23   44 1
    46   23   45 1
@<TRIPOS>MOLECULE
CHEMBL304982__1
   45    46     0     0     0
SMALL
USER_CHARGES

@<TRIPOS>ATOM
      1 C1         -0.3191    0.6960    3.4317 C.3       1 <0>        -0.1534
      2 C2         -0.0184    1.1095    1.9896 C.3       1 <0>        -0.1179
      3 C3         -1.3324    1.3122    1.2326 C.3       1 <0>         0.0842
      4 C4         -1.0356    1.8454   -0.1705 C.3       1 <0>        -0.1763
      5 O1         -2.0216    0.0645    1.1322 O.3       1 <0>        -0.2831
      6 C5         -3.3767    0.1140    1.0353 C.2       1 <0>         0.0122
      7 C6         -4.1059   -0.2765   -0.0354 C.2       1 <0>        -0.0887
      8 C7         -5.5544   -0.0357    0.3200 C.3       1 <0>         0.1357
      9 O2         -5.5621    0.5068    1.6438 O.3       1 <0>        -0.2992
     10 C8         -4.2902    0.5930    2.0752 C.2       1 <0>         0.4842
     11 O3         -3.9497    1.0103    3.1653 O.2       1 <0>        -0.4337
     12 C9         -6.1762    0.9616   -0.6595 C.3       1 <0>        -0.1540
     13 C10        -6.3286   -1.3550    0.2891 C.3       1 <0>        -0.1523
     14 C11        -3.5893   -0.8272   -1.2984 C.ar      1 <0>         0.0242
     15 C12        -3.7181   -0.1010   -2.4866 C.ar      1 <0>        -0.1229
     16 C13        -3.2315   -0.6239   -3.6661 C.ar      1 <0>        -0.0202
     17 C14        -2.6175   -1.8642   -3.6761 C.ar      1 <0>        -0.6536
     18 C15        -2.4866   -2.5892   -2.5045 C.ar      1 <0>        -0.0186
     19 C16        -2.9620   -2.0771   -1.3158 C.ar      1 <0>        -0.1084
     20 S1         -1.9995   -2.5239   -5.1886 S.o2      1 <0>         2.4983
     21 O4         -2.0219   -3.9329   -5.0056 O.2       1 <0>        -0.9344
     22 O5         -2.7882   -1.9122   -6.2000 O.2       1 <0>        -0.9349
     23 C17        -0.2871   -1.9340   -5.2893 C.3       1 <0>        -0.6500
     24 H1          0.6170    0.5516    3.9710 H         1 <0>         0.0577
     25 H2         -0.9027    1.4768    3.9194 H         1 <0>         0.0568
     26 H3         -0.8859   -0.2350    3.4320 H         1 <0>         0.0598
     27 H4          0.5485    2.0406    1.9894 H         1 <0>         0.0835
     28 H5          0.5652    0.3287    1.5019 H         1 <0>         0.0744
     29 H6         -1.9542    2.0286    1.7695 H         1 <0>         0.0712
     30 H7         -0.3591    1.1617   -0.6833 H         1 <0>         0.0682
     31 H8         -1.9659    1.9259   -0.7328 H         1 <0>         0.0576
     32 H9         -0.5705    2.8282   -0.0948 H         1 <0>         0.0752
     33 H10        -6.1177    0.5613   -1.6717 H         1 <0>         0.0885
     34 H11        -7.2203    1.1282   -0.3946 H         1 <0>         0.0861
     35 H12        -5.6338    1.9057   -0.6102 H         1 <0>         0.0706
     36 H13        -5.8938   -2.0484    1.0090 H         1 <0>         0.0710
     37 H14        -7.3715   -1.1704    0.5467 H         1 <0>         0.0837
     38 H15        -6.2721   -1.7861   -0.7105 H         1 <0>         0.0864
     39 H16        -4.1976    0.8667   -2.4804 H         1 <0>         0.1381
     40 H17        -3.3302   -0.0643   -4.5845 H         1 <0>         0.1484
     41 H18        -2.0066   -3.5565   -2.5205 H         1 <0>         0.1485
     42 H19        -2.8546   -2.6417   -0.4014 H         1 <0>         0.1379
     43 H20         0.2746   -2.3006   -4.4302 H         1 <0>         0.1323
     44 H21         0.1709   -2.3028   -6.2071 H         1 <0>         0.1348
     45 H22        -0.2778   -0.8440   -5.2912 H         1 <0>         0.1320
@<TRIPOS>BOND
     1    1    2 1
     2    1   24 1
     3    1   25 1
     4    1   26 1
     5    2    3 1
     6    2   27 1
     7    2   28 1
     8    3    4 1
     9    3    5 1
    10    3   29 1
    11    4   30 1
    12    4   31 1
    13    4   32 1
    14    5    6 1
    15    6   10 1
    16    6    7 2
    17    7    8 1
    18    7   14 1
    19    8    9 1
    20    8   12 1
    21    8   13 1
    22    9   10 1
    23   10   11 2
    24   12   33 1
    25   12   34 1
    26   12   35 1
    27   13   36 1
    28   13   37 1
    29   13   38 1
    30   14   19 ar
    31   14   15 ar
    32   15   16 ar
    33   15   39 1
    34   16   17 ar
    35   16   40 1
    36   17   18 ar
    37   17   20 1
    38   18   19 ar
    39   18   41 1
    40   19   42 1
    41   20   21 2
    42   20   22 2
    43   20   23 1
    44   23   43 1
    45   23   44 1
    46   23   45 1
@<TRIPOS>MOLECULE
CHEMBL527
   35    37     0     0     0
SMALL
USER_CHARGES

@<TRIPOS>ATOM
      1 C1          0.6255    1.3542   -0.5605 C.3       1 <0>         0.0948
      2 N1          0.2322   -0.0033   -0.1748 N.pl3     1 <0>        -0.9105
      3 C2         -0.3114   -0.9006   -1.1143 C.2       1 <0>        -0.2343
      4 C3         -0.1422   -2.2374   -1.0200 C.2       1 <0>         0.2854
      5 C4          0.6176   -2.9021    0.0461 C.ar      1 <0>         0.0199
      6 C5          1.0272   -4.2316   -0.1017 C.ar      1 <0>        -0.0969
      7 C6          1.7413   -4.8456    0.9051 C.ar      1 <0>        -0.0820
      8 C7          2.0581   -4.1566    2.0629 C.ar      1 <0>        -0.1431
      9 C8          1.6568   -2.8394    2.2205 C.ar      1 <0>        -0.0313
     10 C9          0.9442   -2.2193    1.2239 C.ar      1 <0>        -0.6512
     11 S1          0.4182   -0.5450    1.3906 S.o2      1 <0>         2.6931
     12 O1         -0.8758   -0.5751    1.9770 O.2       1 <0>        -0.9592
     13 O2          1.5036    0.1779    1.9549 O.2       1 <0>        -0.9720
     14 O3         -0.7116   -3.0161   -1.9716 O.3       1 <0>        -0.6327
     15 C10        -1.0642   -0.3818   -2.1986 C.2       1 <0>         0.5997
     16 O4         -1.0388   -0.9409   -3.2802 O.2       1 <0>        -0.5137
     17 N2         -1.8077    0.7300   -2.0320 N.am      1 <0>        -0.6672
     18 C11        -2.5987    1.2016   -3.0765 C.ar      1 <0>         0.3700
     19 C12        -2.3158    0.8175   -4.3829 C.ar      1 <0>        -0.1925
     20 C13        -3.1100    1.2931   -5.4110 C.ar      1 <0>        -0.0620
     21 C14        -4.1644    2.1400   -5.0962 C.ar      1 <0>        -0.2191
     22 C15        -4.3876    2.4801   -3.7768 C.ar      1 <0>         0.1198
     23 N3         -3.6165    2.0071   -2.8164 N.ar      1 <0>        -0.5289
     24 H1          1.6941    1.3759   -0.7746 H         1 <0>         0.0565
     25 H2          0.0707    1.6544   -1.4494 H         1 <0>         0.0772
     26 H3          0.4044    2.0422    0.2555 H         1 <0>         0.0622
     27 H4          0.7841   -4.7759   -1.0023 H         1 <0>         0.1409
     28 H5          2.0564   -5.8721    0.7892 H         1 <0>         0.1269
     29 H6          2.6187   -4.6464    2.8453 H         1 <0>         0.1280
     30 H7          1.9037   -2.3024    3.1244 H         1 <0>         0.1311
     31 H8         -1.7917    1.2016   -1.1845 H         1 <0>         0.4091
     32 H9         -1.4871    0.1573   -4.5920 H         1 <0>         0.1755
     33 H10        -2.9142    1.0123   -6.4353 H         1 <0>         0.1295
     34 H11        -4.8030    2.5290   -5.8754 H         1 <0>         0.1260
     35 H12        -5.2065    3.1386   -3.5273 H         1 <0>         0.1509
@<TRIPOS>BOND
     1    1    2 1
     2    1   24 1
     3    1   25 1
     4    1   26 1
     5    2   11 1
     6    2    3 1
     7    3    4 2
     8    3   15 1
     9    4    5 1
    10    4   14 1
    11    5   10 ar
    12    5    6 ar
    13    6    7 ar
    14    6   27 1
    15    7    8 ar
    16    7   28 1
    17    8    9 ar
    18    8   29 1
    19    9   10 ar
    20    9   30 1
    21   10   11 1
    22   11   12 2
    23   11   13 2
    24   15   16 2
    25   15   17 am
    26   17   18 1
    27   17   31 1
    28   18   23 ar
    29   18   19 ar
    30   19   20 ar
    31   19   32 1
    32   20   21 ar
    33   20   33 1
    34   21   22 ar
    35   21   34 1
    36   22   23 ar
    37   22   35 1
@<TRIPOS>MOLECULE
CHEMBL527__1
   36    38     0     0     0
SMALL
USER_CHARGES

@<TRIPOS>ATOM
      1 C1          0.2045    1.3282    0.0896 C.3       1 <0>         0.0933
      2 N1          0.0704   -0.1307    0.0840 N.pl3     1 <0>        -0.9750
      3 C2         -1.2482   -0.7866   -0.0035 C.3       1 <0>         0.0921
      4 C3         -1.4354   -1.6443    1.2198 C.2       1 <0>         0.3816
      5 C4         -0.3887   -2.5627    1.6880 C.ar      1 <0>        -0.0952
      6 C5         -0.7360   -3.6099    2.5534 C.ar      1 <0>        -0.0694
      7 C6          0.2333   -4.4736    3.0134 C.ar      1 <0>        -0.0815
      8 C7          1.5525   -4.3129    2.6261 C.ar      1 <0>        -0.0927
      9 C8          1.9050   -3.2854    1.7685 C.ar      1 <0>        -0.0309
     10 C9          0.9439   -2.4182    1.2952 C.ar      1 <0>        -0.6112
     11 S1          1.3992   -1.1307    0.1692 S.o2      1 <0>         2.6641
     12 O1          2.4366   -0.3857    0.7923 O.2       1 <0>        -0.9415
     13 O2          1.5470   -1.7301   -1.1107 O.2       1 <0>        -0.8925
     14 O3         -2.4778   -1.5748    1.8353 O.2       1 <0>        -0.4044
     15 C10        -1.3059   -1.6467   -1.2397 C.2       1 <0>         0.4678
     16 O4         -0.4549   -1.5348   -2.0965 O.2       1 <0>        -0.3871
     17 N2         -2.3033   -2.5401   -1.3931 N.am      1 <0>        -0.6605
     18 C11        -2.2996   -3.4085   -2.4836 C.ar      1 <0>         0.3577
     19 C12        -3.3882   -4.2456   -2.7012 C.ar      1 <0>        -0.2051
     20 C13        -3.3715   -5.1026   -3.7874 C.ar      1 <0>        -0.0477
     21 C14        -2.2620   -5.0927   -4.6219 C.ar      1 <0>        -0.2013
     22 C15        -1.2161   -4.2347   -4.3457 C.ar      1 <0>         0.1346
     23 N3         -1.2622   -3.4246   -3.3054 N.ar      1 <0>        -0.4716
     24 H1          1.2590    1.5959    0.1552 H         1 <0>         0.0949
     25 H2         -0.2173    1.7353   -0.8293 H         1 <0>         0.0749
     26 H3         -0.3286    1.7387    0.9471 H         1 <0>         0.0715
     27 H4         -1.7636   -3.7390    2.8596 H         1 <0>         0.1460
     28 H5         -0.0371   -5.2796    3.6795 H         1 <0>         0.1439
     29 H6          2.3085   -4.9907    2.9943 H         1 <0>         0.1455
     30 H7          2.9356   -3.1626    1.4697 H         1 <0>         0.1441
     31 H8         -3.0236   -2.5789   -0.7447 H         1 <0>         0.4176
     32 H9         -4.2351   -4.2274   -2.0313 H         1 <0>         0.1364
     33 H10        -4.2026   -5.7644   -3.9814 H         1 <0>         0.1394
     34 H11        -2.2174   -5.7495   -5.4781 H         1 <0>         0.1376
     35 H12        -0.3508   -4.2238   -4.9919 H         1 <0>         0.1614
     36 H13        -2.0322   -0.0305   -0.0451 H         1 <0>         0.1634
@<TRIPOS>BOND
     1    1    2 1
     2    1   24 1
     3    1   25 1
     4    1   26 1
     5    2   11 1
     6    2    3 1
     7    3    4 1
     8    3   15 1
     9    3   36 1
    10    4    5 1
    11    4   14 2
    12    5   10 ar
    13    5    6 ar
    14    6    7 ar
    15    6   27 1
    16    7    8 ar
    17    7   28 1
    18    8    9 ar
    19    8   29 1
    20    9   10 ar
    21    9   30 1
    22   10   11 1
    23   11   12 2
    24   11   13 2
    25   15   16 2
    26   15   17 am
    27   17   18 1
    28   17   31 1
    29   18   23 ar
    30   18   19 ar
    31   19   20 ar
    32   19   32 1
    33   20   21 ar
    34   20   33 1
    35   21   22 ar
    36   21   34 1
    37   22   23 ar
    38   22   35 1
@<TRIPOS>MOLECULE
CHEMBL275120
   47    49     0     0     0
SMALL
USER_CHARGES

@<TRIPOS>ATOM
      1 C1         -0.1650    2.1071    0.9392 C.3       1 <0>        -0.1364
      2 C2         -0.0542    0.6565    0.4655 C.3       1 <0>        -0.0505
      3 C3         -1.4419   -0.0272    0.4482 C.3       1 <0>         0.0537
      4 O1         -1.5112   -0.6419    1.7457 O.3       1 <0>        -0.2907
      5 C4         -0.2535   -0.9254    2.1777 C.ar      1 <0>         0.1527
      6 C5          0.6975   -0.1882    1.4764 C.ar      1 <0>        -0.1766
      7 C6          2.0345   -0.3106    1.7595 C.ar      1 <0>        -0.0308
      8 C7          2.4567   -1.1926    2.7610 C.ar      1 <0>        -0.1934
      9 C8          1.5069   -1.9410    3.4632 C.ar      1 <0>        -0.0264
     10 C9          0.1698   -1.8070    3.1740 C.ar      1 <0>        -0.1022
     11 C10        -0.8459   -2.6181    3.9367 C.3       1 <0>        -0.0223
     12 C11        -0.1293   -3.4978    4.9631 C.3       1 <0>        -0.1484
     13 C12        -1.8126   -1.6768    4.6580 C.3       1 <0>        -0.1407
     14 C13        -1.6268   -3.5031    2.9631 C.3       1 <0>        -0.1411
     15 C14         3.8915   -1.3317    3.0727 C.2       1 <0>         0.4440
     16 O2          4.2652   -2.1944    3.8438 O.2       1 <0>        -0.4485
     17 C15         4.8750   -0.4227    2.4480 C.ar      1 <0>        -0.1543
     18 C16         4.5319    0.9043    2.1794 C.ar      1 <0>        -0.0871
     19 C17         5.4549    1.7474    1.5966 C.ar      1 <0>        -0.1284
     20 C18         6.7182    1.2811    1.2776 C.ar      1 <0>        -0.0932
     21 C19         7.0646   -0.0326    1.5405 C.ar      1 <0>        -0.1265
     22 C20         6.1536   -0.8850    2.1287 C.ar      1 <0>        -0.0670
     23 C21         0.6100    0.5826   -0.9108 C.3       1 <0>        -0.1378
     24 H1          0.8336    2.5239    1.0700 H         1 <0>         0.0636
     25 H2         -0.7082    2.6914    0.1965 H         1 <0>         0.0662
     26 H3         -0.6994    2.1394    1.8887 H         1 <0>         0.0611
     27 H4         -2.2345    0.7113    0.3281 H         1 <0>         0.1099
     28 H5         -1.4916   -0.7799   -0.3386 H         1 <0>         0.0815
     29 H6          2.7594    0.2726    1.2111 H         1 <0>         0.1399
     30 H7          1.8247   -2.6258    4.2354 H         1 <0>         0.1478
     31 H8          0.4271   -2.8673    5.6566 H         1 <0>         0.0599
     32 H9         -0.8639   -4.0844    5.5147 H         1 <0>         0.0623
     33 H10         0.5594   -4.1684    4.4492 H         1 <0>         0.0602
     34 H11        -2.3231   -1.0501    3.9268 H         1 <0>         0.0642
     35 H12        -2.5472   -2.2635    5.2096 H         1 <0>         0.0594
     36 H13        -1.2562   -1.0463    5.3516 H         1 <0>         0.0539
     37 H14        -0.9381   -4.1737    2.4492 H         1 <0>         0.0538
     38 H15        -2.3615   -4.0897    3.5148 H         1 <0>         0.0598
     39 H16        -2.1373   -2.8764    2.2319 H         1 <0>         0.0631
     40 H17         3.5461    1.2692    2.4272 H         1 <0>         0.1340
     41 H18         5.1910    2.7737    1.3884 H         1 <0>         0.1298
     42 H19         7.4369    1.9455    0.8210 H         1 <0>         0.1282
     43 H20         8.0520   -0.3902    1.2883 H         1 <0>         0.1304
     44 H21         6.4267   -1.9088    2.3374 H         1 <0>         0.1314
     45 H22         1.6153    0.9996   -0.8519 H         1 <0>         0.0646
     46 H23         0.6662   -0.4575   -1.2318 H         1 <0>         0.0612
     47 H24         0.0215    1.1532   -1.6293 H         1 <0>         0.0656
@<TRIPOS>BOND
     1    1    2 1
     2    1   24 1
     3    1   25 1
     4    1   26 1
     5    2    6 1
     6    2    3 1
     7    2   23 1
     8    3    4 1
     9    3   27 1
    10    3   28 1
    11    4    5 1
    12    5   10 ar
    13    5    6 ar
    14    6    7 ar
    15    7    8 ar
    16    7   29 1
    17    8    9 ar
    18    8   15 1
    19    9   10 ar
    20    9   30 1
    21   10   11 1
    22   11   12 1
    23   11   13 1
    24   11   14 1
    25   12   31 1
    26   12   32 1
    27   12   33 1
    28   13   34 1
    29   13   35 1
    30   13   36 1
    31   14   37 1
    32   14   38 1
    33   14   39 1
    34   15   16 2
    35   15   17 1
    36   17   22 ar
    37   17   18 ar
    38   18   19 ar
    39   18   40 1
    40   19   20 ar
    41   19   41 1
    42   20   21 ar
    43   20   42 1
    44   21   22 ar
    45   21   43 1
    46   22   44 1
    47   23   45 1
    48   23   46 1
    49   23   47 1
@<TRIPOS>MOLECULE
CHEMBL229955
   42    44     0     0     0
SMALL
USER_CHARGES

@<TRIPOS>ATOM
      1 C1         -0.0173    1.4248    0.0099 C.3       1 <0>         0.0263
      2 O1          0.0021   -0.0041    0.0020 O.3       1 <0>        -0.3169
      3 C2         -1.2000   -0.6373    0.0101 C.ar      1 <0>         0.1334
      4 C3         -2.3733    0.1064    0.0195 C.ar      1 <0>        -0.2128
      5 C4         -3.5958   -0.5311    0.0359 C.ar      1 <0>        -0.0614
      6 C5         -3.6502   -1.9247    0.0494 C.ar      1 <0>        -0.0932
      7 C6         -2.4671   -2.6703    0.0194 C.ar      1 <0>        -0.0338
      8 C7         -1.2504   -2.0257    0.0031 C.ar      1 <0>        -0.1503
      9 C8         -2.5368   -4.1741   -0.0248 C.3       1 <0>        -0.0791
     10 C9         -3.7267   -4.6677    0.7948 C.3       1 <0>        -0.0772
     11 C10        -4.9804   -3.9311    0.4098 C.2       1 <0>        -0.0763
     12 C11        -4.9412   -2.6330    0.0737 C.2       1 <0>        -0.0974
     13 C12        -6.2693   -4.6451    0.4016 C.ar      1 <0>        -0.0473
     14 C13        -6.8084   -5.1315    1.5959 C.ar      1 <0>        -0.1010
     15 C14        -8.0149   -5.7990    1.5859 C.ar      1 <0>        -0.1714
     16 C15        -8.6963   -5.9896    0.3925 C.ar      1 <0>         0.1005
     17 C16        -8.1651   -5.5077   -0.8018 C.ar      1 <0>         0.1006
     18 C17        -6.9587   -4.8328   -0.7995 C.ar      1 <0>        -0.1595
     19 O2         -8.8359   -5.6970   -1.9696 O.3       1 <0>        -0.3062
     20 C18        -8.2329   -5.1765   -3.1559 C.3       1 <0>         0.0255
     21 O3         -9.8852   -6.6489    0.3885 O.3       1 <0>        -0.3064
     22 C19       -10.3718   -7.1168    1.6480 C.3       1 <0>         0.0255
     23 H1          1.0053    1.8021    0.0021 H         1 <0>         0.1015
     24 H2         -0.5445    1.7859   -0.8732 H         1 <0>         0.0565
     25 H3         -0.5275    1.7763    0.9067 H         1 <0>         0.0565
     26 H4         -2.3279    1.1854    0.0143 H         1 <0>         0.1298
     27 H5         -4.5082    0.0468    0.0380 H         1 <0>         0.1279
     28 H6         -0.3354   -2.5992   -0.0113 H         1 <0>         0.1327
     29 H7         -2.6495   -4.5005   -1.0586 H         1 <0>         0.0824
     30 H8         -1.6171   -4.5909    0.3858 H         1 <0>         0.0839
     31 H9         -3.8677   -5.7338    0.6167 H         1 <0>         0.0801
     32 H10        -3.5256   -4.5050    1.8536 H         1 <0>         0.0790
     33 H11        -5.8520   -2.1099   -0.1778 H         1 <0>         0.1213
     34 H12        -6.2800   -4.9848    2.5263 H         1 <0>         0.1289
     35 H13        -8.4304   -6.1747    2.5093 H         1 <0>         0.1372
     36 H14        -6.5481   -4.4549   -1.7242 H         1 <0>         0.1368
     37 H15        -8.8695   -5.3955   -4.0132 H         1 <0>         0.1016
     38 H16        -8.1125   -4.0975   -3.0590 H         1 <0>         0.0548
     39 H17        -7.2568   -5.6394   -3.3006 H         1 <0>         0.0553
     40 H18       -11.3259   -7.6236    1.5033 H         1 <0>         0.1013
     41 H19        -9.6525   -7.8128    2.0795 H         1 <0>         0.0555
     42 H20       -10.5082   -6.2710    2.3218 H         1 <0>         0.0554
@<TRIPOS>BOND
     1    1    2 1
     2    1   23 1
     3    1   24 1
     4    1   25 1
     5    2    3 1
     6    3    8 ar
     7    3    4 ar
     8    4    5 ar
     9    4   26 1
    10    5    6 ar
    11    5   27 1
    12    6   12 1
    13    6    7 ar
    14    7    8 ar
    15    7    9 1
    16    8   28 1
    17    9   10 1
    18    9   29 1
    19    9   30 1
    20   10   11 1
    21   10   31 1
    22   10   32 1
    23   11   12 2
    24   11   13 1
    25   12   33 1
    26   13   18 ar
    27   13   14 ar
    28   14   15 ar
    29   14   34 1
    30   15   16 ar
    31   15   35 1
    32   16   17 ar
    33   16   21 1
    34   17   18 ar
    35   17   19 1
    36   18   36 1
    37   19   20 1
    38   20   37 1
    39   20   38 1
    40   20   39 1
    41   21   22 1
    42   22   40 1
    43   22   41 1
    44   22   42 1
@<TRIPOS>MOLECULE
CHEMBL64396
   42    46     0     0     0
SMALL
USER_CHARGES

@<TRIPOS>ATOM
      1 C1          0.0108    1.3940   -0.0056 C.ar      1 <0>        -0.1263
      2 C2          1.1939    2.1193   -0.0237 C.ar      1 <0>        -0.0706
      3 C3          2.3949    1.4470   -0.0427 C.ar      1 <0>        -0.0952
      4 C4          2.3991    0.0683   -0.0435 C.ar      1 <0>         0.1218
      5 C5          1.2284   -0.6603   -0.0266 C.ar      1 <0>        -0.1092
      6 C6          0.0250    0.0071   -0.0072 C.ar      1 <0>        -0.0396
      7 C7          1.6686   -2.1028   -0.0350 C.3       1 <0>        -0.0914
      8 C8          3.1840   -2.0308   -0.0571 C.2       1 <0>         0.5401
      9 O1          3.9456   -2.9747   -0.0706 O.2       1 <0>        -0.4684
     10 N1          3.5329   -0.7209   -0.0597 N.am      1 <0>        -0.4868
     11 C9          4.8076   -0.1233   -0.0758 C.ar      1 <0>         0.1385
     12 C10         5.9356   -0.9360   -0.0867 C.ar      1 <0>        -0.1091
     13 C11         7.1944   -0.3698   -0.1031 C.ar      1 <0>        -0.1278
     14 C12         7.3380    1.0078   -0.1083 C.ar      1 <0>         0.0948
     15 C13         6.2164    1.8205   -0.0966 C.ar      1 <0>        -0.1241
     16 C14         4.9574    1.2564   -0.0793 C.ar      1 <0>        -0.0679
     17 C15         3.7325    2.1495   -0.0628 C.3       1 <0>        -0.0427
     18 F1          8.5715    1.5586   -0.1244 F         1 <0>        -0.1327
     19 C16         1.1561   -2.8032   -1.2670 C.2       1 <0>         0.5398
     20 O2          0.4893   -2.1950   -2.0772 O.2       1 <0>        -0.4858
     21 N2          1.4388   -4.1055   -1.4685 N.am      1 <0>        -0.6617
     22 C17         0.8862   -4.7806   -2.5639 C.ar      1 <0>         0.1433
     23 C18         0.6866   -4.1125   -3.7639 C.ar      1 <0>        -0.1335
     24 C19         0.1408   -4.7822   -4.8444 C.ar      1 <0>         0.1139
     25 C20        -0.2061   -6.1181   -4.7294 C.ar      1 <0>        -0.1365
     26 C21        -0.0088   -6.7860   -3.5351 C.ar      1 <0>        -0.1027
     27 C22         0.5417   -6.1232   -2.4532 C.ar      1 <0>         0.0673
     28 F2          0.7394   -6.7781   -1.2883 F         1 <0>        -0.1297
     29 F3         -0.0542   -4.1325   -6.0127 F         1 <0>        -0.1282
     30 H1         -0.9341    1.9168    0.0145 H         1 <0>         0.1374
     31 H2          1.1725    3.1991   -0.0231 H         1 <0>         0.1403
     32 H3         -0.9027   -0.5457    0.0072 H         1 <0>         0.1361
     33 H4          1.3242   -2.6118    0.8652 H         1 <0>         0.1634
     34 H5          5.8270   -2.0105   -0.0821 H         1 <0>         0.1550
     35 H6          8.0696   -1.0026   -0.1114 H         1 <0>         0.1462
     36 H7          6.3273    2.8948   -0.1003 H         1 <0>         0.1491
     37 H8          3.7668    2.7887   -0.9450 H         1 <0>         0.0963
     38 H9          3.7921    2.7909    0.8165 H         1 <0>         0.0967
     39 H10         2.0250   -4.5752   -0.8548 H         1 <0>         0.4244
     40 H11         0.9566   -3.0707   -3.8540 H         1 <0>         0.1608
     41 H12        -0.6320   -6.6389   -5.5742 H         1 <0>         0.1505
     42 H13        -0.2809   -7.8275   -3.4482 H         1 <0>         0.1540
@<TRIPOS>BOND
     1    1    6 ar
     2    1    2 ar
     3    1   30 1
     4    2    3 ar
     5    2   31 1
     6    3   17 1
     7    3    4 ar
     8    4   10 1
     9    4    5 ar
    10    5    6 ar
    11    5    7 1
    12    6   32 1
    13    7    8 1
    14    7   19 1
    15    7   33 1
    16    8    9 2
    17    8   10 am
    18   10   11 1
    19   11   16 ar
    20   11   12 ar
    21   12   13 ar
    22   12   34 1
    23   13   14 ar
    24   13   35 1
    25   14   15 ar
    26   14   18 1
    27   15   16 ar
    28   15   36 1
    29   16   17 1
    30   17   37 1
    31   17   38 1
    32   19   20 2
    33   19   21 am
    34   21   22 1
    35   21   39 1
    36   22   27 ar
    37   22   23 ar
    38   23   24 ar
    39   23   40 1
    40   24   25 ar
    41   24   29 1
    42   25   26 ar
    43   25   41 1
    44   26   27 ar
    45   26   42 1
    46   27   28 1
@<TRIPOS>MOLECULE
CHEMBL64396__1
   41    45     0     0     0
SMALL
USER_CHARGES

@<TRIPOS>ATOM
      1 C1          0.0261    1.3803    0.0036 C.ar      1 <0>        -0.1232
      2 C2          1.2081    2.1168   -0.0036 C.ar      1 <0>        -0.1452
      3 C3          2.4120    1.4550   -0.0179 C.ar      1 <0>        -0.0841
      4 C4          2.4179    0.0797   -0.0254 C.ar      1 <0>         0.0506
      5 C5          1.2505   -0.6776   -0.0168 C.ar      1 <0>         0.0173
      6 C6          0.0337   -0.0013   -0.0025 C.ar      1 <0>        -0.1259
      7 C7          1.7170   -2.0743   -0.0262 C.2       1 <0>        -0.4464
      8 C8          3.1075   -2.0275   -0.0406 C.2       1 <0>         0.4838
      9 O1          3.9220   -3.1062   -0.0509 O.3       1 <0>        -0.6731
     10 N1          3.5260   -0.7254   -0.0427 N.pl3     1 <0>        -0.4576
     11 C9          4.8064   -0.1442   -0.0589 C.ar      1 <0>         0.1764
     12 C10         5.9263   -0.9671   -0.0850 C.ar      1 <0>        -0.1160
     13 C11         7.1907   -0.4137   -0.1009 C.ar      1 <0>        -0.1296
     14 C12         7.3481    0.9623   -0.0902 C.ar      1 <0>         0.0613
     15 C13         6.2348    1.7858   -0.0647 C.ar      1 <0>        -0.1254
     16 C14         4.9697    1.2354   -0.0507 C.ar      1 <0>        -0.0929
     17 C15         3.7560    2.1460   -0.0271 C.3       1 <0>        -0.0288
     18 F1          8.5870    1.5009   -0.1041 F         1 <0>        -0.1461
     19 C16         0.8825   -3.2751   -0.0209 C.2       1 <0>         0.6490
     20 O2          0.5236   -3.7718   -1.0732 O.2       1 <0>        -0.5332
     21 N2          0.5105   -3.8321    1.1487 N.am      1 <0>        -0.6687
     22 C17        -0.3640   -4.9251    1.1565 C.ar      1 <0>         0.1664
     23 C18        -0.3072   -5.8685    0.1400 C.ar      1 <0>        -0.1380
     24 C19        -1.1729   -6.9476    0.1505 C.ar      1 <0>         0.1102
     25 C20        -2.0957   -7.0867    1.1738 C.ar      1 <0>        -0.1563
     26 C21        -2.1548   -6.1482    2.1875 C.ar      1 <0>        -0.1064
     27 C22        -1.2876   -5.0710    2.1859 C.ar      1 <0>         0.0499
     28 F2         -1.3420   -4.1577    3.1799 F         1 <0>        -0.1342
     29 F3         -1.1184   -7.8663   -0.8385 F         1 <0>        -0.1351
     30 H1         -0.9195    1.9019    0.0188 H         1 <0>         0.1112
     31 H2          1.1787    3.1964    0.0016 H         1 <0>         0.1166
     32 H3         -0.8956   -0.5516    0.0042 H         1 <0>         0.1111
     33 H4          5.8070   -2.0405   -0.0923 H         1 <0>         0.1621
     34 H5          8.0594   -1.0552   -0.1215 H         1 <0>         0.1357
     35 H6          6.3570    2.8588   -0.0554 H         1 <0>         0.1374
     36 H7          3.7994    2.7941   -0.9024 H         1 <0>         0.0803
     37 H8          3.8207    2.7762    0.8600 H         1 <0>         0.0804
     38 H9          0.8488   -3.4756    1.9849 H         1 <0>         0.4155
     39 H10         0.4117   -5.7601   -0.6586 H         1 <0>         0.1639
     40 H11        -2.7708   -7.9297    1.1798 H         1 <0>         0.1419
     41 H12        -2.8758   -6.2592    2.9839 H         1 <0>         0.1454
@<TRIPOS>BOND
     1    1    6 ar
     2    1    2 ar
     3    1   30 1
     4    2    3 ar
     5    2   31 1
     6    3   17 1
     7    3    4 ar
     8    4   10 1
     9    4    5 ar
    10    5    6 ar
    11    5    7 1
    12    6   32 1
    13    7    8 2
    14    7   19 1
    15    8    9 1
    16    8   10 1
    17   10   11 1
    18   11   16 ar
    19   11   12 ar
    20   12   13 ar
    21   12   33 1
    22   13   14 ar
    23   13   34 1
    24   14   15 ar
    25   14   18 1
    26   15   16 ar
    27   15   35 1
    28   16   17 1
    29   17   36 1
    30   17   37 1
    31   19   20 2
    32   19   21 am
    33   21   22 1
    34   21   38 1
    35   22   27 ar
    36   22   23 ar
    37   23   24 ar
    38   23   39 1
    39   24   25 ar
    40   24   29 1
    41   25   26 ar
    42   25   40 1
    43   26   27 ar
    44   26   41 1
    45   27   28 1
@<TRIPOS>MOLECULE
CHEMBL64396__2
   42    46     0     0     0
SMALL
USER_CHARGES

@<TRIPOS>ATOM
      1 C1         -0.0480    1.3714   -0.0012 C.ar      1 <0>        -0.1269
      2 C2          1.1298    2.1056   -0.0186 C.ar      1 <0>        -0.0706
      3 C3          2.3358    1.4421   -0.0380 C.ar      1 <0>        -0.0956
      4 C4          2.3501    0.0636   -0.0399 C.ar      1 <0>         0.1226
      5 C5          1.1849   -0.6737   -0.0238 C.ar      1 <0>        -0.1097
      6 C6         -0.0235   -0.0152   -0.0039 C.ar      1 <0>        -0.0399
      7 C7          1.6358   -2.1130   -0.0332 C.3       1 <0>        -0.0912
      8 C8          3.1506   -2.0297   -0.0551 C.2       1 <0>         0.5397
      9 O1          3.9192   -2.9679   -0.0693 O.2       1 <0>        -0.4651
     10 N1          3.4898   -0.7173   -0.0566 N.am      1 <0>        -0.4875
     11 C9          4.7600   -0.1102   -0.0721 C.ar      1 <0>         0.1390
     12 C10         5.8940   -0.9145   -0.0835 C.ar      1 <0>        -0.1091
     13 C11         7.1486   -0.3390   -0.0992 C.ar      1 <0>        -0.1276
     14 C12         7.2819    1.0396   -0.1034 C.ar      1 <0>         0.0944
     15 C13         6.1543    1.8440   -0.0912 C.ar      1 <0>        -0.1242
     16 C14         4.8996    1.2706   -0.0744 C.ar      1 <0>        -0.0684
     17 C15         3.6681    2.1546   -0.0574 C.3       1 <0>        -0.0425
     18 F1          8.5113    1.5996   -0.1188 F         1 <0>        -0.1328
     19 C16         1.1646   -2.8212    1.2108 C.2       1 <0>         0.5396
     20 O2          0.5172   -2.2206    2.0422 O.2       1 <0>        -0.4860
     21 N2          1.4627   -4.1220    1.3995 N.am      1 <0>        -0.6607
     22 C17         1.1063   -4.7555    2.5964 C.ar      1 <0>         0.1415
     23 C18        -0.0687   -4.4038    3.2462 C.ar      1 <0>        -0.1331
     24 C19        -0.4183   -5.0318    4.4283 C.ar      1 <0>         0.1126
     25 C20         0.4029   -6.0104    4.9632 C.ar      1 <0>        -0.1364
     26 C21         1.5741   -6.3623    4.3183 C.ar      1 <0>        -0.1038
     27 C22         1.9259   -5.7421    3.1333 C.ar      1 <0>         0.0679
     28 F2          3.0677   -6.0905    2.5008 F         1 <0>        -0.1278
     29 F3         -1.5615   -4.6898    5.0617 F         1 <0>        -0.1283
     30 H1         -0.9966    1.8872    0.0191 H         1 <0>         0.1373
     31 H2          1.1004    3.1852   -0.0172 H         1 <0>         0.1402
     32 H3         -0.9470   -0.5749    0.0099 H         1 <0>         0.1361
     33 H4          1.2689   -2.6216   -0.9247 H         1 <0>         0.1629
     34 H5          5.7934   -1.9898   -0.0797 H         1 <0>         0.1551
     35 H6          8.0284   -0.9652   -0.1080 H         1 <0>         0.1462
     36 H7          6.2573    2.9191   -0.0940 H         1 <0>         0.1490
     37 H8          3.6977    2.7947   -0.9391 H         1 <0>         0.0966
     38 H9          3.7228    2.7957    0.8225 H         1 <0>         0.0961
     39 H10         1.9240   -4.6193    0.7062 H         1 <0>         0.4238
     40 H11        -0.7091   -3.6405    2.8296 H         1 <0>         0.1628
     41 H12         0.1280   -6.4993    5.8861 H         1 <0>         0.1503
     42 H13         2.2128   -7.1253    4.7382 H         1 <0>         0.1536
@<TRIPOS>BOND
     1    1    6 ar
     2    1    2 ar
     3    1   30 1
     4    2    3 ar
     5    2   31 1
     6    3   17 1
     7    3    4 ar
     8    4   10 1
     9    4    5 ar
    10    5    6 ar
    11    5    7 1
    12    6   32 1
    13    7    8 1
    14    7   19 1
    15    7   33 1
    16    8    9 2
    17    8   10 am
    18   10   11 1
    19   11   16 ar
    20   11   12 ar
    21   12   13 ar
    22   12   34 1
    23   13   14 ar
    24   13   35 1
    25   14   15 ar
    26   14   18 1
    27   15   16 ar
    28   15   36 1
    29   16   17 1
    30   17   37 1
    31   17   38 1
    32   19   20 2
    33   19   21 am
    34   21   22 1
    35   21   39 1
    36   22   27 ar
    37   22   23 ar
    38   23   24 ar
    39   23   40 1
    40   24   25 ar
    41   24   29 1
    42   25   26 ar
    43   25   41 1
    44   26   27 ar
    45   26   42 1
    46   27   28 1
@<TRIPOS>MOLECULE
CHEMBL286490
   37    39     0     0     0
SMALL
USER_CHARGES

@<TRIPOS>ATOM
      1 C1         -0.0225    1.8097    0.0120 C.3       1 <0>        -0.6501
      2 S1          0.0021   -0.0041    0.0020 S.o2      1 <0>         2.4980
      3 O1          0.8352   -0.4880    1.0465 O.2       1 <0>        -0.9337
      4 O2         -1.3147   -0.5105   -0.1678 O.2       1 <0>        -0.9346
      5 C2          0.8454   -0.4373   -1.4831 C.ar      1 <0>        -0.6529
      6 C3          0.1296   -0.6119   -2.6552 C.ar      1 <0>        -0.0200
      7 C4          0.7812   -0.9509   -3.8215 C.ar      1 <0>        -0.1164
      8 C5          2.1716   -1.1186   -3.8185 C.ar      1 <0>        -0.0043
      9 C6          2.8878   -0.9400   -2.6284 C.ar      1 <0>        -0.1209
     10 C7          2.2207   -0.5956   -1.4724 C.ar      1 <0>        -0.0172
     11 C8          2.8740   -1.4800   -5.0555 C.2       1 <0>         0.0101
     12 C9          3.7771   -0.6950   -5.6946 C.2       1 <0>        -0.1658
     13 C10         4.2971   -1.3382   -6.8964 C.2       1 <0>         0.3978
     14 O3          5.1160   -0.8709   -7.6607 O.2       1 <0>        -0.4310
     15 C11         3.6339   -2.6920   -7.0189 C.3       1 <0>        -0.1757
     16 C12         2.7022   -2.7810   -5.7987 C.3       1 <0>        -0.0966
     17 C13         4.1853    0.6515   -5.2291 C.ar      1 <0>        -0.0720
     18 C14         3.8861    1.7869   -5.9888 C.ar      1 <0>        -0.0451
     19 C15         4.2896    3.0222   -5.5098 C.ar      1 <0>        -0.0858
     20 C16         4.9696    3.0922   -4.3058 C.ar      1 <0>         0.1168
     21 N1          5.2376    2.0030   -3.6119 N.ar      1 <0>        -0.4612
     22 C17         4.8687    0.8075   -4.0239 C.ar      1 <0>         0.1153
     23 Cl1         3.9470    4.4668   -6.4095 Cl        1 <0>        -0.0458
     24 H1          1.0001    2.1870    0.0043 H         1 <0>         0.1324
     25 H2         -0.5497    2.1708   -0.8711 H         1 <0>         0.1317
     26 H3         -0.5327    2.1613    0.9088 H         1 <0>         0.1355
     27 H4         -0.9427   -0.4826   -2.6555 H         1 <0>         0.1484
     28 H5          0.2212   -1.0871   -4.7348 H         1 <0>         0.1390
     29 H6          3.9602   -1.0678   -2.6173 H         1 <0>         0.1380
     30 H7          2.7720   -0.4532   -0.5547 H         1 <0>         0.1493
     31 H8          3.0610   -2.7521   -7.9443 H         1 <0>         0.1152
     32 H9          4.3802   -3.4856   -6.9809 H         1 <0>         0.1149
     33 H10         2.9903   -3.6182   -5.1629 H         1 <0>         0.1054
     34 H11         1.6684   -2.8941   -6.1251 H         1 <0>         0.1036
     35 H12         3.3545    1.7026   -6.9251 H         1 <0>         0.1455
     36 H13         5.2859    4.0537   -3.9290 H         1 <0>         0.1691
     37 H14         5.1022   -0.0604   -3.4251 H         1 <0>         0.1630
@<TRIPOS>BOND
     1    1    2 1
     2    1   24 1
     3    1   25 1
     4    1   26 1
     5    2    3 2
     6    2    4 2
     7    2    5 1
     8    5   10 ar
     9    5    6 ar
    10    6    7 ar
    11    6   27 1
    12    7    8 ar
    13    7   28 1
    14    8    9 ar
    15    8   11 1
    16    9   10 ar
    17    9   29 1
    18   10   30 1
    19   11   16 1
    20   11   12 2
    21   12   13 1
    22   12   17 1
    23   13   14 2
    24   13   15 1
    25   15   16 1
    26   15   31 1
    27   15   32 1
    28   16   33 1
    29   16   34 1
    30   17   22 ar
    31   17   18 ar
    32   18   19 ar
    33   18   35 1
    34   19   20 ar
    35   19   23 1
    36   20   21 ar
    37   20   36 1
    38   21   22 ar
    39   22   37 1
@<TRIPOS>MOLECULE
CHEMBL70478
   38    40     0     0     0
SMALL
USER_CHARGES

@<TRIPOS>ATOM
      1 C1         -3.1783   -0.2383    2.1790 C.3       1 <0>         0.0231
      2 O1         -3.0573   -0.9524    3.4108 O.3       1 <0>        -0.3106
      3 C2         -1.8130   -1.3747    3.7599 C.ar      1 <0>         0.1498
      4 C3         -0.7314   -1.1014    2.9353 C.ar      1 <0>        -0.1986
      5 C4          0.5327   -1.5300    3.2893 C.ar      1 <0>        -0.0608
      6 C5          0.7210   -2.2345    4.4707 C.ar      1 <0>         0.0879
      7 C6         -0.3619   -2.5077    5.2955 C.ar      1 <0>        -0.0551
      8 C7         -1.6245   -2.0737    4.9433 C.ar      1 <0>        -0.1398
      9 N1          2.0045   -2.6705    4.8305 N.am      1 <0>        -0.4917
     10 C8          2.6013   -3.8796    4.4664 C.2       1 <0>         0.0335
     11 C9          3.8243   -3.9006    5.0165 C.2       1 <0>        -0.0099
     12 O2          4.0004   -2.7499    5.7045 O.3       1 <0>        -0.2287
     13 C10         2.8949   -1.9980    5.5877 C.2       1 <0>         0.6173
     14 O3          2.7243   -0.8996    6.0823 O.2       1 <0>        -0.4806
     15 C11         1.9969   -4.9399    3.6296 C.ar      1 <0>         0.0329
     16 C12         1.3781   -4.6123    2.4230 C.ar      1 <0>        -0.1164
     17 C13         0.8163   -5.6055    1.6473 C.ar      1 <0>        -0.0165
     18 C14         0.8655   -6.9238    2.0641 C.ar      1 <0>        -0.6693
     19 C15         1.4778   -7.2551    3.2596 C.ar      1 <0>        -0.0113
     20 C16         2.0486   -6.2718    4.0413 C.ar      1 <0>        -0.1155
     21 S1          0.1448   -8.1862    1.0682 S.o2      1 <0>         2.7007
     22 O4         -0.1570   -9.2677    1.9391 O.2       1 <0>        -0.9586
     23 O5         -0.8440   -7.5555    0.2658 O.2       1 <0>        -0.9571
     24 N2          1.3205   -8.7251    0.0341 N.pl3     1 <0>        -1.2470
     25 H1         -2.8428   -0.8714    1.3576 H         1 <0>         0.0597
     26 H2         -4.2204    0.0398    2.0210 H         1 <0>         0.1055
     27 H3         -2.5642    0.6613    2.2186 H         1 <0>         0.0593
     28 H4         -0.8780   -0.5536    2.0162 H         1 <0>         0.1409
     29 H5          1.3746   -1.3175    2.6471 H         1 <0>         0.1323
     30 H6         -0.2160   -3.0558    6.2146 H         1 <0>         0.1363
     31 H7         -2.4663   -2.2823    5.5870 H         1 <0>         0.1440
     32 H8          4.5449   -4.6999    4.9259 H         1 <0>         0.2255
     33 H9          1.3384   -3.5835    2.0969 H         1 <0>         0.1347
     34 H10         0.3369   -5.3533    0.7129 H         1 <0>         0.1483
     35 H11         1.5126   -8.2860    3.5797 H         1 <0>         0.1510
     36 H12         2.5306   -6.5322    4.9721 H         1 <0>         0.1433
     37 H13         1.3093   -9.6440   -0.2764 H         1 <0>         0.4234
     38 H14         2.0204   -8.1219   -0.2612 H         1 <0>         0.4176
@<TRIPOS>BOND
     1    1    2 1
     2    1   25 1
     3    1   26 1
     4    1   27 1
     5    2    3 1
     6    3    8 ar
     7    3    4 ar
     8    4    5 ar
     9    4   28 1
    10    5    6 ar
    11    5   29 1
    12    6    7 ar
    13    6    9 1
    14    7    8 ar
    15    7   30 1
    16    8   31 1
    17    9   13 am
    18    9   10 1
    19   10   11 2
    20   10   15 1
    21   11   12 1
    22   11   32 1
    23   12   13 1
    24   13   14 2
    25   15   20 ar
    26   15   16 ar
    27   16   17 ar
    28   16   33 1
    29   17   18 ar
    30   17   34 1
    31   18   19 ar
    32   18   21 1
    33   19   20 ar
    34   19   35 1
    35   20   36 1
    36   21   22 2
    37   21   23 2
    38   21   24 1
    39   24   37 1
    40   24   38 1
@<TRIPOS>MOLECULE
CHEMBL171335
   45    48     0     0     0
SMALL
USER_CHARGES

@<TRIPOS>ATOM
      1 C1         -0.0169    1.3933    0.0097 C.ar      1 <0>        -0.0740
      2 C2          1.1693    2.0960    0.0022 C.ar      1 <0>        -0.1516
      3 C3          2.3789    1.4193   -0.0130 C.ar      1 <0>         0.1013
      4 C4          2.4043    0.0334   -0.0207 C.ar      1 <0>        -0.1510
      5 C5          1.2248   -0.6805   -0.0137 C.ar      1 <0>        -0.0755
      6 C6          0.0021   -0.0041    0.0020 C.ar      1 <0>        -0.0506
      7 C7         -1.2623   -0.7612    0.0105 C.2       1 <0>        -0.0678
      8 C8         -2.1639   -0.7530   -0.9819 C.2       1 <0>        -0.1000
      9 C9         -3.3408   -1.6420   -0.6387 C.3       1 <0>        -0.0590
     10 C10        -2.8472   -2.5015    0.5304 C.3       1 <0>        -0.0830
     11 C11        -1.7207   -1.6616    1.1384 C.3       1 <0>        -0.0730
     12 C12        -3.9127   -3.0099    1.4942 C.3       1 <0>        -0.1267
     13 C13        -3.9413   -4.2935    0.6431 C.3       1 <0>        -0.1420
     14 C14        -2.5043   -3.9510    0.2071 C.3       1 <0>        -0.1269
     15 C15        -2.0288    0.0150   -2.2326 C.ar      1 <0>         0.0318
     16 C16        -2.9177    1.0549   -2.5174 C.ar      1 <0>        -0.1306
     17 C17        -2.7850    1.7692   -3.6897 C.ar      1 <0>        -0.0153
     18 C18        -1.7748    1.4583   -4.5828 C.ar      1 <0>        -0.6773
     19 C19        -0.8911    0.4296   -4.3077 C.ar      1 <0>        -0.0146
     20 C20        -1.0076   -0.2894   -3.1365 C.ar      1 <0>        -0.1237
     21 S1         -1.6132    2.3765   -6.0780 S.o2      1 <0>         2.6999
     22 O1         -0.9281    1.5375   -6.9977 O.2       1 <0>        -0.9627
     23 O2         -2.8932    2.9271   -6.3568 O.2       1 <0>        -0.9628
     24 N1         -0.6073    3.6534   -5.7621 N.pl3     1 <0>        -1.2499
     25 F1          3.5380    2.1133   -0.0208 F         1 <0>        -0.1380
     26 H1         -0.9587    1.9216    0.0260 H         1 <0>         0.1313
     27 H2          1.1560    3.1759    0.0077 H         1 <0>         0.1374
     28 H3          3.3499   -0.4882   -0.0325 H         1 <0>         0.1383
     29 H4          1.2459   -1.7603   -0.0205 H         1 <0>         0.1344
     30 H5         -4.1961   -1.0393   -0.3329 H         1 <0>         0.0851
     31 H6         -3.6027   -2.2713   -1.4892 H         1 <0>         0.0785
     32 H7         -0.9034   -2.3022    1.4697 H         1 <0>         0.0789
     33 H8         -2.0997   -1.0669    1.9695 H         1 <0>         0.0846
     34 H9         -3.5467   -3.1656    2.5091 H         1 <0>         0.0850
     35 H10        -4.8418   -2.4409    1.4597 H         1 <0>         0.0708
     36 H11        -4.0116   -5.2067    1.2339 H         1 <0>         0.0688
     37 H12        -4.6640   -4.2598   -0.1722 H         1 <0>         0.0803
     38 H13        -2.3133   -4.1302   -0.8510 H         1 <0>         0.0695
     39 H14        -1.7373   -4.3746    0.8555 H         1 <0>         0.0840
     40 H15        -3.7068    1.2984   -1.8214 H         1 <0>         0.1354
     41 H16        -3.4715    2.5730   -3.9113 H         1 <0>         0.1449
     42 H17        -0.1053    0.1923   -5.0096 H         1 <0>         0.1441
     43 H18        -0.3141   -1.0887   -2.9207 H         1 <0>         0.1331
     44 H19        -0.2353    3.7697   -4.8738 H         1 <0>         0.4167
     45 H20        -0.3900    4.2852   -6.4654 H         1 <0>         0.4216
@<TRIPOS>BOND
     1    1    6 ar
     2    1    2 ar
     3    1   26 1
     4    2    3 ar
     5    2   27 1
     6    3    4 ar
     7    3   25 1
     8    4    5 ar
     9    4   28 1
    10    5    6 ar
    11    5   29 1
    12    6    7 1
    13    7   11 1
    14    7    8 2
    15    8    9 1
    16    8   15 1
    17    9   10 1
    18    9   30 1
    19    9   31 1
    20   10   14 1
    21   10   11 1
    22   10   12 1
    23   11   32 1
    24   11   33 1
    25   12   13 1
    26   12   34 1
    27   12   35 1
    28   13   14 1
    29   13   36 1
    30   13   37 1
    31   14   38 1
    32   14   39 1
    33   15   20 ar
    34   15   16 ar
    35   16   17 ar
    36   16   40 1
    37   17   18 ar
    38   17   41 1
    39   18   19 ar
    40   18   21 1
    41   19   20 ar
    42   19   42 1
    43   20   43 1
    44   21   22 2
    45   21   23 2
    46   21   24 1
    47   24   44 1
    48   24   45 1
@<TRIPOS>MOLECULE
CHEMBL208073
   71    75     0     0     0
SMALL
USER_CHARGES

@<TRIPOS>ATOM
      1 C1         -3.5177   -4.2657    3.7307 C.ar      1 <0>        -0.1050
      2 C2         -3.4426   -3.3410    2.7059 C.ar      1 <0>        -0.1250
      3 C3         -2.3467   -3.3303    1.8635 C.ar      1 <0>        -0.0905
      4 C4         -1.3255   -4.2440    2.0463 C.ar      1 <0>        -0.1267
      5 C5         -1.4002   -5.1681    3.0717 C.ar      1 <0>        -0.0915
      6 C6         -2.4969   -5.1797    3.9132 C.ar      1 <0>        -0.1259
      7 C7         -0.1312   -4.2331    1.1274 C.3       1 <0>         0.1666
      8 N1          0.8971   -3.3440    1.6736 N.am      1 <0>        -0.5585
      9 C8          0.9053   -2.0382    1.3402 C.2       1 <0>         0.7008
     10 O1          0.0598   -1.5983    0.5864 O.2       1 <0>        -0.5050
     11 N2          1.8511   -1.2202    1.8431 N.am      1 <0>        -0.5571
     12 C9          2.7889   -1.7081    2.6791 C.2       1 <0>         0.7004
     13 O2          3.6418   -0.9707    3.1322 O.2       1 <0>        -0.4958
     14 N3          2.7804   -3.0139    3.0129 N.am      1 <0>        -0.5575
     15 C10         1.8316   -3.8308    2.5140 C.2       1 <0>         0.6958
     16 O3          1.8212   -5.0071    2.8186 O.2       1 <0>        -0.4832
     17 C11         3.7995   -3.5441    3.9220 C.3       1 <0>         0.2424
     18 C12         3.2360   -3.6223    5.3176 C.ar      1 <0>        -0.1036
     19 C13         1.9142   -3.9782    5.5103 C.ar      1 <0>        -0.0990
     20 C14         1.3974   -4.0500    6.7904 C.ar      1 <0>        -0.1168
     21 C15         2.2024   -3.7663    7.8777 C.ar      1 <0>        -0.1087
     22 C16         3.5244   -3.4113    7.6850 C.ar      1 <0>        -0.1161
     23 C17         4.0424   -3.3437    6.4052 C.ar      1 <0>        -0.1001
     24 C18         4.2099   -4.9213    3.4681 C.ar      1 <0>        -0.0737
     25 C19         4.2340   -5.2261    2.1200 C.ar      1 <0>        -0.0931
     26 C20         4.6105   -6.4893    1.7036 C.ar      1 <0>        -0.1146
     27 C21         4.9634   -7.4476    2.6353 C.ar      1 <0>        -0.1145
     28 C22         4.9402   -7.1425    3.9834 C.ar      1 <0>        -0.1157
     29 C23         4.5678   -5.8780    4.3996 C.ar      1 <0>        -0.0932
     30 C24         1.8600    0.1992    1.4806 C.3       1 <0>         0.1581
     31 C25         1.0236    0.9745    2.4657 C.2       1 <0>        -0.1815
     32 C26         1.5416    1.9933    3.1058 C.2       1 <0>        -0.1049
     33 C27         0.7052    2.7686    4.0909 C.3       1 <0>         0.0867
     34 O4          1.4638    3.0034    5.2789 O.3       1 <0>        -0.3131
     35 C28         0.8522    3.6940    6.2737 C.ar      1 <0>         0.1131
     36 C29        -0.4572    4.1322    6.1098 C.ar      1 <0>        -0.2247
     37 C30        -1.0815    4.8335    7.1161 C.ar      1 <0>        -0.0479
     38 C31        -0.3967    5.1049    8.3055 C.ar      1 <0>        -0.1671
     39 C32         0.9205    4.6616    8.4661 C.ar      1 <0>        -0.0477
     40 C33         1.5349    3.9565    7.4564 C.ar      1 <0>        -0.1661
     41 C34        -1.0601    5.8552    9.3848 C.2       1 <0>         0.5218
     42 O5         -2.2118    6.2424    9.2422 O.co2     1 <0>        -0.6906
     43 O6         -0.4596    6.0916   10.4240 O.co2     1 <0>        -0.6894
     44 H1         -4.3719   -4.2711    4.3916 H         1 <0>         0.1235
     45 H2         -4.2404   -2.6272    2.5631 H         1 <0>         0.1247
     46 H3         -2.2883   -2.6084    1.0624 H         1 <0>         0.1296
     47 H4         -0.6026   -5.8822    3.2142 H         1 <0>         0.1291
     48 H5         -2.5554   -5.9019    4.7140 H         1 <0>         0.1235
     49 H6          0.2701   -5.2428    1.0410 H         1 <0>         0.1136
     50 H7         -0.4337   -3.8768    0.1426 H         1 <0>         0.1130
     51 H8          4.6684   -2.8860    3.9174 H         1 <0>         0.1336
     52 H9          1.2853   -4.1998    4.6608 H         1 <0>         0.1206
     53 H10         0.3645   -4.3273    6.9409 H         1 <0>         0.1216
     54 H11         1.7984   -3.8216    8.8778 H         1 <0>         0.1246
     55 H12         4.1533   -3.1894    8.5345 H         1 <0>         0.1274
     56 H13         5.0763   -3.0700    6.2548 H         1 <0>         0.1270
     57 H14         3.9583   -4.4774    1.3921 H         1 <0>         0.1035
     58 H15         4.6286   -6.7277    0.6504 H         1 <0>         0.1195
     59 H16         5.2569   -8.4347    2.3101 H         1 <0>         0.1203
     60 H17         5.2156   -7.8913    4.7113 H         1 <0>         0.1224
     61 H18         4.5533   -5.6385    5.4526 H         1 <0>         0.1255
     62 H19         2.8838    0.5728    1.5001 H         1 <0>         0.1113
     63 H20         1.4479    0.3210    0.4789 H         1 <0>         0.1156
     64 H21        -0.0030    0.6902    2.6438 H         1 <0>         0.1180
     65 H22         2.5682    2.2776    2.9276 H         1 <0>         0.1265
     66 H23         0.4157    3.7225    3.6501 H         1 <0>         0.0752
     67 H24        -0.1890    2.1962    4.3379 H         1 <0>         0.0655
     68 H25        -0.9851    3.9222    5.1913 H         1 <0>         0.1181
     69 H26        -2.0983    5.1741    6.9876 H         1 <0>         0.1286
     70 H27         1.4529    4.8689    9.3826 H         1 <0>         0.1338
     71 H28         2.5503    3.6104    7.5811 H         1 <0>         0.1225
@<TRIPOS>BOND
     1    1    6 ar
     2    1    2 ar
     3    1   44 1
     4    2    3 ar
     5    2   45 1
     6    3    4 ar
     7    3   46 1
     8    4    5 ar
     9    4    7 1
    10    5    6 ar
    11    5   47 1
    12    6   48 1
    13    7    8 1
    14    7   49 1
    15    7   50 1
    16    8   15 am
    17    8    9 am
    18    9   10 2
    19    9   11 am
    20   11   12 am
    21   11   30 1
    22   12   13 2
    23   12   14 am
    24   14   15 am
    25   14   17 1
    26   15   16 2
    27   17   18 1
    28   17   24 1
    29   17   51 1
    30   18   23 ar
    31   18   19 ar
    32   19   20 ar
    33   19   52 1
    34   20   21 ar
    35   20   53 1
    36   21   22 ar
    37   21   54 1
    38   22   23 ar
    39   22   55 1
    40   23   56 1
    41   24   29 ar
    42   24   25 ar
    43   25   26 ar
    44   25   57 1
    45   26   27 ar
    46   26   58 1
    47   27   28 ar
    48   27   59 1
    49   28   29 ar
    50   28   60 1
    51   29   61 1
    52   30   31 1
    53   30   62 1
    54   30   63 1
    55   31   32 2
    56   31   64 1
    57   32   33 1
    58   32   65 1
    59   33   34 1
    60   33   66 1
    61   33   67 1
    62   34   35 1
    63   35   40 ar
    64   35   36 ar
    65   36   37 ar
    66   36   68 1
    67   37   38 ar
    68   37   69 1
    69   38   39 ar
    70   38   41 1
    71   39   40 ar
    72   39   70 1
    73   40   71 1
    74   41   42 2
    75   41   43 1
@<TRIPOS>MOLECULE
CHEMBL281694
   40    43     0     0     0
SMALL
USER_CHARGES

@<TRIPOS>ATOM
      1 C1          0.8693    0.0788   -0.8226 C.ar      1 <0>        -0.1368
      2 C2          2.1136    0.6579   -0.6685 C.ar      1 <0>         0.0001
      3 C3          2.6054    0.9166    0.5978 C.ar      1 <0>        -0.6749
      4 C4          1.8536    0.5966    1.7134 C.ar      1 <0>         0.0021
      5 C5          0.6083    0.0178    1.5659 C.ar      1 <0>        -0.1253
      6 C6          0.1117   -0.2433    0.2957 C.ar      1 <0>         0.2032
      7 N1         -1.1510   -0.8303    0.1427 N.pl3     1 <0>        -0.3251
      8 C7         -1.4643   -1.8600   -0.6980 C.2       1 <0>         0.1425
      9 C8         -2.7954   -2.1250   -0.5368 C.2       1 <0>        -0.2090
     10 C9         -3.2954   -1.2396    0.4185 C.2       1 <0>         0.0088
     11 N2         -2.3181   -0.4709    0.8289 N.2       1 <0>        -0.2317
     12 C10        -4.7216   -1.1815    0.9019 C.3       1 <0>         0.3603
     13 F1         -5.0345    0.1301    1.2749 F         1 <0>        -0.1874
     14 F2         -5.5790   -1.5915   -0.1246 F         1 <0>        -0.1857
     15 C11        -0.5358   -2.5582   -1.6133 C.ar      1 <0>        -0.0393
     16 C12         0.8297   -2.5971   -1.3284 C.ar      1 <0>        -0.0928
     17 C13         1.6942   -3.2492   -2.1829 C.ar      1 <0>        -0.0953
     18 C14         1.2111   -3.8669   -3.3270 C.ar      1 <0>         0.0540
     19 C15        -0.1520   -3.8310   -3.6174 C.ar      1 <0>         0.0374
     20 C16        -1.0239   -3.1845   -2.7607 C.ar      1 <0>        -0.0664
     21 O1         -0.3668   -4.5046   -4.7854 O.3       1 <0>        -0.3032
     22 C17         0.9236   -4.6002   -5.4167 C.3       1 <0>         0.2120
     23 O2          1.8481   -4.5632   -4.3136 O.3       1 <0>        -0.3029
     24 S1          4.1936    1.6550    0.7902 S.o2      1 <0>         2.7031
     25 O3          4.6554    1.2936    2.0846 O.2       1 <0>        -0.9575
     26 O4          4.9258    1.3568   -0.3906 O.2       1 <0>        -0.9575
     27 N3          3.9718    3.2960    0.8079 N.pl3     1 <0>        -1.2489
     28 H1          0.4840   -0.1193   -1.8119 H         1 <0>         0.1450
     29 H2          2.7034    0.9086   -1.5378 H         1 <0>         0.1574
     30 H3          2.2407    0.7993    2.7011 H         1 <0>         0.1571
     31 H4          0.0217   -0.2322    2.4376 H         1 <0>         0.1476
     32 H5         -3.3601   -2.8846   -1.0570 H         1 <0>         0.1698
     33 H6         -4.8413   -1.8418    1.7608 H         1 <0>         0.1383
     34 H7          1.2096   -2.1170   -0.4388 H         1 <0>         0.1397
     35 H8          2.7506   -3.2785   -1.9605 H         1 <0>         0.1460
     36 H9         -2.0808   -3.1604   -2.9817 H         1 <0>         0.1466
     37 H10         1.0148   -5.5400   -5.9614 H         1 <0>         0.1374
     38 H11         1.0879   -3.7530   -6.0826 H         1 <0>         0.0900
     39 H12         3.0793    3.6657    0.7198 H         1 <0>         0.4178
     40 H13         4.7342    3.8874    0.9063 H         1 <0>         0.4233
@<TRIPOS>BOND
     1    1    6 ar
     2    1    2 ar
     3    1   28 1
     4    2    3 ar
     5    2   29 1
     6    3    4 ar
     7    3   24 1
     8    4    5 ar
     9    4   30 1
    10    5    6 ar
    11    5   31 1
    12    6    7 1
    13    7   11 1
    14    7    8 1
    15    8    9 2
    16    8   15 1
    17    9   10 1
    18    9   32 1
    19   10   11 2
    20   10   12 1
    21   12   13 1
    22   12   14 1
    23   12   33 1
    24   15   20 ar
    25   15   16 ar
    26   16   17 ar
    27   16   34 1
    28   17   18 ar
    29   17   35 1
    30   18   23 1
    31   18   19 ar
    32   19   20 ar
    33   19   21 1
    34   20   36 1
    35   21   22 1
    36   22   23 1
    37   22   37 1
    38   22   38 1
    39   24   25 2
    40   24   26 2
    41   24   27 1
    42   27   39 1
    43   27   40 1
@<TRIPOS>MOLECULE
CHEMBL119720
   48    50     0     0     0
SMALL
USER_CHARGES

@<TRIPOS>ATOM
      1 C1          0.0227    1.3181   -0.2200 C.3       1 <0>        -0.1364
      2 C2          0.0416   -0.2090   -0.1266 C.3       1 <0>        -0.0503
      3 C3         -1.3844   -0.7674    0.0926 C.3       1 <0>         0.0539
      4 O1         -1.4754   -0.8574    1.5243 O.3       1 <0>        -0.2916
      5 C4         -0.2316   -1.0367    2.0444 C.ar      1 <0>         0.1486
      6 C5          0.7532   -0.6665    1.1323 C.ar      1 <0>        -0.1739
      7 C6          2.0841   -0.7550    1.4560 C.ar      1 <0>        -0.0301
      8 C7          2.4643   -1.2301    2.7154 C.ar      1 <0>        -0.1767
      9 C8          1.4807   -1.6104    3.6323 C.ar      1 <0>        -0.0302
     10 C9          0.1502   -1.5141    3.2990 C.ar      1 <0>        -0.0999
     11 C10        -0.9028   -1.9271    4.2949 C.3       1 <0>        -0.0219
     12 C11        -0.2277   -2.4091    5.5805 C.3       1 <0>        -0.1482
     13 C12        -1.8041   -0.7314    4.6096 C.3       1 <0>        -0.1406
     14 C13        -1.7456   -3.0600    3.7057 C.3       1 <0>        -0.1410
     15 C14         3.8935   -1.3286    3.0734 C.2       1 <0>         0.4715
     16 O2          4.2624   -2.1597    3.8832 O.2       1 <0>        -0.4690
     17 C15         4.8678   -0.4263    2.4541 C.2       1 <0>        -0.0802
     18 C16         4.5808    0.6419    1.6270 C.2       1 <0>        -0.1286
     19 C17         5.8003    1.2221    1.2681 C.2       1 <0>        -0.2109
     20 C18         6.7898    0.5157    1.8677 C.2       1 <0>         0.0229
     21 N1          6.2360   -0.4848    2.5953 N.pl3     1 <0>        -0.4136
     22 C19         6.9712   -1.4672    3.3957 C.3       1 <0>         0.0606
     23 C20         0.6846   -0.8224   -1.3721 C.3       1 <0>        -0.1382
     24 H1          1.0458    1.6935   -0.2401 H         1 <0>         0.0648
     25 H2         -0.4932    1.6200   -1.1314 H         1 <0>         0.0656
     26 H3         -0.4980    1.7285    0.6452 H         1 <0>         0.0610
     27 H4         -2.1330   -0.0788   -0.2992 H         1 <0>         0.1094
     28 H5         -1.4877   -1.7520   -0.3634 H         1 <0>         0.0808
     29 H6          2.8361   -0.4589    0.7396 H         1 <0>         0.1405
     30 H7          1.7664   -1.9812    4.6056 H         1 <0>         0.1446
     31 H8          0.3727   -1.6020    6.0003 H         1 <0>         0.0591
     32 H9         -0.9893   -2.7078    6.3008 H         1 <0>         0.0619
     33 H10         0.4144   -3.2609    5.3564 H         1 <0>         0.0602
     34 H11        -2.2850   -0.3880    3.6937 H         1 <0>         0.0646
     35 H12        -2.5657   -1.0302    5.3299 H         1 <0>         0.0589
     36 H13        -1.2037    0.0757    5.0293 H         1 <0>         0.0539
     37 H14        -1.1035   -3.9118    3.4816 H         1 <0>         0.0538
     38 H15        -2.5072   -3.3587    4.4261 H         1 <0>         0.0593
     39 H16        -2.2265   -2.7166    2.7899 H         1 <0>         0.0634
     40 H17         3.5991    0.9671    1.3158 H         1 <0>         0.1501
     41 H18         5.9313    2.0809    0.6265 H         1 <0>         0.1448
     42 H19         7.8470    0.7196    1.7828 H         1 <0>         0.1701
     43 H20         7.2111   -2.3327    2.7781 H         1 <0>         0.0770
     44 H21         7.8929   -1.0180    3.7655 H         1 <0>         0.0856
     45 H22         6.3565   -1.7819    4.2391 H         1 <0>         0.1029
     46 H23         1.7136   -0.4736   -1.4590 H         1 <0>         0.0655
     47 H24         0.6752   -1.9091   -1.2880 H         1 <0>         0.0606
     48 H25         0.1230   -0.5216   -2.2565 H         1 <0>         0.0652
@<TRIPOS>BOND
     1    1    2 1
     2    1   24 1
     3    1   25 1
     4    1   26 1
     5    2    6 1
     6    2    3 1
     7    2   23 1
     8    3    4 1
     9    3   27 1
    10    3   28 1
    11    4    5 1
    12    5   10 ar
    13    5    6 ar
    14    6    7 ar
    15    7    8 ar
    16    7   29 1
    17    8    9 ar
    18    8   15 1
    19    9   10 ar
    20    9   30 1
    21   10   11 1
    22   11   12 1
    23   11   13 1
    24   11   14 1
    25   12   31 1
    26   12   32 1
    27   12   33 1
    28   13   34 1
    29   13   35 1
    30   13   36 1
    31   14   37 1
    32   14   38 1
    33   14   39 1
    34   15   16 2
    35   15   17 1
    36   17   21 1
    37   17   18 2
    38   18   19 1
    39   18   40 1
    40   19   20 2
    41   19   41 1
    42   20   21 1
    43   20   42 1
    44   21   22 1
    45   22   43 1
    46   22   44 1
    47   22   45 1
    48   23   46 1
    49   23   47 1
    50   23   48 1
@<TRIPOS>MOLECULE
CHEMBL95380
   73    76     0     0     0
SMALL
USER_CHARGES

@<TRIPOS>ATOM
      1 C1         -0.1234    1.8399   -0.0660 C.3       1 <0>        -0.1031
      2 C2         -0.0789    0.3336   -0.0498 C.2       1 <0>         0.1174
      3 C3         -0.0366   -0.4469   -1.1386 C.2       1 <0>        -0.1397
      4 C4         -0.0025   -1.8377   -0.6731 C.ar      1 <0>        -0.0356
      5 C5          0.0456   -3.0731   -1.3207 C.ar      1 <0>        -0.1098
      6 C6          0.0675   -4.2350   -0.5736 C.ar      1 <0>         0.1118
      7 C7          0.0418   -4.1751    0.8168 C.ar      1 <0>        -0.1756
      8 C8         -0.0061   -2.9603    1.4653 C.ar      1 <0>        -0.0836
      9 C9         -0.0283   -1.7811    0.7308 C.ar      1 <0>         0.0770
     10 N1         -0.0697   -0.4431    1.0832 N.am      1 <0>        -0.5049
     11 C10        -0.0998    0.0262    2.3463 C.2       1 <0>         0.6031
     12 O1         -1.1634    0.2920    2.8705 O.2       1 <0>        -0.4289
     13 C11         1.1596    0.2174    3.0931 C.ar      1 <0>        -0.1659
     14 C12         2.3881    0.0184    2.4588 C.ar      1 <0>        -0.0417
     15 C13         3.5606    0.1985    3.1616 C.ar      1 <0>        -0.1206
     16 C14         3.5219    0.5760    4.4938 C.ar      1 <0>         0.0039
     17 C15         2.3068    0.7744    5.1286 C.ar      1 <0>        -0.1237
     18 C16         1.1274    0.6035    4.4350 C.ar      1 <0>        -0.0384
     19 Cl1         5.0026    0.8007    5.3718 Cl        1 <0>        -0.0527
     20 O2          0.1139   -5.4415   -1.1989 O.3       1 <0>        -0.3168
     21 C17         0.1344   -6.6031   -0.3668 C.3       1 <0>         0.0272
     22 C18        -0.0265    0.0172   -2.5723 C.3       1 <0>        -0.0659
     23 C19         1.3969    0.2147   -3.0263 C.2       1 <0>         0.5146
     24 O3          2.3129   -0.0002   -2.2610 O.2       1 <0>        -0.5264
     25 N2          1.6519    0.6302   -4.2828 N.am      1 <0>        -0.7320
     26 C20         3.0356    0.8222   -4.7241 C.3       1 <0>         0.1240
     27 C21         3.0459    1.2935   -6.1797 C.3       1 <0>         0.0536
     28 O4          2.4387    2.5841   -6.2669 O.3       1 <0>        -0.3509
     29 C22         2.3676    3.1462   -7.4916 C.2       1 <0>         0.5053
     30 O5          2.8097    2.5553   -8.4587 O.2       1 <0>        -0.5195
     31 C23         1.7780    4.4249   -7.6511 C.2       1 <0>        -0.2406
     32 C24         1.7068    4.9880   -8.8778 C.2       1 <0>         0.0381
     33 C25         1.0957    6.3133   -9.0431 C.ar      1 <0>        -0.1605
     34 C26         0.5913    6.9979   -7.9303 C.ar      1 <0>        -0.0349
     35 C27         0.0217    8.2346   -8.0891 C.ar      1 <0>        -0.2078
     36 C28        -0.0558    8.8104   -9.3547 C.ar      1 <0>         0.2402
     37 C29         0.4444    8.1332  -10.4639 C.ar      1 <0>        -0.2100
     38 C30         1.0208    6.8986  -10.3133 C.ar      1 <0>        -0.0304
     39 N3         -0.6350   10.0652   -9.5114 N.pl3     1 <0>        -0.6293
     40 C31        -1.0628   10.8265   -8.3351 C.3       1 <0>         0.0867
     41 C32        -0.8172   10.6256  -10.8526 C.3       1 <0>         0.0826
     42 H1          0.8930    2.2335   -0.0569 H         1 <0>         0.0858
     43 H2         -0.6362    2.1785   -0.9663 H         1 <0>         0.0921
     44 H3         -0.6592    2.1971    0.8134 H         1 <0>         0.0695
     45 H4          0.0652   -3.1205   -2.3995 H         1 <0>         0.1324
     46 H5          0.0593   -5.0888    1.3923 H         1 <0>         0.1350
     47 H6         -0.0264   -2.9247    2.5445 H         1 <0>         0.1220
     48 H7          2.4194   -0.2762    1.4203 H         1 <0>         0.1450
     49 H8          4.5111    0.0447    2.6724 H         1 <0>         0.1452
     50 H9          2.2832    1.0683    6.1676 H         1 <0>         0.1461
     51 H10         0.1807    0.7632    4.9296 H         1 <0>         0.1475
     52 H11        -0.7658   -6.6260    0.2474 H         1 <0>         0.0550
     53 H12         0.1714   -7.4962   -0.9905 H         1 <0>         0.1002
     54 H13         1.0131   -6.5731    0.2774 H         1 <0>         0.0551
     55 H14        -0.5074   -0.7327   -3.2003 H         1 <0>         0.1056
     56 H15        -0.5677    0.9599   -2.6528 H         1 <0>         0.1039
     57 H16         0.9193    0.8022   -4.8949 H         1 <0>         0.4034
     58 H17         3.5166    1.5721   -4.0961 H         1 <0>         0.0801
     59 H18         3.5768   -0.1205   -4.6436 H         1 <0>         0.0910
     60 H19         4.0745    1.3510   -6.5357 H         1 <0>         0.0855
     61 H20         2.4877    0.5871   -6.7942 H         1 <0>         0.0764
     62 H21         1.3856    4.9495   -6.7925 H         1 <0>         0.1381
     63 H22         2.0992    4.4634   -9.7364 H         1 <0>         0.1356
     64 H23         0.6507    6.5519   -6.9484 H         1 <0>         0.1300
     65 H24        -0.3678    8.7630   -7.2316 H         1 <0>         0.1284
     66 H25         0.3819    8.5832  -11.4437 H         1 <0>         0.1300
     67 H26         1.4126    6.3761  -11.1735 H         1 <0>         0.1293
     68 H27        -0.2399   11.4511   -7.9875 H         1 <0>         0.0535
     69 H28        -1.9113   11.4576   -8.5996 H         1 <0>         0.0703
     70 H29        -1.3555   10.1374   -7.5430 H         1 <0>         0.0727
     71 H30        -0.3627    9.9621  -11.5884 H         1 <0>         0.0812
     72 H31        -1.8820   10.7261  -11.0628 H         1 <0>         0.0576
     73 H32        -0.3425   11.6054  -10.9046 H         1 <0>         0.0604
@<TRIPOS>BOND
     1    1    2 1
     2    1   42 1
     3    1   43 1
     4    1   44 1
     5    2   10 1
     6    2    3 2
     7    3    4 1
     8    3   22 1
     9    4    9 ar
    10    4    5 ar
    11    5    6 ar
    12    5   45 1
    13    6    7 ar
    14    6   20 1
    15    7    8 ar
    16    7   46 1
    17    8    9 ar
    18    8   47 1
    19    9   10 1
    20   10   11 am
    21   11   12 2
    22   11   13 1
    23   13   18 ar
    24   13   14 ar
    25   14   15 ar
    26   14   48 1
    27   15   16 ar
    28   15   49 1
    29   16   17 ar
    30   16   19 1
    31   17   18 ar
    32   17   50 1
    33   18   51 1
    34   20   21 1
    35   21   52 1
    36   21   53 1
    37   21   54 1
    38   22   23 1
    39   22   55 1
    40   22   56 1
    41   23   24 2
    42   23   25 am
    43   25   26 1
    44   25   57 1
    45   26   27 1
    46   26   58 1
    47   26   59 1
    48   27   28 1
    49   27   60 1
    50   27   61 1
    51   28   29 1
    52   29   30 2
    53   29   31 1
    54   31   32 2
    55   31   62 1
    56   32   33 1
    57   32   63 1
    58   33   38 ar
    59   33   34 ar
    60   34   35 ar
    61   34   64 1
    62   35   36 ar
    63   35   65 1
    64   36   37 ar
    65   36   39 1
    66   37   38 ar
    67   37   66 1
    68   38   67 1
    69   39   40 1
    70   39   41 1
    71   40   68 1
    72   40   69 1
    73   40   70 1
    74   41   71 1
    75   41   72 1
    76   41   73 1
@<TRIPOS>MOLECULE
CHEMBL174922
   61    64     0     0     0
SMALL
USER_CHARGES

@<TRIPOS>ATOM
      1 C1         -0.0158    1.1769   -1.0406 C.3       1 <0>        -0.1808
      2 C2          0.0345   -0.3321   -0.7932 C.3       1 <0>         0.2834
      3 C3         -1.3354   -0.8695   -0.7582 C.1       1 <0>        -0.1434
      4 C4         -2.4281   -1.2981   -0.7303 C.1       1 <0>        -0.0827
      5 C5         -3.7608   -1.8209   -0.6963 C.2       1 <0>         0.1807
      6 C6         -4.9424   -1.0770   -0.8688 C.2       1 <0>        -0.2161
      7 C7         -5.9953   -1.9381   -0.7667 C.2       1 <0>         0.1289
      8 N1         -5.4872   -3.1855   -0.5368 N.pl3     1 <0>        -0.3050
      9 N2         -4.0907   -3.0834   -0.5035 N.2       1 <0>        -0.2487
     10 C8         -6.2316   -4.3604   -0.3689 C.ar      1 <0>         0.0968
     11 C9         -7.3221   -4.6153   -1.1904 C.ar      1 <0>        -0.0723
     12 C10        -8.0553   -5.7732   -1.0243 C.ar      1 <0>        -0.1342
     13 C11        -7.7029   -6.6823   -0.0370 C.ar      1 <0>         0.1403
     14 C12        -6.6136   -6.4283    0.7840 C.ar      1 <0>        -0.1945
     15 C13        -5.8761   -5.2735    0.6154 C.ar      1 <0>        -0.0590
     16 O1         -8.4255   -7.8220    0.1262 O.3       1 <0>        -0.3110
     17 C14        -8.0066   -8.7131    1.1619 C.3       1 <0>         0.0234
     18 C15        -7.4274   -1.5853   -0.8829 C.ar      1 <0>        -0.0376
     19 C16        -8.3892   -2.3265   -0.1956 C.ar      1 <0>        -0.0890
     20 C17        -9.7231   -1.9931   -0.3077 C.ar      1 <0>        -0.1058
     21 C18       -10.1082   -0.9251   -1.1004 C.ar      1 <0>        -0.0225
     22 C19        -9.1582   -0.1863   -1.7851 C.ar      1 <0>        -0.1076
     23 C20        -7.8209   -0.5067   -1.6756 C.ar      1 <0>        -0.0745
     24 Cl1       -11.7886   -0.5113   -1.2368 Cl        1 <0>        -0.0606
     25 N3          0.6951   -0.5952    0.4877 N.am      1 <0>        -0.5164
     26 C21         0.6238    0.3123    1.4816 C.2       1 <0>         0.7138
     27 O2          1.6240    0.6110    2.1050 O.2       1 <0>        -0.5497
     28 N4         -0.5563    0.8886    1.7845 N.am      1 <0>        -0.6170
     29 C22        -0.7984    1.4388    3.1251 C.3       1 <0>         0.1251
     30 C23        -1.2562    2.8941    2.9855 C.3       1 <0>        -0.1358
     31 C24        -2.4676    2.9563    2.0524 C.3       1 <0>        -0.1195
     32 C25        -2.0736    2.4389    0.6670 C.3       1 <0>        -0.1400
     33 C26        -1.6229    0.9839    0.7785 C.3       1 <0>         0.0358
     34 O3          1.4086   -1.8029    0.6814 O.3       1 <0>        -0.3073
     35 H1          0.6353    1.4297   -1.8775 H         1 <0>         0.0881
     36 H2         -1.0386    1.4730   -1.2736 H         1 <0>         0.0981
     37 H3          0.3202    1.7030   -0.1471 H         1 <0>         0.0837
     38 H4          0.5932   -0.8135   -1.5958 H         1 <0>         0.1281
     39 H5         -5.0047   -0.0141   -1.0497 H         1 <0>         0.1627
     40 H6         -7.5967   -3.9077   -1.9586 H         1 <0>         0.1391
     41 H7         -8.9035   -5.9714   -1.6628 H         1 <0>         0.1449
     42 H8         -6.3399   -7.1363    1.5523 H         1 <0>         0.1406
     43 H9         -5.0253   -5.0783    1.2513 H         1 <0>         0.1371
     44 H10        -8.0489   -8.1994    2.1223 H         1 <0>         0.0590
     45 H11        -8.6667   -9.5802    1.1842 H         1 <0>         0.1050
     46 H12        -6.9846   -9.0393    0.9691 H         1 <0>         0.0592
     47 H13        -8.0899   -3.1599    0.4227 H         1 <0>         0.1357
     48 H14       -10.4684   -2.5663    0.2236 H         1 <0>         0.1399
     49 H15        -9.4643    0.6455   -2.4023 H         1 <0>         0.1421
     50 H16        -7.0803    0.0732   -2.2063 H         1 <0>         0.1418
     51 H17        -1.5743    0.8580    3.6239 H         1 <0>         0.0682
     52 H18         0.1219    1.3996    3.7079 H         1 <0>         0.0910
     53 H19        -1.5313    3.2845    3.9653 H         1 <0>         0.0769
     54 H20        -0.4454    3.4922    2.5696 H         1 <0>         0.0693
     55 H21        -3.2693    2.3382    2.4564 H         1 <0>         0.0641
     56 H22        -2.8105    3.9878    1.9707 H         1 <0>         0.0675
     57 H23        -2.9305    2.5054   -0.0034 H         1 <0>         0.0778
     58 H24        -1.2551    3.0413    0.2729 H         1 <0>         0.0696
     59 H25        -1.2464    0.6446   -0.1865 H         1 <0>         0.1531
     60 H26        -2.4675    0.3652    1.0817 H         1 <0>         0.0665
     61 H27         1.7442   -1.9215    1.5805 H         1 <0>         0.3934
@<TRIPOS>BOND
     1    1    2 1
     2    1   35 1
     3    1   36 1
     4    1   37 1
     5    2    3 1
     6    2   25 1
     7    2   38 1
     8    3    4 3
     9    4    5 1
    10    5    9 2
    11    5    6 1
    12    6    7 2
    13    6   39 1
    14    7    8 1
    15    7   18 1
    16    8    9 1
    17    8   10 1
    18   10   15 ar
    19   10   11 ar
    20   11   12 ar
    21   11   40 1
    22   12   13 ar
    23   12   41 1
    24   13   14 ar
    25   13   16 1
    26   14   15 ar
    27   14   42 1
    28   15   43 1
    29   16   17 1
    30   17   44 1
    31   17   45 1
    32   17   46 1
    33   18   23 ar
    34   18   19 ar
    35   19   20 ar
    36   19   47 1
    37   20   21 ar
    38   20   48 1
    39   21   22 ar
    40   21   24 1
    41   22   23 ar
    42   22   49 1
    43   23   50 1
    44   25   26 am
    45   25   34 1
    46   26   27 2
    47   26   28 am
    48   28   33 1
    49   28   29 1
    50   29   30 1
    51   29   51 1
    52   29   52 1
    53   30   31 1
    54   30   53 1
    55   30   54 1
    56   31   32 1
    57   31   55 1
    58   31   56 1
    59   32   33 1
    60   32   57 1
    61   32   58 1
    62   33   59 1
    63   33   60 1
    64   34   61 1
@<TRIPOS>MOLECULE
CHEMBL174922__1
   61    64     0     0     0
SMALL
USER_CHARGES

@<TRIPOS>ATOM
      1 C1         -0.9911    0.5759   -0.0471 C.3       1 <0>        -0.1824
      2 C2         -0.6513   -0.6729    0.7690 C.3       1 <0>         0.2797
      3 C3          0.3866   -0.3441    1.7598 C.1       1 <0>        -0.1357
      4 C4          1.2143   -0.0819    2.5499 C.1       1 <0>        -0.0870
      5 C5          2.2240    0.2379    3.5138 C.2       1 <0>         0.1803
      6 C6          2.8163    1.5006    3.6986 C.2       1 <0>        -0.2165
      7 C7          3.7263    1.3900    4.7086 C.2       1 <0>         0.1299
      8 N1          3.7043    0.0948    5.1435 N.pl3     1 <0>        -0.3048
      9 N2          2.7540   -0.5995    4.3841 N.2       1 <0>        -0.2470
     10 C8          4.4904   -0.4428    6.1711 C.ar      1 <0>         0.0956
     11 C9          4.6487    0.2543    7.3619 C.ar      1 <0>        -0.0706
     12 C10         5.4234   -0.2760    8.3740 C.ar      1 <0>        -0.1348
     13 C11         6.0438   -1.5052    8.2019 C.ar      1 <0>         0.1412
     14 C12         5.8860   -2.2021    7.0125 C.ar      1 <0>        -0.1950
     15 C13         5.1070   -1.6757    6.0017 C.ar      1 <0>        -0.0579
     16 O1          6.8068   -2.0265    9.1988 O.3       1 <0>        -0.3110
     17 C14         7.4159   -3.2957    8.9535 C.3       1 <0>         0.0233
     18 C15         4.5824    2.4750    5.2366 C.ar      1 <0>        -0.0370
     19 C16         5.8261    2.1771    5.7944 C.ar      1 <0>        -0.0889
     20 C17         6.6200    3.1929    6.2852 C.ar      1 <0>        -0.1055
     21 C18         6.1848    4.5059    6.2251 C.ar      1 <0>        -0.0225
     22 C19         4.9513    4.8074    5.6730 C.ar      1 <0>        -0.1074
     23 C20         4.1515    3.8005    5.1734 C.ar      1 <0>        -0.0745
     24 Cl1         7.1892    5.7791    6.8447 Cl        1 <0>        -0.0606
     25 N3         -1.8531   -1.1468    1.4598 N.am      1 <0>        -0.5065
     26 C21        -2.6079   -0.2836    2.1680 C.2       1 <0>         0.7156
     27 O2         -3.8196   -0.3829    2.1546 O.2       1 <0>        -0.5514
     28 N4         -2.0195    0.6897    2.8912 N.am      1 <0>        -0.6269
     29 C22        -0.8126    1.3651    2.3953 C.3       1 <0>         0.0255
     30 C23        -1.0549    2.8777    2.4049 C.3       1 <0>        -0.1412
     31 C24        -1.4870    3.3122    3.8072 C.3       1 <0>        -0.1177
     32 C25        -2.7954    2.6111    4.1798 C.3       1 <0>        -0.1360
     33 C26        -2.5763    1.0997    4.1876 C.3       1 <0>         0.1343
     34 O3         -2.2218   -2.5118    1.3833 O.3       1 <0>        -0.3101
     35 H1         -0.0981    1.1908   -0.1591 H         1 <0>         0.0971
     36 H2         -1.3538    0.2792   -1.0312 H         1 <0>         0.0889
     37 H3         -1.7635    1.1473    0.4677 H         1 <0>         0.0808
     38 H4         -0.2835   -1.4533    0.1029 H         1 <0>         0.1325
     39 H5          2.5906    2.3973    3.1406 H         1 <0>         0.1622
     40 H6          4.1661    1.2111    7.4958 H         1 <0>         0.1384
     41 H7          5.5468    0.2661    9.2999 H         1 <0>         0.1448
     42 H8          6.3692   -3.1588    6.8792 H         1 <0>         0.1408
     43 H9          4.9804   -2.2205    5.0778 H         1 <0>         0.1375
     44 H10         8.0750   -3.2213    8.0885 H         1 <0>         0.0592
     45 H11         7.9950   -3.5957    9.8268 H         1 <0>         0.1050
     46 H12         6.6422   -4.0383    8.7579 H         1 <0>         0.0593
     47 H13         6.1664    1.1532    5.8422 H         1 <0>         0.1356
     48 H14         7.5828    2.9634    6.7176 H         1 <0>         0.1398
     49 H15         4.6167    5.8334    5.6291 H         1 <0>         0.1419
     50 H16         3.1917    4.0373    4.7387 H         1 <0>         0.1410
     51 H17         0.0316    1.1262    3.0420 H         1 <0>         0.0910
     52 H18        -0.6012    1.0353    1.3781 H         1 <0>         0.1459
     53 H19        -0.1355    3.3952    2.1308 H         1 <0>         0.0756
     54 H20        -1.8392    3.1250    1.6895 H         1 <0>         0.0643
     55 H21        -0.7130    3.0423    4.5256 H         1 <0>         0.0639
     56 H22        -1.6363    4.3918    3.8230 H         1 <0>         0.0660
     57 H23        -3.1148    2.9388    5.1691 H         1 <0>         0.0759
     58 H24        -3.5633    2.8610    3.4478 H         1 <0>         0.0689
     59 H25        -3.5282    0.5948    4.3526 H         1 <0>         0.0851
     60 H26        -1.8791    0.8386    4.9837 H         1 <0>         0.0662
     61 H27        -3.0675   -2.7151    1.8058 H         1 <0>         0.3961
@<TRIPOS>BOND
     1    1    2 1
     2    1   35 1
     3    1   36 1
     4    1   37 1
     5    2    3 1
     6    2   25 1
     7    2   38 1
     8    3    4 3
     9    4    5 1
    10    5    9 2
    11    5    6 1
    12    6    7 2
    13    6   39 1
    14    7    8 1
    15    7   18 1
    16    8    9 1
    17    8   10 1
    18   10   15 ar
    19   10   11 ar
    20   11   12 ar
    21   11   40 1
    22   12   13 ar
    23   12   41 1
    24   13   14 ar
    25   13   16 1
    26   14   15 ar
    27   14   42 1
    28   15   43 1
    29   16   17 1
    30   17   44 1
    31   17   45 1
    32   17   46 1
    33   18   23 ar
    34   18   19 ar
    35   19   20 ar
    36   19   47 1
    37   20   21 ar
    38   20   48 1
    39   21   22 ar
    40   21   24 1
    41   22   23 ar
    42   22   49 1
    43   23   50 1
    44   25   26 am
    45   25   34 1
    46   26   27 2
    47   26   28 am
    48   28   33 1
    49   28   29 1
    50   29   30 1
    51   29   51 1
    52   29   52 1
    53   30   31 1
    54   30   53 1
    55   30   54 1
    56   31   32 1
    57   31   55 1
    58   31   56 1
    59   32   33 1
    60   32   57 1
    61   32   58 1
    62   33   59 1
    63   33   60 1
    64   34   61 1
@<TRIPOS>MOLECULE
CHEMBL133080
   65    69     0     0     0
SMALL
USER_CHARGES

@<TRIPOS>ATOM
      1 C1         -0.1531    0.7843   -0.0903 C.ar      1 <0>        -0.1195
      2 C2          1.0403    1.4650   -0.2435 C.ar      1 <0>        -0.1172
      3 C3          2.2386    0.7771   -0.2012 C.ar      1 <0>        -0.1208
      4 C4          2.2435   -0.5913   -0.0052 C.ar      1 <0>        -0.0896
      5 C5          1.0502   -1.2717    0.1489 C.ar      1 <0>        -0.1160
      6 C6         -0.1482   -0.5841    0.1052 C.ar      1 <0>        -0.1150
      7 C7          3.5498   -1.3413    0.0399 C.3       1 <0>        -0.0762
      8 C8          4.0601   -1.3906    1.4815 C.3       1 <0>        -0.0929
      9 C9          4.4006    0.0261    1.9529 C.3       1 <0>        -0.1440
     10 C10         4.9845   -0.0389    3.3658 C.3       1 <0>        -0.0046
     11 N1          6.2014   -0.8596    3.3590 N.4       1 <0>        -0.3797
     12 C11         5.8706   -2.2377    2.9770 C.3       1 <0>        -0.0116
     13 C12         5.3208   -2.2573    1.5491 C.3       1 <0>        -0.1422
     14 C13         6.8008   -0.8552    4.7001 C.3       1 <0>         0.0279
     15 C14         8.1135   -1.5946    4.6661 C.2       1 <0>        -0.2398
     16 C15         9.2237   -1.0092    5.1314 C.2       1 <0>         0.0675
     17 C16         9.1233    0.2877    5.8417 C.ar      1 <0>        -0.0639
     18 C17         8.0708    0.4126    6.7619 C.ar      1 <0>        -0.1183
     19 C18         7.8894    1.5786    7.4687 C.ar      1 <0>        -0.1185
     20 C19         8.7566    2.6380    7.2674 C.ar      1 <0>        -0.1011
     21 C20         9.7913    2.5195    6.3670 C.ar      1 <0>        -0.1176
     22 C21         9.9921    1.3438    5.6424 C.ar      1 <0>        -0.0852
     23 C22        11.1708    1.3663    4.7048 C.3       1 <0>         0.1075
     24 O1         11.2236    0.2951    3.7978 O.3       1 <0>        -0.3222
     25 C23        11.4951   -0.9539    4.2231 C.ar      1 <0>         0.0864
     26 C24        10.5353   -1.6695    4.9345 C.ar      1 <0>        -0.1096
     27 C25        10.7991   -2.9409    5.4246 C.ar      1 <0>        -0.0764
     28 C26        12.0356   -3.5127    5.1826 C.ar      1 <0>        -0.0127
     29 C27        12.9902   -2.8202    4.4589 C.ar      1 <0>        -0.0872
     30 C28        12.7286   -1.5388    3.9709 C.ar      1 <0>        -0.1220
     31 C29        12.3432   -4.8911    5.7083 C.3       1 <0>        -0.1645
     32 C30        11.9470   -5.9203    4.6813 C.2       1 <0>         0.4981
     33 O2         11.4600   -5.5673    3.6208 O.co2     1 <0>        -0.6910
     34 O3         12.1135   -7.1061    4.9109 O.co2     1 <0>        -0.6919
     35 H1         -1.0892    1.3224   -0.1188 H         1 <0>         0.1232
     36 H2          1.0364    2.5340   -0.3966 H         1 <0>         0.1230
     37 H3          3.1709    1.3088   -0.3216 H         1 <0>         0.1201
     38 H4          1.0540   -2.3409    0.3017 H         1 <0>         0.1221
     39 H5         -1.0806   -1.1158    0.2253 H         1 <0>         0.1239
     40 H6          3.3988   -2.3565   -0.3270 H         1 <0>         0.0834
     41 H7          4.2823   -0.8334   -0.5876 H         1 <0>         0.0789
     42 H8          3.2907   -1.8155    2.1261 H         1 <0>         0.0894
     43 H9          5.1320    0.4688    1.2768 H         1 <0>         0.0878
     44 H10         3.4961    0.6344    1.9605 H         1 <0>         0.1119
     45 H11         5.2278    0.9681    3.7047 H         1 <0>         0.1262
     46 H12         4.2522   -0.4815    4.0411 H         1 <0>         0.1259
     47 H13         6.7682   -2.8540    3.0287 H         1 <0>         0.1367
     48 H14         5.1194   -2.6334    3.6606 H         1 <0>         0.1266
     49 H15         5.0742   -3.2811    1.2681 H         1 <0>         0.1127
     50 H16         6.0714   -1.8620    0.8646 H         1 <0>         0.0899
     51 H17         6.9712    0.1732    5.0185 H         1 <0>         0.1361
     52 H18         6.1257   -1.3456    5.4014 H         1 <0>         0.1308
     53 H19         8.1585   -2.5969    4.2663 H         1 <0>         0.1486
     54 H20         7.3956   -0.4160    6.9165 H         1 <0>         0.1271
     55 H21         7.0769    1.6667    8.1747 H         1 <0>         0.1317
     56 H22         8.6215    3.5581    7.8165 H         1 <0>         0.1309
     57 H23        10.4609    3.3537    6.2181 H         1 <0>         0.1305
     58 H24        11.1417    2.2966    4.1375 H         1 <0>         0.1173
     59 H25        12.0840    1.3591    5.2998 H         1 <0>         0.0704
     60 H26        10.0493   -3.4767    5.9877 H         1 <0>         0.1250
     61 H27        13.9495   -3.2774    4.2662 H         1 <0>         0.1286
     62 H28        13.4786   -1.0030    3.4080 H         1 <0>         0.1322
     63 H29        13.4111   -4.9726    5.9112 H         1 <0>         0.0761
     64 H30        11.7845   -5.0621    6.6284 H         1 <0>         0.0729
     65 H31         6.8601   -0.4771    2.6972 H         1 <0>         0.4236
@<TRIPOS>BOND
     1    1    6 ar
     2    1    2 ar
     3    1   35 1
     4    2    3 ar
     5    2   36 1
     6    3    4 ar
     7    3   37 1
     8    4    5 ar
     9    4    7 1
    10    5    6 ar
    11    5   38 1
    12    6   39 1
    13    7    8 1
    14    7   40 1
    15    7   41 1
    16    8   13 1
    17    8    9 1
    18    8   42 1
    19    9   10 1
    20    9   43 1
    21    9   44 1
    22   10   11 1
    23   10   45 1
    24   10   46 1
    25   11   12 1
    26   11   14 1
    27   11   65 1
    28   12   13 1
    29   12   47 1
    30   12   48 1
    31   13   49 1
    32   13   50 1
    33   14   15 1
    34   14   51 1
    35   14   52 1
    36   15   16 2
    37   15   53 1
    38   16   26 1
    39   16   17 1
    40   17   22 ar
    41   17   18 ar
    42   18   19 ar
    43   18   54 1
    44   19   20 ar
    45   19   55 1
    46   20   21 ar
    47   20   56 1
    48   21   22 ar
    49   21   57 1
    50   22   23 1
    51   23   24 1
    52   23   58 1
    53   23   59 1
    54   24   25 1
    55   25   30 ar
    56   25   26 ar
    57   26   27 ar
    58   27   28 ar
    59   27   60 1
    60   28   29 ar
    61   28   31 1
    62   29   30 ar
    63   29   61 1
    64   30   62 1
    65   31   32 1
    66   31   63 1
    67   31   64 1
    68   32   33 2
    69   32   34 1
@<TRIPOS>MOLECULE
CHEMBL249995
   37    39     0     0     0
SMALL
USER_CHARGES

@<TRIPOS>ATOM
      1 C1          0.1094    1.8743    0.0716 C.3       1 <0>        -0.6496
      2 S1          0.1078    0.0604    0.0635 S.o2      1 <0>         2.4975
      3 O1          0.9500   -0.4344    1.0955 O.2       1 <0>        -0.9338
      4 O2         -1.2186   -0.4273   -0.0853 O.2       1 <0>        -0.9341
      5 C2          0.9218   -0.3864   -1.4340 C.ar      1 <0>        -0.6475
      6 C3          0.1904   -0.5527   -2.5952 C.ar      1 <0>        -0.0197
      7 C4          0.8290   -0.9032   -3.7700 C.ar      1 <0>        -0.1133
      8 C5          2.1990   -1.0870   -3.7838 C.ar      1 <0>        -0.0428
      9 C6          2.9305   -0.9198   -2.6228 C.ar      1 <0>        -0.1096
     10 C7          2.2925   -0.5651   -1.4489 C.ar      1 <0>        -0.0199
     11 C8          2.8950   -1.4701   -5.0644 C.3       1 <0>         0.2197
     12 N1          4.1793   -2.1416   -4.7891 N.am      1 <0>        -0.5636
     13 C9          5.2643   -1.7618   -5.4516 C.2       1 <0>         0.5145
     14 O3          6.3373   -2.2929   -5.2574 O.2       1 <0>        -0.4924
     15 C10         5.1135   -0.6370   -6.4633 C.3       1 <0>        -0.0915
     16 S2          3.4589    0.0254   -5.9852 S.3       1 <0>        -0.2237
     17 C11         4.2525   -3.1679   -3.8393 C.ar      1 <0>         0.1242
     18 C12         3.4395   -4.2870   -3.9608 C.ar      1 <0>        -0.0902
     19 C13         3.5132   -5.2981   -3.0229 C.ar      1 <0>        -0.1372
     20 C14         4.3968   -5.1961   -1.9615 C.ar      1 <0>         0.1067
     21 C15         5.2084   -4.0809   -1.8385 C.ar      1 <0>        -0.1363
     22 C16         5.1421   -3.0705   -2.7777 C.ar      1 <0>        -0.0769
     23 F1          4.4667   -6.1858   -1.0446 F         1 <0>        -0.1328
     24 H1          1.1370    2.2369    0.0476 H         1 <0>         0.1324
     25 H2         -0.4262    2.2421   -0.8036 H         1 <0>         0.1327
     26 H3         -0.3818    2.2340    0.9758 H         1 <0>         0.1350
     27 H4         -0.8799   -0.4091   -2.5844 H         1 <0>         0.1492
     28 H5          0.2575   -1.0338   -4.6771 H         1 <0>         0.1399
     29 H6          4.0008   -1.0638   -2.6335 H         1 <0>         0.1348
     30 H7          2.8644   -0.4309   -0.5427 H         1 <0>         0.1468
     31 H8          2.2518   -2.0932   -5.6858 H         1 <0>         0.1317
     32 H9          5.8915    0.1155   -6.3352 H         1 <0>         0.1474
     33 H10         5.1044   -1.0223   -7.4829 H         1 <0>         0.1391
     34 H11         2.7498   -4.3665   -4.7881 H         1 <0>         0.1364
     35 H12         2.8811   -6.1686   -3.1171 H         1 <0>         0.1447
     36 H13         5.8966   -4.0032   -1.0098 H         1 <0>         0.1455
     37 H14         5.7785   -2.2029   -2.6838 H         1 <0>         0.1366
@<TRIPOS>BOND
     1    1    2 1
     2    1   24 1
     3    1   25 1
     4    1   26 1
     5    2    3 2
     6    2    4 2
     7    2    5 1
     8    5   10 ar
     9    5    6 ar
    10    6    7 ar
    11    6   27 1
    12    7    8 ar
    13    7   28 1
    14    8    9 ar
    15    8   11 1
    16    9   10 ar
    17    9   29 1
    18   10   30 1
    19   11   16 1
    20   11   12 1
    21   11   31 1
    22   12   13 am
    23   12   17 1
    24   13   14 2
    25   13   15 1
    26   15   16 1
    27   15   32 1
    28   15   33 1
    29   17   22 ar
    30   17   18 ar
    31   18   19 ar
    32   18   34 1
    33   19   20 ar
    34   19   35 1
    35   20   21 ar
    36   20   23 1
    37   21   22 ar
    38   21   36 1
    39   22   37 1
@<TRIPOS>MOLECULE
CHEMBL249995__1
   37    39     0     0     0
SMALL
USER_CHARGES

@<TRIPOS>ATOM
      1 C1         -0.5233    2.1987   -0.7372 C.3       1 <0>        -0.6496
      2 S1         -0.5859    0.3866   -0.6812 S.o2      1 <0>         2.4975
      3 O1          0.0724   -0.0901    0.4844 O.2       1 <0>        -0.9337
      4 O2         -1.8903   -0.0685   -1.0138 O.2       1 <0>        -0.9338
      5 C2          0.4300   -0.1432   -2.0198 C.ar      1 <0>        -0.6474
      6 C3         -0.1219   -0.3351   -3.2725 C.ar      1 <0>        -0.0195
      7 C4          0.6751   -0.7508   -4.3227 C.ar      1 <0>        -0.1133
      8 C5          2.0242   -0.9741   -4.1202 C.ar      1 <0>        -0.0429
      9 C6          2.5764   -0.7812   -2.8676 C.ar      1 <0>        -0.1096
     10 C7          1.7801   -0.3615   -1.8185 C.ar      1 <0>        -0.0198
     11 C8          2.8930   -1.4282   -5.2648 C.3       1 <0>         0.2191
     12 N1          4.3071   -1.0829   -5.0262 N.am      1 <0>        -0.5643
     13 C9          5.2415   -2.0034   -5.2256 C.2       1 <0>         0.5150
     14 O3          6.4153   -1.7570   -5.0448 O.2       1 <0>        -0.4925
     15 C10         4.7874   -3.3786   -5.6885 C.3       1 <0>        -0.0925
     16 S2          2.9782   -3.2691   -5.3423 S.3       1 <0>        -0.2209
     17 C11         4.6594    0.2019   -4.5947 C.ar      1 <0>         0.1266
     18 C12         5.3918    0.3665   -3.4267 C.ar      1 <0>        -0.0768
     19 C13         5.7382    1.6345   -3.0028 C.ar      1 <0>        -0.1367
     20 C14         5.3551    2.7412   -3.7415 C.ar      1 <0>         0.1045
     21 C15         4.6246    2.5793   -4.9067 C.ar      1 <0>        -0.1378
     22 C16         4.2815    1.3126   -5.3374 C.ar      1 <0>        -0.0903
     23 F1          5.6941    3.9808   -3.3247 F         1 <0>        -0.1336
     24 H1          0.5080    2.5305   -0.6166 H         1 <0>         0.1321
     25 H2         -0.9068    2.5460   -1.6966 H         1 <0>         0.1324
     26 H3         -1.1333    2.6084    0.0678 H         1 <0>         0.1352
     27 H4         -1.1759   -0.1607   -3.4307 H         1 <0>         0.1492
     28 H5          0.2438   -0.9014   -5.3013 H         1 <0>         0.1400
     29 H6          3.6303   -0.9560   -2.7094 H         1 <0>         0.1346
     30 H7          2.2122   -0.2072   -0.8408 H         1 <0>         0.1468
     31 H8          2.5416   -1.0123   -6.2091 H         1 <0>         0.1318
     32 H9          4.9775   -3.5192   -6.7525 H         1 <0>         0.1393
     33 H10         5.2547   -4.1673   -5.0989 H         1 <0>         0.1478
     34 H11         5.6901   -0.4965   -2.8498 H         1 <0>         0.1371
     35 H12         6.3078    1.7629   -2.0943 H         1 <0>         0.1453
     36 H13         4.3265    3.4438   -5.4813 H         1 <0>         0.1442
     37 H14         3.7156    1.1864   -6.2485 H         1 <0>         0.1366
@<TRIPOS>BOND
     1    1    2 1
     2    1   24 1
     3    1   25 1
     4    1   26 1
     5    2    3 2
     6    2    4 2
     7    2    5 1
     8    5   10 ar
     9    5    6 ar
    10    6    7 ar
    11    6   27 1
    12    7    8 ar
    13    7   28 1
    14    8    9 ar
    15    8   11 1
    16    9   10 ar
    17    9   29 1
    18   10   30 1
    19   11   16 1
    20   11   12 1
    21   11   31 1
    22   12   13 am
    23   12   17 1
    24   13   14 2
    25   13   15 1
    26   15   16 1
    27   15   32 1
    28   15   33 1
    29   17   22 ar
    30   17   18 ar
    31   18   19 ar
    32   18   34 1
    33   19   20 ar
    34   19   35 1
    35   20   21 ar
    36   20   23 1
    37   21   22 ar
    38   21   36 1
    39   22   37 1
@<TRIPOS>MOLECULE
CHEMBL106255
   42    44     0     0     0
SMALL
USER_CHARGES

@<TRIPOS>ATOM
      1 C1         -0.2016    1.4822    0.1337 C.3       1 <0>        -0.1576
      2 C2         -0.0613   -0.0392    0.0524 C.3       1 <0>         0.1323
      3 C3          0.7163   -0.4226   -1.1848 C.2       1 <0>        -0.0480
      4 C4          1.8224   -1.0751   -0.7575 C.2       1 <0>        -0.0186
      5 C5          1.7969   -1.1322    0.7058 C.2       1 <0>         0.4892
      6 O1          2.6498   -1.6523    1.3990 O.2       1 <0>        -0.4236
      7 O2          0.6902   -0.5230    1.1696 O.3       1 <0>        -0.2926
      8 O3          2.7955   -1.5912   -1.5539 O.3       1 <0>        -0.2095
      9 C6          2.9438   -2.9397   -1.5862 C.ar      1 <0>         0.1562
     10 C7          2.0500   -3.7729   -0.9171 C.ar      1 <0>        -0.2428
     11 C8          2.2350   -5.1388   -0.9746 C.ar      1 <0>         0.1414
     12 N1          3.2421   -5.6570   -1.6519 N.ar      1 <0>        -0.4982
     13 C9          4.1094   -4.9010   -2.2983 C.ar      1 <0>         0.1377
     14 C10         3.9903   -3.5265   -2.2940 C.ar      1 <0>        -0.1912
     15 C11         0.3442   -0.1417   -2.5804 C.ar      1 <0>         0.0078
     16 C12         0.3245    1.1752   -3.0512 C.ar      1 <0>        -0.1141
     17 C13        -0.0249    1.4301   -4.3605 C.ar      1 <0>        -0.0189
     18 C14        -0.3558    0.3871   -5.2079 C.ar      1 <0>        -0.6487
     19 C15        -0.3391   -0.9187   -4.7494 C.ar      1 <0>        -0.0178
     20 C16         0.0141   -1.1906   -3.4446 C.ar      1 <0>        -0.1090
     21 S1         -0.8014    0.7234   -6.8791 S.o2      1 <0>         2.4979
     22 O4         -1.6323   -0.3649   -7.2589 O.2       1 <0>        -0.9329
     23 O5         -1.3097    2.0503   -6.8588 O.2       1 <0>        -0.9329
     24 C17         0.7613    0.6670   -7.7986 C.3       1 <0>        -0.6493
     25 C18        -1.4445   -0.6927    0.0277 C.3       1 <0>        -0.1512
     26 H1          0.7884    1.9379    0.1506 H         1 <0>         0.0734
     27 H2         -0.7529    1.8431   -0.7346 H         1 <0>         0.0906
     28 H3         -0.7402    1.7494    1.0428 H         1 <0>         0.0891
     29 H4          1.2239   -3.3552   -0.3608 H         1 <0>         0.1295
     30 H5          1.5471   -5.7923   -0.4586 H         1 <0>         0.1631
     31 H6          4.9200   -5.3643   -2.8411 H         1 <0>         0.1695
     32 H7          4.7008   -2.9138   -2.8289 H         1 <0>         0.1477
     33 H8          0.5818    1.9902   -2.3909 H         1 <0>         0.1418
     34 H9         -0.0406    2.4464   -4.7256 H         1 <0>         0.1518
     35 H10        -0.5989   -1.7272   -5.4167 H         1 <0>         0.1507
     36 H11         0.0314   -2.2105   -3.0896 H         1 <0>         0.1349
     37 H12         1.2102   -0.3205   -7.6919 H         1 <0>         0.1326
     38 H13         0.5700    0.8672   -8.8528 H         1 <0>         0.1360
     39 H14         1.4428    1.4204   -7.4035 H         1 <0>         0.1329
     40 H15        -1.9942   -0.3468   -0.8476 H         1 <0>         0.0895
     41 H16        -1.3337   -1.7762   -0.0176 H         1 <0>         0.0715
     42 H17        -1.9909   -0.4209    0.9308 H         1 <0>         0.0898
@<TRIPOS>BOND
     1    1    2 1
     2    1   26 1
     3    1   27 1
     4    1   28 1
     5    2    7 1
     6    2    3 1
     7    2   25 1
     8    3    4 2
     9    3   15 1
    10    4    5 1
    11    4    8 1
    12    5    6 2
    13    5    7 1
    14    8    9 1
    15    9   14 ar
    16    9   10 ar
    17   10   11 ar
    18   10   29 1
    19   11   12 ar
    20   11   30 1
    21   12   13 ar
    22   13   14 ar
    23   13   31 1
    24   14   32 1
    25   15   20 ar
    26   15   16 ar
    27   16   17 ar
    28   16   33 1
    29   17   18 ar
    30   17   34 1
    31   18   19 ar
    32   18   21 1
    33   19   20 ar
    34   19   35 1
    35   20   36 1
    36   21   22 2
    37   21   23 2
    38   21   24 1
    39   24   37 1
    40   24   38 1
    41   24   39 1
    42   25   40 1
    43   25   41 1
    44   25   42 1
@<TRIPOS>MOLECULE
CHEMBL349564
   47    50     0     0     0
SMALL
USER_CHARGES

@<TRIPOS>ATOM
      1 C1         -0.0225    1.8097    0.0120 C.3       1 <0>        -0.6501
      2 S1          0.0021   -0.0041    0.0020 S.o2      1 <0>         2.4970
      3 O1          0.8352   -0.4880    1.0465 O.2       1 <0>        -0.9344
      4 O2         -1.3147   -0.5105   -0.1678 O.2       1 <0>        -0.9344
      5 C2          0.8454   -0.4373   -1.4831 C.ar      1 <0>        -0.6507
      6 C3          0.1311   -0.6120   -2.6551 C.ar      1 <0>        -0.0191
      7 C4          0.7855   -0.9513   -3.8213 C.ar      1 <0>        -0.1184
      8 C5          2.1708   -1.1177   -3.8172 C.ar      1 <0>        -0.0043
      9 C6          2.8855   -0.9397   -2.6322 C.ar      1 <0>        -0.1087
     10 C7          2.2199   -0.5958   -1.4737 C.ar      1 <0>        -0.0183
     11 C8          2.8793   -1.4822   -5.0648 C.2       1 <0>        -0.0188
     12 C9          2.6398   -2.7268   -5.6837 C.2       1 <0>         0.0898
     13 N1          3.2619   -3.0518   -6.7829 N.2       1 <0>        -0.2046
     14 N2          4.1809   -2.1859   -7.3827 N.am      1 <0>        -0.4064
     15 C10         4.4506   -0.9833   -6.8373 C.2       1 <0>         0.5086
     16 O3          5.2537   -0.2331   -7.3672 O.2       1 <0>        -0.5100
     17 C11         3.7880   -0.5956   -5.6457 C.2       1 <0>        -0.0726
     18 C12         4.0581    0.7208   -5.0267 C.ar      1 <0>        -0.0520
     19 C13         3.0449    1.6770   -4.9444 C.ar      1 <0>        -0.0634
     20 C14         3.3019    2.9024   -4.3660 C.ar      1 <0>        -0.1533
     21 C15         4.5636    3.1849   -3.8670 C.ar      1 <0>         0.1116
     22 C16         5.5733    2.2389   -3.9463 C.ar      1 <0>        -0.1505
     23 C17         5.3255    1.0085   -4.5180 C.ar      1 <0>        -0.0534
     24 F1          4.8103    4.3869   -3.3018 F         1 <0>        -0.1355
     25 C18         4.8584   -2.5901   -8.6172 C.3       1 <0>         0.2128
     26 C19         6.1376   -3.3098   -8.2756 C.2       1 <0>        -0.1852
     27 C20         6.3439   -4.6341   -8.0727 C.2       1 <0>        -0.1243
     28 C21         7.6178   -5.0749   -7.7671 C.2       1 <0>        -0.1660
     29 C22         8.6232   -4.1699   -7.6793 C.2       1 <0>        -0.1680
     30 S2          7.7760   -2.6406   -8.0409 S.3       1 <0>         0.0696
     31 H1          1.0001    2.1870    0.0043 H         1 <0>         0.1323
     32 H2         -0.5497    2.1708   -0.8711 H         1 <0>         0.1324
     33 H3         -0.5327    2.1613    0.9088 H         1 <0>         0.1349
     34 H4         -0.9412   -0.4829   -2.6569 H         1 <0>         0.1486
     35 H5          0.2267   -1.0881   -4.7353 H         1 <0>         0.1394
     36 H6          3.9579   -1.0675   -2.6225 H         1 <0>         0.1347
     37 H7          2.7724   -0.4537   -0.5566 H         1 <0>         0.1473
     38 H8          1.9354   -3.4169   -5.2433 H         1 <0>         0.1992
     39 H9          2.0614    1.4580   -5.3332 H         1 <0>         0.1325
     40 H10         2.5186    3.6432   -4.3020 H         1 <0>         0.1404
     41 H11         6.5549    2.4642   -3.5563 H         1 <0>         0.1414
     42 H12         6.1118    0.2704   -4.5752 H         1 <0>         0.1332
     43 H13         4.2089   -3.2542   -9.1874 H         1 <0>         0.1203
     44 H14         5.0868   -1.7060   -9.2125 H         1 <0>         0.1175
     45 H15         5.5251   -5.3342   -8.1483 H         1 <0>         0.1363
     46 H16         7.8093   -6.1246   -7.6004 H         1 <0>         0.1357
     47 H17         9.6667   -4.3324   -7.4533 H         1 <0>         0.1871
@<TRIPOS>BOND
     1    1    2 1
     2    1   31 1
     3    1   32 1
     4    1   33 1
     5    2    3 2
     6    2    4 2
     7    2    5 1
     8    5   10 ar
     9    5    6 ar
    10    6    7 ar
    11    6   34 1
    12    7    8 ar
    13    7   35 1
    14    8    9 ar
    15    8   11 1
    16    9   10 ar
    17    9   36 1
    18   10   37 1
    19   11   17 2
    20   11   12 1
    21   12   13 2
    22   12   38 1
    23   13   14 1
    24   14   15 am
    25   14   25 1
    26   15   16 2
    27   15   17 1
    28   17   18 1
    29   18   23 ar
    30   18   19 ar
    31   19   20 ar
    32   19   39 1
    33   20   21 ar
    34   20   40 1
    35   21   22 ar
    36   21   24 1
    37   22   23 ar
    38   22   41 1
    39   23   42 1
    40   25   26 1
    41   25   43 1
    42   25   44 1
    43   26   30 1
    44   26   27 2
    45   27   28 1
    46   27   45 1
    47   28   29 2
    48   28   46 1
    49   29   30 1
    50   29   47 1
@<TRIPOS>MOLECULE
CHEMBL266100
   48    49     0     0     0
SMALL
USER_CHARGES

@<TRIPOS>ATOM
      1 C1         -0.0187    1.5258    0.0104 C.3       1 <0>        -0.1474
      2 C2          0.0021   -0.0041    0.0020 C.3       1 <0>        -0.0212
      3 C3          0.7421   -0.5109    1.2415 C.3       1 <0>        -0.1419
      4 C4         -1.4333   -0.5336    0.0129 C.3       1 <0>        -0.1423
      5 C5          0.7074   -0.4901   -1.2379 C.ar      1 <0>        -0.0901
      6 C6          1.2148    0.4184   -2.1413 C.ar      1 <0>        -0.0970
      7 C7          1.8691   -0.0339   -3.2914 C.ar      1 <0>        -0.0619
      8 C8          2.0050   -1.4070   -3.5185 C.ar      1 <0>        -0.1034
      9 C9          1.4942   -2.3072   -2.6088 C.ar      1 <0>        -0.0897
     10 C10         0.8501   -1.8528   -1.4652 C.ar      1 <0>         0.1208
     11 O1          0.3530   -2.7445   -0.5685 O.3       1 <0>        -0.4851
     12 C11         1.6399   -3.7873   -2.8522 C.3       1 <0>        -0.0212
     13 C12         2.3868   -4.0167   -4.1677 C.3       1 <0>        -0.1478
     14 C13         2.4273   -4.4182   -1.7020 C.3       1 <0>        -0.1422
     15 C14         0.2537   -4.4296   -2.9340 C.3       1 <0>        -0.1422
     16 C15         2.4126    0.9324   -4.2603 C.2       1 <0>        -0.0911
     17 C16         3.0424    0.4943   -5.3673 C.2       1 <0>        -0.0714
     18 C17         3.5835    1.4562   -6.3319 C.2       1 <0>        -0.1184
     19 C18         4.2521    1.2183   -7.5208 C.2       1 <0>        -0.1510
     20 C19         4.6685    2.2988   -8.2637 C.2       1 <0>        -0.1544
     21 C20         4.4133    3.5543   -7.8123 C.2       1 <0>        -0.1776
     22 S1          3.5456    3.2406   -6.2842 S.3       1 <0>         0.0528
     23 H1          1.0039    1.9031    0.0027 H         1 <0>         0.0588
     24 H2         -0.5459    1.8868   -0.8726 H         1 <0>         0.0581
     25 H3         -0.5289    1.8773    0.9072 H         1 <0>         0.0599
     26 H4          0.2319   -0.1594    2.1383 H         1 <0>         0.0544
     27 H5          0.7568   -1.6008    1.2356 H         1 <0>         0.0751
     28 H6          1.7647   -0.1336    1.2338 H         1 <0>         0.0511
     29 H7         -1.9605   -0.1726   -0.8702 H         1 <0>         0.0543
     30 H8         -1.4185   -1.6235    0.0069 H         1 <0>         0.0581
     31 H9         -1.9435   -0.1821    0.9097 H         1 <0>         0.0609
     32 H10         1.1069    1.4778   -1.9616 H         1 <0>         0.1323
     33 H11         2.5092   -1.7613   -4.4054 H         1 <0>         0.1325
     34 H12        -0.5601   -3.0107   -0.7434 H         1 <0>         0.3817
     35 H13         3.3744   -3.5591   -4.1094 H         1 <0>         0.0584
     36 H14         2.4922   -5.0872   -4.3437 H         1 <0>         0.0604
     37 H15         1.8259   -3.5672   -4.9871 H         1 <0>         0.0577
     38 H16         1.8952   -4.2547   -0.7648 H         1 <0>         0.0755
     39 H17         2.5327   -5.4887   -1.8780 H         1 <0>         0.0544
     40 H18         3.4148   -3.9605   -1.6437 H         1 <0>         0.0510
     41 H19        -0.3072   -3.9802   -3.7535 H         1 <0>         0.0543
     42 H20         0.3592   -5.5002   -3.1101 H         1 <0>         0.0610
     43 H21        -0.2784   -4.2662   -1.9969 H         1 <0>         0.0580
     44 H22         2.3063    1.9925   -4.0833 H         1 <0>         0.1213
     45 H23         3.1487   -0.5658   -5.5443 H         1 <0>         0.1369
     46 H24         4.4423    0.2095   -7.8565 H         1 <0>         0.1357
     47 H25         5.1931    2.1504   -9.1960 H         1 <0>         0.1354
     48 H26         4.6670    4.5015   -8.2650 H         1 <0>         0.1866
@<TRIPOS>BOND
     1    1    2 1
     2    1   23 1
     3    1   24 1
     4    1   25 1
     5    2    3 1
     6    2    4 1
     7    2    5 1
     8    3   26 1
     9    3   27 1
    10    3   28 1
    11    4   29 1
    12    4   30 1
    13    4   31 1
    14    5   10 ar
    15    5    6 ar
    16    6    7 ar
    17    6   32 1
    18    7    8 ar
    19    7   16 1
    20    8    9 ar
    21    8   33 1
    22    9   10 ar
    23    9   12 1
    24   10   11 1
    25   11   34 1
    26   12   13 1
    27   12   14 1
    28   12   15 1
    29   13   35 1
    30   13   36 1
    31   13   37 1
    32   14   38 1
    33   14   39 1
    34   14   40 1
    35   15   41 1
    36   15   42 1
    37   15   43 1
    38   16   17 2
    39   16   44 1
    40   17   18 1
    41   17   45 1
    42   18   22 1
    43   18   19 2
    44   19   20 1
    45   19   46 1
    46   20   21 2
    47   20   47 1
    48   21   22 1
    49   21   48 1
@<TRIPOS>MOLECULE
CHEMBL109143
   36    38     0     0     0
SMALL
USER_CHARGES

@<TRIPOS>ATOM
      1 C1         -0.0184    1.5028    0.0103 C.3       1 <0>        -0.0692
      2 C2          0.0021   -0.0041    0.0020 C.2       1 <0>         0.0604
      3 N1         -1.0133   -0.8263    0.0020 N.2       1 <0>        -0.5139
      4 C3         -0.8373   -2.1416   -0.0059 C.2       1 <0>         0.1143
      5 C4          0.4619   -2.5828   -0.0140 C.2       1 <0>        -0.1685
      6 S1          1.3378   -1.0270   -0.0168 S.3       1 <0>         0.1500
      7 C5         -1.9785   -3.0801   -0.0056 C.2       1 <0>         0.3069
      8 N2         -1.8966   -4.3929   -0.0068 N.2       1 <0>        -0.4255
      9 C6         -3.1306   -4.9138   -0.0052 C.2       1 <0>        -0.0814
     10 C7         -4.0208   -3.9026   -0.0028 C.2       1 <0>         0.0383
     11 N3         -3.3007   -2.7332    0.0021 N.pl3     1 <0>        -0.4029
     12 C8         -3.8220   -1.4324    0.0107 C.ar      1 <0>         0.1713
     13 C9         -3.3556   -0.5021    0.9299 C.ar      1 <0>        -0.0700
     14 C10        -3.8713    0.7791    0.9359 C.ar      1 <0>        -0.0097
     15 C11        -4.8515    1.1357    0.0281 C.ar      1 <0>        -0.6655
     16 C12        -5.3181    0.2114   -0.8886 C.ar      1 <0>        -0.0089
     17 C13        -4.8018   -1.0696   -0.9036 C.ar      1 <0>        -0.1297
     18 S2         -5.5078    2.7708    0.0397 S.o2      1 <0>         2.7018
     19 O1         -6.7990    2.6944   -0.5487 O.2       1 <0>        -0.9587
     20 O2         -5.2958    3.2842    1.3476 O.2       1 <0>        -0.9582
     21 N4         -4.5749    3.6801   -0.9826 N.pl3     1 <0>        -1.2486
     22 C14        -3.4665   -6.3829   -0.0066 C.3       1 <0>         0.5575
     23 F1         -2.2894   -7.1305    0.1056 F         1 <0>        -0.1623
     24 F2         -4.3063   -6.6703    1.0747 F         1 <0>        -0.1704
     25 F3         -4.1157   -6.7117   -1.2015 F         1 <0>        -0.1707
     26 H1          1.0042    1.8801    0.0026 H         1 <0>         0.0904
     27 H2         -0.5455    1.8639   -0.8728 H         1 <0>         0.0931
     28 H3         -0.5286    1.8543    0.9071 H         1 <0>         0.0946
     29 H4          0.8477   -3.5915   -0.0208 H         1 <0>         0.2095
     30 H5         -5.0969   -3.9943   -0.0011 H         1 <0>         0.1997
     31 H6         -2.5905   -0.7802    1.6396 H         1 <0>         0.1383
     32 H7         -3.5089    1.5031    1.6506 H         1 <0>         0.1520
     33 H8         -6.0837    0.4928   -1.5964 H         1 <0>         0.1541
     34 H9         -5.1632   -1.7896   -1.6229 H         1 <0>         0.1417
     35 H10        -3.8277    3.2731   -1.4484 H         1 <0>         0.4170
     36 H11        -4.7757    4.6197   -1.1157 H         1 <0>         0.4230
@<TRIPOS>BOND
     1    1    2 1
     2    1   26 1
     3    1   27 1
     4    1   28 1
     5    2    6 1
     6    2    3 2
     7    3    4 1
     8    4    5 2
     9    4    7 1
    10    5    6 1
    11    5   29 1
    12    7   11 1
    13    7    8 2
    14    8    9 1
    15    9   10 2
    16    9   22 1
    17   10   11 1
    18   10   30 1
    19   11   12 1
    20   12   17 ar
    21   12   13 ar
    22   13   14 ar
    23   13   31 1
    24   14   15 ar
    25   14   32 1
    26   15   16 ar
    27   15   18 1
    28   16   17 ar
    29   16   33 1
    30   17   34 1
    31   18   19 2
    32   18   20 2
    33   18   21 1
    34   21   35 1
    35   21   36 1
    36   22   23 1
    37   22   24 1
    38   22   25 1
@<TRIPOS>MOLECULE
CHEMBL71986
   58    60     0     0     0
SMALL
USER_CHARGES

@<TRIPOS>ATOM
      1 C1         -0.0266    1.2276    0.8805 C.3       1 <0>        -0.1283
      2 C2          0.0540   -0.2499    0.5946 C.ar      1 <0>        -0.0100
      3 C3          1.0854   -0.7511   -0.1672 C.ar      1 <0>        -0.1374
      4 C4          1.1524   -2.1160   -0.4260 C.ar      1 <0>         0.1567
      5 C5          0.1835   -2.9746    0.0781 C.ar      1 <0>        -0.1154
      6 C6         -0.8488   -2.4887    0.8367 C.ar      1 <0>        -0.0055
      7 C7         -0.9162   -1.1187    1.1075 C.ar      1 <0>        -0.1828
      8 C8         -2.0100   -0.5820    1.9352 C.2       1 <0>         0.4000
      9 O1         -1.9813    0.5569    2.3515 O.2       1 <0>        -0.4529
     10 C9         -3.1721   -1.5015    2.2479 C.3       1 <0>        -0.1652
     11 C10        -2.5878   -2.8775    2.5939 C.3       1 <0>        -0.1132
     12 C11        -1.8838   -3.4470    1.3604 C.3       1 <0>        -0.0915
     13 C12         0.2684   -4.4510   -0.2119 C.3       1 <0>        -0.0029
     14 C13         1.6063   -4.7624   -0.8856 C.3       1 <0>        -0.1028
     15 C14         1.7606   -6.2770   -1.0374 C.3       1 <0>        -0.1252
     16 C15         3.0986   -6.5883   -1.7110 C.3       1 <0>        -0.1165
     17 C16         3.2529   -8.1030   -1.8629 C.3       1 <0>        -0.0926
     18 C17         4.5909   -8.4143   -2.5365 C.3       1 <0>        -0.1832
     19 C18         4.7429   -9.9061   -2.6860 C.2       1 <0>         0.4868
     20 O2          3.8626  -10.6513   -2.2905 O.co2     1 <0>        -0.6999
     21 O3          5.7461  -10.3680   -3.2026 O.co2     1 <0>        -0.7102
     22 C19        -0.8600   -4.8486   -1.1284 C.ar      1 <0>        -0.0736
     23 C20        -1.0325   -4.1960   -2.3348 C.ar      1 <0>        -0.0765
     24 C21        -2.0666   -4.5600   -3.1763 C.ar      1 <0>        -0.1518
     25 C22        -2.9300   -5.5787   -2.8106 C.ar      1 <0>         0.0926
     26 C23        -2.7563   -6.2316   -1.6020 C.ar      1 <0>        -0.1507
     27 C24        -1.7183   -5.8694   -0.7646 C.ar      1 <0>        -0.0865
     28 F1         -3.9416   -5.9351   -3.6322 F         1 <0>        -0.1428
     29 O4          2.1692   -2.6115   -1.1750 O.3       1 <0>        -0.4843
     30 C25         2.1376    0.1759   -0.7192 C.3       1 <0>        -0.1139
     31 H1          0.5207    1.4508    1.7963 H         1 <0>         0.0767
     32 H2          0.4115    1.7826    0.0509 H         1 <0>         0.0659
     33 H3         -1.0703    1.5179    1.0009 H         1 <0>         0.0905
     34 H4         -3.7338   -1.1131    3.0974 H         1 <0>         0.0929
     35 H5         -3.8239   -1.5839    1.3781 H         1 <0>         0.1010
     36 H6         -1.8754   -2.7745    3.4124 H         1 <0>         0.0705
     37 H7         -3.3922   -3.5491    2.8939 H         1 <0>         0.0815
     38 H8         -2.6163   -3.6443    0.5777 H         1 <0>         0.0902
     39 H9         -1.3971   -4.3824    1.6366 H         1 <0>         0.0866
     40 H10         0.1926   -5.0095    0.7210 H         1 <0>         0.0903
     41 H11         1.6356   -4.2938   -1.8693 H         1 <0>         0.0920
     42 H12         2.4203   -4.3738   -0.2736 H         1 <0>         0.0607
     43 H13         1.7314   -6.7456   -0.0537 H         1 <0>         0.0561
     44 H14         0.9466   -6.6656   -1.6493 H         1 <0>         0.0605
     45 H15         3.1279   -6.1197   -2.6947 H         1 <0>         0.0543
     46 H16         3.9126   -6.1997   -1.0991 H         1 <0>         0.0523
     47 H17         3.2236   -8.5716   -0.8792 H         1 <0>         0.0559
     48 H18         2.4389   -8.4916   -2.4748 H         1 <0>         0.0562
     49 H19         4.6202   -7.9457   -3.5202 H         1 <0>         0.0536
     50 H20         5.4049   -8.0257   -1.9245 H         1 <0>         0.0533
     51 H21        -0.3591   -3.4011   -2.6197 H         1 <0>         0.1302
     52 H22        -2.2014   -4.0497   -4.1186 H         1 <0>         0.1320
     53 H23        -3.4294   -7.0262   -1.3156 H         1 <0>         0.1344
     54 H24        -1.5799   -6.3815    0.1761 H         1 <0>         0.1324
     55 H25         2.9794   -2.7813   -0.6752 H         1 <0>         0.3946
     56 H26         2.9541    0.2663   -0.0028 H         1 <0>         0.0690
     57 H27         2.5202   -0.2263   -1.6573 H         1 <0>         0.0745
     58 H28         1.6996    1.1581   -0.8967 H         1 <0>         0.0712
@<TRIPOS>BOND
     1    1    2 1
     2    1   31 1
     3    1   32 1
     4    1   33 1
     5    2    7 ar
     6    2    3 ar
     7    3    4 ar
     8    3   30 1
     9    4    5 ar
    10    4   29 1
    11    5    6 ar
    12    5   13 1
    13    6   12 1
    14    6    7 ar
    15    7    8 1
    16    8    9 2
    17    8   10 1
    18   10   11 1
    19   10   34 1
    20   10   35 1
    21   11   12 1
    22   11   36 1
    23   11   37 1
    24   12   38 1
    25   12   39 1
    26   13   14 1
    27   13   22 1
    28   13   40 1
    29   14   15 1
    30   14   41 1
    31   14   42 1
    32   15   16 1
    33   15   43 1
    34   15   44 1
    35   16   17 1
    36   16   45 1
    37   16   46 1
    38   17   18 1
    39   17   47 1
    40   17   48 1
    41   18   19 1
    42   18   49 1
    43   18   50 1
    44   19   20 2
    45   19   21 1
    46   22   27 ar
    47   22   23 ar
    48   23   24 ar
    49   23   51 1
    50   24   25 ar
    51   24   52 1
    52   25   26 ar
    53   25   28 1
    54   26   27 ar
    55   26   53 1
    56   27   54 1
    57   29   55 1
    58   30   56 1
    59   30   57 1
    60   30   58 1
@<TRIPOS>MOLECULE
CHEMBL71986__1
   58    60     0     0     0
SMALL
USER_CHARGES

@<TRIPOS>ATOM
      1 C1         -0.7932    1.2904   -1.2406 C.3       1 <0>        -0.1282
      2 C2         -0.5740   -0.1589   -0.8904 C.ar      1 <0>        -0.0104
      3 C3         -0.8720   -1.1436   -1.8052 C.ar      1 <0>        -0.1342
      4 C4         -0.6664   -2.4786   -1.4740 C.ar      1 <0>         0.1525
      5 C5         -0.1644   -2.8230   -0.2251 C.ar      1 <0>        -0.1115
      6 C6          0.1352   -1.8529    0.6950 C.ar      1 <0>        -0.0081
      7 C7         -0.0610   -0.5087    0.3640 C.ar      1 <0>        -0.1803
      8 C8          0.2716    0.5476    1.3352 C.2       1 <0>         0.3999
      9 O1          0.3044    1.7147    1.0065 O.2       1 <0>        -0.4521
     10 C9          0.5707    0.1257    2.7588 C.3       1 <0>        -0.1653
     11 C10         1.4589   -1.1236    2.6897 C.3       1 <0>        -0.1120
     12 C11         0.6707   -2.2629    2.0399 C.3       1 <0>        -0.0938
     13 C12         0.0516   -4.2739    0.1203 C.3       1 <0>        -0.0060
     14 C13        -1.0553   -5.1192   -0.5131 C.3       1 <0>        -0.1180
     15 C14        -0.9083   -6.5735   -0.0611 C.3       1 <0>        -0.1201
     16 C15        -2.0152   -7.4187   -0.6945 C.3       1 <0>        -0.1172
     17 C16        -1.8682   -8.8731   -0.2425 C.3       1 <0>        -0.0920
     18 C17        -2.9751   -9.7183   -0.8759 C.3       1 <0>        -0.1836
     19 C18        -2.8302  -11.1508   -0.4307 C.2       1 <0>         0.4872
     20 O2         -1.9255  -11.4664    0.3232 O.co2     1 <0>        -0.7001
     21 O3         -3.6178  -11.9941   -0.8245 O.co2     1 <0>        -0.7102
     22 C19         1.3901   -4.7220   -0.4076 C.ar      1 <0>        -0.0687
     23 C20         1.8178   -4.3004   -1.6528 C.ar      1 <0>        -0.0916
     24 C21         3.0453   -4.7103   -2.1377 C.ar      1 <0>        -0.1497
     25 C22         3.8468   -5.5435   -1.3759 C.ar      1 <0>         0.0918
     26 C23         3.4174   -5.9652   -0.1289 C.ar      1 <0>        -0.1446
     27 C24         2.1918   -5.5497    0.3561 C.ar      1 <0>        -0.0843
     28 F1          5.0468   -5.9453   -1.8491 F         1 <0>        -0.1417
     29 O4         -0.9580   -3.4499   -2.3751 O.3       1 <0>        -0.4779
     30 C25        -1.4196   -0.7763   -3.1603 C.3       1 <0>        -0.1150
     31 H1          0.1090    1.6935   -1.7006 H         1 <0>         0.0768
     32 H2         -1.6256    1.3734   -1.9395 H         1 <0>         0.0665
     33 H3         -1.0217    1.8524   -0.3351 H         1 <0>         0.0911
     34 H4          1.0965    0.9258    3.2797 H         1 <0>         0.0933
     35 H5         -0.3582   -0.1084    3.2788 H         1 <0>         0.1023
     36 H6          2.3486   -0.9050    2.0993 H         1 <0>         0.0702
     37 H7          1.7537   -1.4163    3.6975 H         1 <0>         0.0823
     38 H8         -0.1613   -2.5479    2.6837 H         1 <0>         0.0906
     39 H9          1.3334   -3.1192    1.9144 H         1 <0>         0.0881
     40 H10         0.0283   -4.3970    1.2030 H         1 <0>         0.0919
     41 H11        -2.0275   -4.7380   -0.2004 H         1 <0>         0.0629
     42 H12        -0.9766   -5.0664   -1.5989 H         1 <0>         0.0997
     43 H13         0.0639   -6.9546   -0.3739 H         1 <0>         0.0609
     44 H14        -0.9871   -6.6262    1.0247 H         1 <0>         0.0559
     45 H15        -2.9874   -7.0376   -0.3818 H         1 <0>         0.0530
     46 H16        -1.9364   -7.3660   -1.7803 H         1 <0>         0.0539
     47 H17        -0.8960   -9.2542   -0.5553 H         1 <0>         0.0561
     48 H18        -1.9469   -8.9258    0.8433 H         1 <0>         0.0560
     49 H19        -3.9472   -9.3372   -0.5632 H         1 <0>         0.0535
     50 H20        -2.8963   -9.6656   -1.9617 H         1 <0>         0.0536
     51 H21         1.1923   -3.6507   -2.2469 H         1 <0>         0.1189
     52 H22         3.3791   -4.3810   -3.1106 H         1 <0>         0.1329
     53 H23         4.0416   -6.6154    0.4660 H         1 <0>         0.1365
     54 H24         1.8586   -5.8749    1.3306 H         1 <0>         0.1352
     55 H25        -0.2523   -3.6179   -3.0145 H         1 <0>         0.3862
     56 H26        -0.5951   -0.6322   -3.8585 H         1 <0>         0.0690
     57 H27        -2.0651   -1.5773   -3.5207 H         1 <0>         0.0754
     58 H28        -1.9947    0.1463   -3.0819 H         1 <0>         0.0726
@<TRIPOS>BOND
     1    1    2 1
     2    1   31 1
     3    1   32 1
     4    1   33 1
     5    2    7 ar
     6    2    3 ar
     7    3    4 ar
     8    3   30 1
     9    4    5 ar
    10    4   29 1
    11    5    6 ar
    12    5   13 1
    13    6   12 1
    14    6    7 ar
    15    7    8 1
    16    8    9 2
    17    8   10 1
    18   10   11 1
    19   10   34 1
    20   10   35 1
    21   11   12 1
    22   11   36 1
    23   11   37 1
    24   12   38 1
    25   12   39 1
    26   13   14 1
    27   13   22 1
    28   13   40 1
    29   14   15 1
    30   14   41 1
    31   14   42 1
    32   15   16 1
    33   15   43 1
    34   15   44 1
    35   16   17 1
    36   16   45 1
    37   16   46 1
    38   17   18 1
    39   17   47 1
    40   17   48 1
    41   18   19 1
    42   18   49 1
    43   18   50 1
    44   19   20 2
    45   19   21 1
    46   22   27 ar
    47   22   23 ar
    48   23   24 ar
    49   23   51 1
    50   24   25 ar
    51   24   52 1
    52   25   26 ar
    53   25   28 1
    54   26   27 ar
    55   26   53 1
    56   27   54 1
    57   29   55 1
    58   30   56 1
    59   30   57 1
    60   30   58 1
@<TRIPOS>MOLECULE
CHEMBL308398
   56    57     0     0     0
SMALL
USER_CHARGES

@<TRIPOS>ATOM
      1 C1          1.7358    1.2305   -1.4779 C.3       1 <0>        -0.1204
      2 C2          1.3716   -0.1761   -1.0780 C.ar      1 <0>        -0.0522
      3 C3          1.9492   -1.2499   -1.7279 C.ar      1 <0>        -0.1244
      4 C4          1.6139   -2.5444   -1.3591 C.ar      1 <0>         0.1255
      5 C5          0.6990   -2.7574   -0.3379 C.ar      1 <0>        -0.0990
      6 C6          0.1244   -1.6805    0.3087 C.ar      1 <0>        -0.0435
      7 C7          0.4643   -0.3910   -0.0574 C.ar      1 <0>        -0.1007
      8 C8         -0.1594    0.7820    0.6540 C.3       1 <0>         0.1163
      9 O1         -1.3642    1.1594   -0.0155 O.3       1 <0>        -0.5641
     10 C9         -0.8694   -1.9111    1.4178 C.3       1 <0>        -0.1236
     11 C10         0.3321   -4.1624    0.0650 C.3       1 <0>        -0.0026
     12 C11         1.5959   -5.0227    0.1233 C.3       1 <0>        -0.1144
     13 C12         1.3079   -6.2992    0.9161 C.3       1 <0>        -0.1196
     14 C13         2.5717   -7.1595    0.9744 C.3       1 <0>        -0.1181
     15 C14         2.2836   -8.4360    1.7672 C.3       1 <0>        -0.0926
     16 C15         3.5475   -9.2963    1.8255 C.3       1 <0>        -0.1835
     17 C16         3.2638  -10.5536    2.6064 C.2       1 <0>         0.4873
     18 O2          2.1536  -10.7439    3.0731 O.co2     1 <0>        -0.6999
     19 O3          4.1444  -11.3805    2.7715 O.co2     1 <0>        -0.7102
     20 C17        -0.6237   -4.7416   -0.9460 C.ar      1 <0>        -0.0760
     21 C18        -0.4696   -4.4495   -2.2885 C.ar      1 <0>        -0.0780
     22 C19        -1.3451   -4.9804   -3.2166 C.ar      1 <0>        -0.1567
     23 C20        -2.3770   -5.8051   -2.8015 C.ar      1 <0>         0.0902
     24 C21        -2.5303   -6.0968   -1.4567 C.ar      1 <0>        -0.1540
     25 C22        -1.6504   -5.5690   -0.5309 C.ar      1 <0>        -0.0857
     26 F1         -3.2338   -6.3243   -3.7078 F         1 <0>        -0.1445
     27 O4          2.1803   -3.6022   -1.9971 O.3       1 <0>        -0.4877
     28 C23         2.9422   -1.0150   -2.8369 C.3       1 <0>        -0.1139
     29 H1          2.5922    1.5645   -0.8921 H         1 <0>         0.0704
     30 H2          1.9896    1.2527   -2.5377 H         1 <0>         0.0716
     31 H3          0.8891    1.8915   -1.2931 H         1 <0>         0.0705
     32 H4         -0.3875    0.5036    1.6829 H         1 <0>         0.0563
     33 H5          0.5364    1.6210    0.6503 H         1 <0>         0.0545
     34 H6         -1.8202    1.9101    0.3888 H         1 <0>         0.3777
     35 H7         -0.3394   -2.0171    2.3644 H         1 <0>         0.0735
     36 H8         -1.5517   -1.0631    1.4765 H         1 <0>         0.0716
     37 H9         -1.4360   -2.8200    1.2149 H         1 <0>         0.0736
     38 H10        -0.1424   -4.1468    1.0462 H         1 <0>         0.0911
     39 H11         1.9037   -5.2854   -0.8889 H         1 <0>         0.0838
     40 H12         2.3938   -4.4637    0.6121 H         1 <0>         0.0604
     41 H13         1.0001   -6.0366    1.9283 H         1 <0>         0.0586
     42 H14         0.5100   -6.8582    0.4273 H         1 <0>         0.0631
     43 H15         2.8795   -7.4221   -0.0378 H         1 <0>         0.0543
     44 H16         3.3696   -6.6005    1.4632 H         1 <0>         0.0529
     45 H17         1.9759   -8.1734    2.7794 H         1 <0>         0.0566
     46 H18         1.4858   -8.9950    1.2784 H         1 <0>         0.0571
     47 H19         3.8552   -9.5589    0.8134 H         1 <0>         0.0538
     48 H20         4.3454   -8.7373    2.3143 H         1 <0>         0.0534
     49 H21         0.3352   -3.8060   -2.6120 H         1 <0>         0.1483
     50 H22        -1.2248   -4.7519   -4.2652 H         1 <0>         0.1296
     51 H23        -3.3350   -6.7397   -1.1317 H         1 <0>         0.1335
     52 H24        -1.7671   -5.8001    0.5176 H         1 <0>         0.1320
     53 H25         3.0574   -3.8381   -1.6652 H         1 <0>         0.3885
     54 H26         3.9475   -0.9611   -2.4190 H         1 <0>         0.0678
     55 H27         2.8894   -1.8361   -3.5518 H         1 <0>         0.0725
     56 H28         2.7079   -0.0779   -3.3419 H         1 <0>         0.0692
@<TRIPOS>BOND
     1    1    2 1
     2    1   29 1
     3    1   30 1
     4    1   31 1
     5    2    7 ar
     6    2    3 ar
     7    3    4 ar
     8    3   28 1
     9    4    5 ar
    10    4   27 1
    11    5    6 ar
    12    5   11 1
    13    6    7 ar
    14    6   10 1
    15    7    8 1
    16    8    9 1
    17    8   32 1
    18    8   33 1
    19    9   34 1
    20   10   35 1
    21   10   36 1
    22   10   37 1
    23   11   12 1
    24   11   20 1
    25   11   38 1
    26   12   13 1
    27   12   39 1
    28   12   40 1
    29   13   14 1
    30   13   41 1
    31   13   42 1
    32   14   15 1
    33   14   43 1
    34   14   44 1
    35   15   16 1
    36   15   45 1
    37   15   46 1
    38   16   17 1
    39   16   47 1
    40   16   48 1
    41   17   18 2
    42   17   19 1
    43   20   25 ar
    44   20   21 ar
    45   21   22 ar
    46   21   49 1
    47   22   23 ar
    48   22   50 1
    49   23   24 ar
    50   23   26 1
    51   24   25 ar
    52   24   51 1
    53   25   52 1
    54   27   53 1
    55   28   54 1
    56   28   55 1
    57   28   56 1
@<TRIPOS>MOLECULE
CHEMBL308398__1
   56    57     0     0     0
SMALL
USER_CHARGES

@<TRIPOS>ATOM
      1 C1         -0.2121    1.4841   -0.2533 C.3       1 <0>        -0.1203
      2 C2         -0.1622   -0.0216   -0.2912 C.ar      1 <0>        -0.0527
      3 C3         -0.5851   -0.6981   -1.4192 C.ar      1 <0>        -0.1226
      4 C4         -0.5385   -2.0840   -1.4536 C.ar      1 <0>         0.1251
      5 C5         -0.0670   -2.7874   -0.3544 C.ar      1 <0>        -0.0954
      6 C6          0.3546   -2.1064    0.7709 C.ar      1 <0>        -0.0449
      7 C7          0.3120   -0.7245    0.8007 C.ar      1 <0>        -0.1004
      8 C8          0.7784    0.0162    2.0274 C.3       1 <0>         0.1171
      9 O1         -0.3212    0.1962    2.9220 O.3       1 <0>        -0.5636
     10 C9          0.8667   -2.8698    1.9650 C.3       1 <0>        -0.1232
     11 C10        -0.0155   -4.2932   -0.3882 C.3       1 <0>        -0.0075
     12 C11        -1.1979   -4.8259   -1.1999 C.3       1 <0>        -0.1179
     13 C12        -1.2169   -6.3542   -1.1305 C.3       1 <0>        -0.1190
     14 C13        -2.3994   -6.8869   -1.9423 C.3       1 <0>        -0.1169
     15 C14        -2.4184   -8.4152   -1.8729 C.3       1 <0>        -0.0921
     16 C15        -3.6008   -8.9479   -2.6846 C.3       1 <0>        -0.1835
     17 C16        -3.6195  -10.4533   -2.6163 C.2       1 <0>         0.4875
     18 O2         -2.7662  -11.0452   -1.9775 O.co2     1 <0>        -0.7002
     19 O3         -4.4880  -11.0792   -3.1997 O.co2     1 <0>        -0.7106
     20 C17         1.2743   -4.7374   -1.0286 C.ar      1 <0>        -0.0646
     21 C18         1.5900   -4.3194   -2.3080 C.ar      1 <0>        -0.0899
     22 C19         2.7727   -4.7258   -2.8962 C.ar      1 <0>        -0.1498
     23 C20         3.6416   -5.5519   -2.2036 C.ar      1 <0>         0.0900
     24 C21         3.3244   -5.9698   -0.9223 C.ar      1 <0>        -0.1467
     25 C22         2.1436   -5.5579   -0.3341 C.ar      1 <0>        -0.0868
     26 F1          4.7979   -5.9501   -2.7778 F         1 <0>        -0.1425
     27 O4         -0.9543   -2.7517   -2.5618 O.3       1 <0>        -0.4783
     28 C23        -1.0971    0.0690   -2.6111 C.3       1 <0>        -0.1146
     29 H1          0.7271    1.8884   -0.6308 H         1 <0>         0.0698
     30 H2         -1.0352    1.8361   -0.8752 H         1 <0>         0.0720
     31 H3         -0.3644    1.8169    0.7734 H         1 <0>         0.0706
     32 H4          1.5602   -0.5589    2.5237 H         1 <0>         0.0553
     33 H5          1.1729    0.9896    1.7360 H         1 <0>         0.0541
     34 H6         -0.0936    0.6670    3.7354 H         1 <0>         0.3778
     35 H7          1.9478   -2.9850    1.8863 H         1 <0>         0.0720
     36 H8          0.6250   -2.3232    2.8766 H         1 <0>         0.0716
     37 H9          0.3978   -3.8533    1.9960 H         1 <0>         0.0745
     38 H10        -0.0687   -4.6814    0.6289 H         1 <0>         0.0908
     39 H11        -2.1275   -4.4319   -0.7891 H         1 <0>         0.0623
     40 H12        -1.0972   -4.5105   -2.2384 H         1 <0>         0.0988
     41 H13        -0.2873   -6.7481   -1.5413 H         1 <0>         0.0592
     42 H14        -1.3177   -6.6695   -0.0920 H         1 <0>         0.0552
     43 H15        -3.3290   -6.4930   -1.5315 H         1 <0>         0.0530
     44 H16        -2.2986   -6.5716   -2.9808 H         1 <0>         0.0538
     45 H17        -1.4888   -8.8092   -2.2837 H         1 <0>         0.0559
     46 H18        -2.5191   -8.7305   -0.8344 H         1 <0>         0.0559
     47 H19        -4.5304   -8.5540   -2.2738 H         1 <0>         0.0536
     48 H20        -3.5001   -8.6326   -3.7231 H         1 <0>         0.0535
     49 H21         0.9119   -3.6754   -2.8482 H         1 <0>         0.1235
     50 H22         3.0189   -4.3994   -3.8958 H         1 <0>         0.1334
     51 H23         4.0013   -6.6144   -0.3812 H         1 <0>         0.1347
     52 H24         1.8980   -5.8802    0.6670 H         1 <0>         0.1324
     53 H25        -0.2848   -2.8160   -3.2566 H         1 <0>         0.3801
     54 H26        -0.2675    0.2959   -3.2808 H         1 <0>         0.0669
     55 H27        -1.8368   -0.5321   -3.1397 H         1 <0>         0.0736
     56 H28        -1.5571    0.9982   -2.2748 H         1 <0>         0.0700
@<TRIPOS>BOND
     1    1    2 1
     2    1   29 1
     3    1   30 1
     4    1   31 1
     5    2    7 ar
     6    2    3 ar
     7    3    4 ar
     8    3   28 1
     9    4    5 ar
    10    4   27 1
    11    5    6 ar
    12    5   11 1
    13    6    7 ar
    14    6   10 1
    15    7    8 1
    16    8    9 1
    17    8   32 1
    18    8   33 1
    19    9   34 1
    20   10   35 1
    21   10   36 1
    22   10   37 1
    23   11   12 1
    24   11   20 1
    25   11   38 1
    26   12   13 1
    27   12   39 1
    28   12   40 1
    29   13   14 1
    30   13   41 1
    31   13   42 1
    32   14   15 1
    33   14   43 1
    34   14   44 1
    35   15   16 1
    36   15   45 1
    37   15   46 1
    38   16   17 1
    39   16   47 1
    40   16   48 1
    41   17   18 2
    42   17   19 1
    43   20   25 ar
    44   20   21 ar
    45   21   22 ar
    46   21   49 1
    47   22   23 ar
    48   22   50 1
    49   23   24 ar
    50   23   26 1
    51   24   25 ar
    52   24   51 1
    53   25   52 1
    54   27   53 1
    55   28   54 1
    56   28   55 1
    57   28   56 1
@<TRIPOS>MOLECULE
CHEMBL563
   30    31     0     0     0
SMALL
USER_CHARGES

@<TRIPOS>ATOM
      1 C1         -0.0187    1.5258    0.0104 C.3       1 <0>        -0.1123
      2 C2          0.0021   -0.0041    0.0020 C.3       1 <0>        -0.1372
      3 C3         -1.4117   -0.5257    0.0127 C.ar      1 <0>         0.0096
      4 C4         -2.2575   -0.2023    1.0588 C.ar      1 <0>        -0.1207
      5 C5         -3.5534   -0.6764    1.0751 C.ar      1 <0>        -0.0755
      6 C6         -4.0110   -1.4830    0.0352 C.ar      1 <0>        -0.1119
      7 C7         -3.1547   -1.8067   -1.0178 C.ar      1 <0>         0.1090
      8 C8         -1.8600   -1.3208   -1.0256 C.ar      1 <0>        -0.1553
      9 F1         -3.5908   -2.5885   -2.0296 F         1 <0>        -0.1417
     10 C9         -5.4031   -1.9960    0.0477 C.ar      1 <0>        -0.0315
     11 C10        -5.9081   -2.6202    1.1867 C.ar      1 <0>        -0.1062
     12 C11        -7.2038   -3.0955    1.1928 C.ar      1 <0>        -0.1206
     13 C12        -8.0007   -2.9533    0.0711 C.ar      1 <0>        -0.1254
     14 C13        -7.5046   -2.3345   -1.0621 C.ar      1 <0>        -0.1207
     15 C14        -6.2122   -1.8502   -1.0774 C.ar      1 <0>        -0.1033
     16 C15         0.7309   -0.5033    1.2229 C.2       1 <0>         0.5028
     17 O1          1.1912    0.2909    2.0254 O.co2     1 <0>        -0.6890
     18 O2          0.8604   -1.7014    1.4082 O.co2     1 <0>        -0.6916
     19 H1          1.0039    1.9031    0.0027 H         1 <0>         0.0571
     20 H2         -0.5459    1.8868   -0.8726 H         1 <0>         0.0344
     21 H3         -0.5289    1.8773    0.9072 H         1 <0>         0.0551
     22 H4          0.5123   -0.3556   -0.8948 H         1 <0>         0.0737
     23 H5         -1.9025    0.4226    1.8650 H         1 <0>         0.1313
     24 H6         -4.2117   -0.4230    1.8929 H         1 <0>         0.1285
     25 H7         -1.1968   -1.5664   -1.8418 H         1 <0>         0.1321
     26 H8         -5.2866   -2.7321    2.0628 H         1 <0>         0.1256
     27 H9         -7.5961   -3.5798    2.0748 H         1 <0>         0.1221
     28 H10        -9.0139   -3.3270    0.0802 H         1 <0>         0.1192
     29 H11        -8.1310   -2.2263   -1.9352 H         1 <0>         0.1211
     30 H12        -5.8275   -1.3630   -1.9610 H         1 <0>         0.1214
@<TRIPOS>BOND
     1    1    2 1
     2    1   19 1
     3    1   20 1
     4    1   21 1
     5    2    3 1
     6    2   16 1
     7    2   22 1
     8    3    8 ar
     9    3    4 ar
    10    4    5 ar
    11    4   23 1
    12    5    6 ar
    13    5   24 1
    14    6    7 ar
    15    6   10 1
    16    7    8 ar
    17    7    9 1
    18    8   25 1
    19   10   15 ar
    20   10   11 ar
    21   11   12 ar
    22   11   26 1
    23   12   13 ar
    24   12   27 1
    25   13   14 ar
    26   13   28 1
    27   14   15 ar
    28   14   29 1
    29   15   30 1
    30   16   17 2
    31   16   18 1
@<TRIPOS>MOLECULE
CHEMBL563__1
   30    31     0     0     0
SMALL
USER_CHARGES

@<TRIPOS>ATOM
      1 C1         -0.0187    1.5258    0.0104 C.3       1 <0>        -0.1183
      2 C2          0.0021   -0.0041    0.0020 C.3       1 <0>        -0.1370
      3 C3          0.7309   -0.5033    1.2229 C.ar      1 <0>         0.0073
      4 C4          0.2601   -0.1853    2.4844 C.ar      1 <0>        -0.0880
      5 C5          0.9225   -0.6390    3.6068 C.ar      1 <0>        -0.0817
      6 C6          2.0685   -1.4194    3.4690 C.ar      1 <0>        -0.1103
      7 C7          2.5399   -1.7378    2.1948 C.ar      1 <0>         0.1022
      8 C8          1.8641   -1.2819    1.0778 C.ar      1 <0>        -0.1615
      9 F1          3.6506   -2.4936    2.0529 F         1 <0>        -0.1439
     10 C9          2.7850   -1.9096    4.6721 C.ar      1 <0>        -0.0298
     11 C10         3.1179   -1.0254    5.6964 C.ar      1 <0>        -0.1080
     12 C11         3.7844   -1.4868    6.8134 C.ar      1 <0>        -0.1220
     13 C12         4.1220   -2.8241    6.9172 C.ar      1 <0>        -0.1263
     14 C13         3.7941   -3.7063    5.9035 C.ar      1 <0>        -0.1198
     15 C14         3.1225   -3.2569    4.7846 C.ar      1 <0>        -0.1023
     16 C15        -1.4117   -0.5257    0.0127 C.2       1 <0>         0.5011
     17 O1         -2.1751   -0.2365   -0.8929 O.co2     1 <0>        -0.6947
     18 O2         -1.7922   -1.2369    0.9270 O.co2     1 <0>        -0.6849
     19 H1          1.0039    1.9031    0.0027 H         1 <0>         0.0416
     20 H2         -0.5459    1.8868   -0.8726 H         1 <0>         0.0623
     21 H3         -0.5289    1.8773    0.9072 H         1 <0>         0.0493
     22 H4          0.5123   -0.3556   -0.8948 H         1 <0>         0.0739
     23 H5         -0.6280    0.4200    2.5911 H         1 <0>         0.1280
     24 H6          0.5534   -0.3893    4.5905 H         1 <0>         0.1264
     25 H7          2.2246   -1.5307    0.0906 H         1 <0>         0.1290
     26 H8          2.8550    0.0191    5.6162 H         1 <0>         0.1240
     27 H9          4.0432   -0.8023    7.6077 H         1 <0>         0.1211
     28 H10         4.6439   -3.1809    7.7929 H         1 <0>         0.1188
     29 H11         4.0605   -4.7494    5.9896 H         1 <0>         0.1212
     30 H12         2.8627   -3.9474    3.9959 H         1 <0>         0.1224
@<TRIPOS>BOND
     1    1    2 1
     2    1   19 1
     3    1   20 1
     4    1   21 1
     5    2    3 1
     6    2   16 1
     7    2   22 1
     8    3    8 ar
     9    3    4 ar
    10    4    5 ar
    11    4   23 1
    12    5    6 ar
    13    5   24 1
    14    6    7 ar
    15    6   10 1
    16    7    8 ar
    17    7    9 1
    18    8   25 1
    19   10   15 ar
    20   10   11 ar
    21   11   12 ar
    22   11   26 1
    23   12   13 ar
    24   12   27 1
    25   13   14 ar
    26   13   28 1
    27   14   15 ar
    28   14   29 1
    29   15   30 1
    30   16   17 2
    31   16   18 1
@<TRIPOS>MOLECULE
CHEMBL270730
   45    47     0     0     0
SMALL
USER_CHARGES

@<TRIPOS>ATOM
      1 C1         -0.0178    1.4608    0.0101 C.3       1 <0>         0.0683
      2 N1          0.0021   -0.0041    0.0020 N.pl3     1 <0>        -0.4420
      3 C2          0.0082   -0.7923   -1.1104 C.2       1 <0>         0.0042
      4 C3          0.0273   -2.0811   -0.7139 C.2       1 <0>        -0.2023
      5 C4          0.0332   -2.0887    0.6950 C.2       1 <0>        -0.1605
      6 C5          0.0234   -0.8043    1.1057 C.2       1 <0>        -0.0249
      7 C6          0.0306   -0.3345    2.5376 C.3       1 <0>         0.1941
      8 N2          1.4067   -0.0492    2.9510 N.pl3     1 <0>        -0.6974
      9 C7          1.6650    0.3999    4.2360 C.ar      1 <0>         0.4546
     10 C8          0.6211    0.5787    5.1478 C.ar      1 <0>        -0.2434
     11 C9          0.9253    1.0283    6.4184 C.ar      1 <0>         0.1284
     12 N3          2.1876    1.2751    6.7335 N.ar      1 <0>        -0.5142
     13 C10         3.1583    1.0967    5.8485 C.ar      1 <0>         0.4091
     14 N4          2.9090    0.6615    4.6211 N.ar      1 <0>        -0.5475
     15 C11         4.5585    1.3856    6.2429 C.ar      1 <0>         0.0034
     16 C12         5.5937    1.2104    5.3263 C.ar      1 <0>        -0.0875
     17 C13         6.8947    1.4813    5.6986 C.ar      1 <0>        -0.0342
     18 C14         7.1723    1.9254    6.9789 C.ar      1 <0>        -0.6408
     19 C15         6.1489    2.1010    7.8928 C.ar      1 <0>        -0.0326
     20 C16         4.8435    1.8388    7.5297 C.ar      1 <0>        -0.0868
     21 S1          8.8359    2.2681    7.4475 S.o2      1 <0>         2.4985
     22 O1          8.8601    2.0874    8.8568 O.2       1 <0>        -0.9336
     23 O2          9.6279    1.4490    6.5984 O.2       1 <0>        -0.9344
     24 C17         9.0847    4.0176    7.0376 C.3       1 <0>        -0.6495
     25 C18        -0.1679    1.2361    7.4347 C.3       1 <0>         0.5261
     26 F1         -0.3646    0.0539    8.1564 F         1 <0>        -0.1635
     27 F2          0.1997    2.2622    8.3117 F         1 <0>        -0.1577
     28 F3         -1.3536    1.5852    6.7794 F         1 <0>        -0.1663
     29 H1          1.0048    1.8381    0.0023 H         1 <0>         0.0742
     30 H2         -0.5450    1.8219   -0.8730 H         1 <0>         0.0876
     31 H3         -0.5280    1.8123    0.9069 H         1 <0>         0.0822
     32 H4         -0.0011   -0.4446   -2.1329 H         1 <0>         0.1661
     33 H5          0.0364   -2.9480   -1.3579 H         1 <0>         0.1406
     34 H6          0.0477   -2.9626    1.3294 H         1 <0>         0.1392
     35 H7         -0.5705    0.5705    2.6260 H         1 <0>         0.0762
     36 H8         -0.3872   -1.1121    3.1771 H         1 <0>         0.0944
     37 H9          2.1371   -0.1746    2.3252 H         1 <0>         0.4157
     38 H10        -0.4004    0.3704    4.8655 H         1 <0>         0.1592
     39 H11         5.3782    0.8630    4.3266 H         1 <0>         0.1474
     40 H12         7.6977    1.3459    4.9891 H         1 <0>         0.1494
     41 H13         6.3714    2.4477    8.8911 H         1 <0>         0.1506
     42 H14         4.0447    1.9806    8.2426 H         1 <0>         0.1502
     43 H15         8.3746    4.6264    7.5972 H         1 <0>         0.1327
     44 H16        10.1011    4.3112    7.3001 H         1 <0>         0.1346
     45 H17         8.9280    4.1662    5.9692 H         1 <0>         0.1322
@<TRIPOS>BOND
     1    1    2 1
     2    1   29 1
     3    1   30 1
     4    1   31 1
     5    2    6 1
     6    2    3 1
     7    3    4 2
     8    3   32 1
     9    4    5 1
    10    4   33 1
    11    5    6 2
    12    5   34 1
    13    6    7 1
    14    7    8 1
    15    7   35 1
    16    7   36 1
    17    8    9 1
    18    8   37 1
    19    9   14 ar
    20    9   10 ar
    21   10   11 ar
    22   10   38 1
    23   11   12 ar
    24   11   25 1
    25   12   13 ar
    26   13   14 ar
    27   13   15 1
    28   15   20 ar
    29   15   16 ar
    30   16   17 ar
    31   16   39 1
    32   17   18 ar
    33   17   40 1
    34   18   19 ar
    35   18   21 1
    36   19   20 ar
    37   19   41 1
    38   20   42 1
    39   21   22 2
    40   21   23 2
    41   21   24 1
    42   24   43 1
    43   24   44 1
    44   24   45 1
    45   25   26 1
    46   25   27 1
    47   25   28 1
@<TRIPOS>MOLECULE
CHEMBL405123
   40    42     0     0     0
SMALL
USER_CHARGES

@<TRIPOS>ATOM
      1 C1         -0.0225    1.8097    0.0120 C.3       1 <0>        -0.6496
      2 S1          0.0021   -0.0041    0.0020 S.o2      1 <0>         2.4985
      3 O1          0.8352   -0.4880    1.0465 O.2       1 <0>        -0.9345
      4 O2         -1.3147   -0.5105   -0.1678 O.2       1 <0>        -0.9336
      5 C2          0.8454   -0.4373   -1.4831 C.ar      1 <0>        -0.6403
      6 C3          0.1315   -0.6121   -2.6550 C.ar      1 <0>        -0.0327
      7 C4          0.7868   -0.9515   -3.8212 C.ar      1 <0>        -0.0861
      8 C5          2.1706   -1.1181   -3.8167 C.ar      1 <0>         0.0026
      9 C6          2.8847   -0.9407   -2.6331 C.ar      1 <0>        -0.0871
     10 C7          2.2196   -0.5958   -1.4740 C.ar      1 <0>        -0.0342
     11 C8          2.8804   -1.4832   -5.0667 C.ar      1 <0>         0.4102
     12 N1          2.1831   -1.6426   -6.1832 N.ar      1 <0>        -0.5111
     13 C9          2.7813   -1.9684   -7.3184 C.ar      1 <0>         0.1300
     14 C10         4.1522   -2.1437   -7.3345 C.ar      1 <0>        -0.2417
     15 C11         4.8605   -1.9692   -6.1430 C.ar      1 <0>         0.4587
     16 N2          4.1968   -1.6370   -5.0412 N.ar      1 <0>        -0.5450
     17 N3          6.2357   -2.1352   -6.1121 N.pl3     1 <0>        -0.6978
     18 C12         6.9577   -2.4963   -7.3346 C.3       1 <0>         0.2158
     19 C13         8.4294   -2.6144   -7.0326 C.2       1 <0>         0.0077
     20 N4          9.1000   -3.6741   -6.6551 N.2       1 <0>        -0.4916
     21 C14        10.3970   -3.6197   -6.4268 C.2       1 <0>         0.0294
     22 C15        11.0025   -2.4171   -6.6009 C.2       1 <0>        -0.2112
     23 S2          9.6111   -1.4182   -7.1058 S.3       1 <0>         0.1410
     24 C16         1.9760   -2.1467   -8.5797 C.3       1 <0>         0.5250
     25 F1          0.6415   -1.8067   -8.3329 F         1 <0>        -0.1553
     26 F2          2.4905   -1.3180   -9.5825 F         1 <0>        -0.1652
     27 F3          2.0483   -3.4808   -8.9945 F         1 <0>        -0.1643
     28 H1          1.0001    2.1870    0.0043 H         1 <0>         0.1323
     29 H2         -0.5497    2.1708   -0.8711 H         1 <0>         0.1328
     30 H3         -0.5327    2.1613    0.9088 H         1 <0>         0.1346
     31 H4         -0.9407   -0.4831   -2.6572 H         1 <0>         0.1507
     32 H5          0.2284   -1.0881   -4.7355 H         1 <0>         0.1508
     33 H6          3.9570   -1.0688   -2.6238 H         1 <0>         0.1476
     34 H7          2.7725   -0.4534   -0.5573 H         1 <0>         0.1495
     35 H8          4.6642   -2.4100   -8.2474 H         1 <0>         0.1593
     36 H9          6.7205   -2.0123   -5.2809 H         1 <0>         0.4172
     37 H10         6.5856   -3.4504   -7.7079 H         1 <0>         0.1059
     38 H11         6.8024   -1.7254   -8.0894 H         1 <0>         0.1004
     39 H12        10.9526   -4.4918   -6.1151 H         1 <0>         0.1787
     40 H13        12.0390   -2.1418   -6.4732 H         1 <0>         0.2026
@<TRIPOS>BOND
     1    1    2 1
     2    1   28 1
     3    1   29 1
     4    1   30 1
     5    2    3 2
     6    2    4 2
     7    2    5 1
     8    5   10 ar
     9    5    6 ar
    10    6    7 ar
    11    6   31 1
    12    7    8 ar
    13    7   32 1
    14    8    9 ar
    15    8   11 1
    16    9   10 ar
    17    9   33 1
    18   10   34 1
    19   11   16 ar
    20   11   12 ar
    21   12   13 ar
    22   13   14 ar
    23   13   24 1
    24   14   15 ar
    25   14   35 1
    26   15   16 ar
    27   15   17 1
    28   17   18 1
    29   17   36 1
    30   18   19 1
    31   18   37 1
    32   18   38 1
    33   19   23 1
    34   19   20 2
    35   20   21 1
    36   21   22 2
    37   21   39 1
    38   22   23 1
    39   22   40 1
    40   24   25 1
    41   24   26 1
    42   24   27 1
@<TRIPOS>MOLECULE
CHEMBL276324
   47    50     0     0     0
SMALL
USER_CHARGES

@<TRIPOS>ATOM
      1 C1          0.7326    0.1797   -1.1079 C.ar      1 <0>        -0.0646
      2 C2          1.9322    0.8599   -1.0720 C.ar      1 <0>        -0.1516
      3 C3          2.4426    1.3059    0.1365 C.ar      1 <0>         0.1139
      4 C4          1.7514    1.0717    1.3144 C.ar      1 <0>        -0.1543
      5 C5          0.5510    0.3923    1.2890 C.ar      1 <0>        -0.0536
      6 C6          0.0331   -0.0585    0.0750 C.ar      1 <0>        -0.0405
      7 C7         -1.2557   -0.7881    0.0421 C.2       1 <0>         0.1329
      8 C8         -1.4452   -1.9191   -0.7487 C.2       1 <0>        -0.1714
      9 S1         -3.1423   -2.3113   -0.3557 S.3       1 <0>         0.1960
     10 C9         -3.4317   -1.0560    0.7263 C.2       1 <0>         0.0337
     11 N1         -2.2963   -0.4088    0.7663 N.2       1 <0>        -0.4771
     12 C10        -4.7016   -0.7518    1.4786 C.3       1 <0>         0.1494
     13 O1         -5.5182    0.1249    0.6998 O.3       1 <0>        -0.2975
     14 C11        -6.7084    0.4999    1.2380 C.ar      1 <0>         0.1592
     15 C12        -7.0797    0.0382    2.4923 C.ar      1 <0>        -0.1992
     16 C13        -8.2911    0.4209    3.0382 C.ar      1 <0>         0.0174
     17 C14        -9.1329    1.2635    2.3340 C.ar      1 <0>        -0.1370
     18 C15        -8.7645    1.7247    1.0826 C.ar      1 <0>         0.0159
     19 C16        -7.5510    1.3496    0.5362 C.ar      1 <0>        -0.1360
     20 Cl1        -9.8230    2.7813    0.2013 Cl        1 <0>        -0.0408
     21 Cl2        -8.7563   -0.1566    4.6078 Cl        1 <0>        -0.0460
     22 C17        -0.5047   -2.6031   -1.6584 C.ar      1 <0>         0.0543
     23 C18         0.7895   -2.9068   -1.2305 C.ar      1 <0>        -0.1089
     24 C19         1.6629   -3.5459   -2.0857 C.ar      1 <0>        -0.0122
     25 C20         1.2596   -3.8856   -3.3649 C.ar      1 <0>        -0.6687
     26 C21        -0.0211   -3.5873   -3.7956 C.ar      1 <0>        -0.0119
     27 C22        -0.9071   -2.9544   -2.9487 C.ar      1 <0>        -0.1224
     28 S2          2.3821   -4.7013   -4.4508 S.o2      1 <0>         2.7000
     29 O2          1.9428   -4.4228   -5.7732 O.2       1 <0>        -0.9595
     30 O3          3.6904   -4.3795   -3.9991 O.2       1 <0>        -0.9589
     31 N2          2.1894   -6.3299   -4.2211 N.pl3     1 <0>        -1.2493
     32 F1          3.6182    1.9708    0.1666 F         1 <0>        -0.1343
     33 H1          0.3336   -0.1639   -2.0508 H         1 <0>         0.1327
     34 H2          2.4746    1.0449   -1.9874 H         1 <0>         0.1424
     35 H3          2.1533    1.4212    2.2539 H         1 <0>         0.1416
     36 H4          0.0132    0.2100    2.2077 H         1 <0>         0.1374
     37 H5         -5.2423   -1.6790    1.6686 H         1 <0>         0.0981
     38 H6         -4.4564   -0.2733    2.4268 H         1 <0>         0.1046
     39 H7         -6.4232   -0.6200    3.0419 H         1 <0>         0.1466
     40 H8        -10.0789    1.5612    2.7615 H         1 <0>         0.1491
     41 H9         -7.2616    1.7136   -0.4385 H         1 <0>         0.1505
     42 H10         1.1059   -2.6416   -0.2325 H         1 <0>         0.1390
     43 H11         2.6641   -3.7814   -1.7561 H         1 <0>         0.1507
     44 H12        -0.3292   -3.8546   -4.7956 H         1 <0>         0.1510
     45 H13        -1.9081   -2.7268   -3.2844 H         1 <0>         0.1394
     46 H14         1.5424   -6.6555   -3.5759 H         1 <0>         0.4171
     47 H15         2.7234   -6.9583   -4.7318 H         1 <0>         0.4227
@<TRIPOS>BOND
     1    1    6 ar
     2    1    2 ar
     3    1   33 1
     4    2    3 ar
     5    2   34 1
     6    3    4 ar
     7    3   32 1
     8    4    5 ar
     9    4   35 1
    10    5    6 ar
    11    5   36 1
    12    6    7 1
    13    7   11 1
    14    7    8 2
    15    8    9 1
    16    8   22 1
    17    9   10 1
    18   10   11 2
    19   10   12 1
    20   12   13 1
    21   12   37 1
    22   12   38 1
    23   13   14 1
    24   14   19 ar
    25   14   15 ar
    26   15   16 ar
    27   15   39 1
    28   16   17 ar
    29   16   21 1
    30   17   18 ar
    31   17   40 1
    32   18   19 ar
    33   18   20 1
    34   19   41 1
    35   22   27 ar
    36   22   23 ar
    37   23   24 ar
    38   23   42 1
    39   24   25 ar
    40   24   43 1
    41   25   26 ar
    42   25   28 1
    43   26   27 ar
    44   26   44 1
    45   27   45 1
    46   28   29 2
    47   28   30 2
    48   28   31 1
    49   31   46 1
    50   31   47 1
@<TRIPOS>MOLECULE
CHEMBL271763
   43    45     0     0     0
SMALL
USER_CHARGES

@<TRIPOS>ATOM
      1 C1         -0.0225    1.8097    0.0120 C.3       1 <0>        -0.6496
      2 S1          0.0021   -0.0041    0.0020 S.o2      1 <0>         2.4986
      3 O1          0.8352   -0.4880    1.0465 O.2       1 <0>        -0.9344
      4 O2         -1.3147   -0.5105   -0.1678 O.2       1 <0>        -0.9335
      5 C2          0.8454   -0.4373   -1.4831 C.ar      1 <0>        -0.6402
      6 C3          0.1315   -0.6121   -2.6550 C.ar      1 <0>        -0.0326
      7 C4          0.7868   -0.9515   -3.8212 C.ar      1 <0>        -0.0864
      8 C5          2.1706   -1.1181   -3.8167 C.ar      1 <0>         0.0023
      9 C6          2.8847   -0.9407   -2.6331 C.ar      1 <0>        -0.0872
     10 C7          2.2196   -0.5958   -1.4740 C.ar      1 <0>        -0.0341
     11 C8          2.8804   -1.4832   -5.0667 C.ar      1 <0>         0.4096
     12 N1          2.1831   -1.6426   -6.1832 N.ar      1 <0>        -0.5121
     13 C9          2.7813   -1.9684   -7.3184 C.ar      1 <0>         0.1289
     14 C10         4.1522   -2.1437   -7.3345 C.ar      1 <0>        -0.2416
     15 C11         4.8605   -1.9692   -6.1430 C.ar      1 <0>         0.4552
     16 N2          4.1968   -1.6370   -5.0412 N.ar      1 <0>        -0.5464
     17 N3          6.2357   -2.1352   -6.1121 N.pl3     1 <0>        -0.6976
     18 C12         6.9577   -2.4963   -7.3346 C.3       1 <0>         0.1609
     19 C13         8.4294   -2.6144   -7.0326 C.ar      1 <0>        -0.0709
     20 C14         9.2665   -1.5144   -7.1402 C.ar      1 <0>        -0.1511
     21 C15        10.6109   -1.6608   -6.8552 C.ar      1 <0>         0.1015
     22 N4         11.0987   -2.8288   -6.4854 N.ar      1 <0>        -0.4751
     23 C16        10.3324   -3.8961   -6.3725 C.ar      1 <0>         0.1017
     24 C17         8.9774   -3.8244   -6.6351 C.ar      1 <0>        -0.1509
     25 C18         1.9760   -2.1467   -8.5797 C.3       1 <0>         0.5248
     26 F1          0.6415   -1.8067   -8.3329 F         1 <0>        -0.1553
     27 F2          2.4905   -1.3180   -9.5825 F         1 <0>        -0.1654
     28 F3          2.0483   -3.4808   -8.9945 F         1 <0>        -0.1648
     29 H1          1.0001    2.1870    0.0043 H         1 <0>         0.1323
     30 H2         -0.5497    2.1708   -0.8711 H         1 <0>         0.1328
     31 H3         -0.5327    2.1613    0.9088 H         1 <0>         0.1347
     32 H4         -0.9407   -0.4831   -2.6572 H         1 <0>         0.1507
     33 H5          0.2284   -1.0881   -4.7355 H         1 <0>         0.1506
     34 H6          3.9570   -1.0688   -2.6238 H         1 <0>         0.1474
     35 H7          2.7725   -0.4534   -0.5573 H         1 <0>         0.1496
     36 H8          4.6642   -2.4100   -8.2474 H         1 <0>         0.1581
     37 H9          6.7205   -2.0123   -5.2809 H         1 <0>         0.4160
     38 H10         6.5856   -3.4504   -7.7079 H         1 <0>         0.0867
     39 H11         6.8024   -1.7254   -8.0894 H         1 <0>         0.0867
     40 H12         8.8730   -0.5554   -7.4432 H         1 <0>         0.1390
     41 H13        11.2696   -0.8088   -6.9366 H         1 <0>         0.1609
     42 H14        10.7680   -4.8360   -6.0674 H         1 <0>         0.1611
     43 H15         8.3541   -4.7008   -6.5361 H         1 <0>         0.1392
@<TRIPOS>BOND
     1    1    2 1
     2    1   29 1
     3    1   30 1
     4    1   31 1
     5    2    3 2
     6    2    4 2
     7    2    5 1
     8    5   10 ar
     9    5    6 ar
    10    6    7 ar
    11    6   32 1
    12    7    8 ar
    13    7   33 1
    14    8    9 ar
    15    8   11 1
    16    9   10 ar
    17    9   34 1
    18   10   35 1
    19   11   16 ar
    20   11   12 ar
    21   12   13 ar
    22   13   14 ar
    23   13   25 1
    24   14   15 ar
    25   14   36 1
    26   15   16 ar
    27   15   17 1
    28   17   18 1
    29   17   37 1
    30   18   19 1
    31   18   38 1
    32   18   39 1
    33   19   24 ar
    34   19   20 ar
    35   20   21 ar
    36   20   40 1
    37   21   22 ar
    38   21   41 1
    39   22   23 ar
    40   23   24 ar
    41   23   42 1
    42   24   43 1
    43   25   26 1
    44   25   27 1
    45   25   28 1
@<TRIPOS>MOLECULE
CHEMBL409468
   40    42     0     0     0
SMALL
USER_CHARGES

@<TRIPOS>ATOM
      1 C1         -0.0162    1.3409    0.0094 C.2       1 <0>        -0.2190
      2 C2          1.3313    1.7689   -0.0012 C.2       1 <0>        -0.1696
      3 C3          2.0923    0.6599   -0.0144 C.2       1 <0>        -0.0519
      4 O1          1.2819   -0.4111   -0.0124 O.3       1 <0>        -0.1702
      5 C4          0.0021   -0.0041    0.0020 C.2       1 <0>        -0.0176
      6 C5          3.5989    0.6249   -0.0294 C.3       1 <0>         0.2055
      7 N1          4.1006    0.6065    1.3469 N.pl3     1 <0>        -0.6995
      8 C6          5.4649    0.5736    1.5864 C.ar      1 <0>         0.4564
      9 C7          6.3714    0.5636    0.5229 C.ar      1 <0>        -0.2423
     10 C8          7.7228    0.5305    0.8089 C.ar      1 <0>         0.1292
     11 N2          8.1174    0.5094    2.0728 N.ar      1 <0>        -0.5123
     12 C9          7.2353    0.5196    3.0623 C.ar      1 <0>         0.4086
     13 N3          5.9304    0.5567    2.8303 N.ar      1 <0>        -0.5457
     14 C10         7.7202    0.4946    4.4637 C.ar      1 <0>         0.0079
     15 C11         6.8099    0.4990    5.5191 C.ar      1 <0>        -0.0883
     16 C12         7.2668    0.4752    6.8211 C.ar      1 <0>        -0.0314
     17 C13         8.6254    0.4475    7.0797 C.ar      1 <0>        -0.6584
     18 C14         9.5335    0.4431    6.0362 C.ar      1 <0>        -0.0247
     19 C15         9.0878    0.4609    4.7301 C.ar      1 <0>        -0.0877
     20 S1          9.2016    0.4184    8.7446 S.o2      1 <0>         2.7013
     21 O2         10.5211    0.9455    8.7270 O.2       1 <0>        -0.9585
     22 O3          8.1677    0.9793    9.5420 O.2       1 <0>        -0.9571
     23 N4          9.3328   -1.1713    9.1895 N.pl3     1 <0>        -1.2469
     24 C16         8.7370    0.5181   -0.3057 C.3       1 <0>         0.5263
     25 F1          9.0805    1.8328   -0.6383 F         1 <0>        -0.1635
     26 F2          9.8805   -0.1712    0.1119 F         1 <0>        -0.1572
     27 F3          8.1914   -0.1189   -1.4255 F         1 <0>        -0.1655
     28 H1         -0.8920    1.9726    0.0252 H         1 <0>         0.1541
     29 H2          1.6822    2.7903    0.0004 H         1 <0>         0.1531
     30 H3         -0.8653   -0.6475    0.0072 H         1 <0>         0.2085
     31 H4          3.9364   -0.2706   -0.5512 H         1 <0>         0.0913
     32 H5          3.9777    1.5089   -0.5424 H         1 <0>         0.1041
     33 H6          3.4778    0.6173    2.0904 H         1 <0>         0.4176
     34 H7          6.0236    0.5810   -0.4994 H         1 <0>         0.1608
     35 H8          5.7490    0.5213    5.3183 H         1 <0>         0.1489
     36 H9          6.5623    0.4785    7.6397 H         1 <0>         0.1503
     37 H10        10.5931    0.4218    6.2439 H         1 <0>         0.1512
     38 H11         9.7976    0.4529    3.9161 H         1 <0>         0.1515
     39 H12         9.9993   -1.4390    9.8415 H         1 <0>         0.4230
     40 H13         8.7433   -1.8347    8.7982 H         1 <0>         0.4178
@<TRIPOS>BOND
     1    1    5 2
     2    1    2 1
     3    1   28 1
     4    2    3 2
     5    2   29 1
     6    3    4 1
     7    3    6 1
     8    4    5 1
     9    5   30 1
    10    6    7 1
    11    6   31 1
    12    6   32 1
    13    7    8 1
    14    7   33 1
    15    8   13 ar
    16    8    9 ar
    17    9   10 ar
    18    9   34 1
    19   10   11 ar
    20   10   24 1
    21   11   12 ar
    22   12   13 ar
    23   12   14 1
    24   14   19 ar
    25   14   15 ar
    26   15   16 ar
    27   15   35 1
    28   16   17 ar
    29   16   36 1
    30   17   18 ar
    31   17   20 1
    32   18   19 ar
    33   18   37 1
    34   19   38 1
    35   20   21 2
    36   20   22 2
    37   20   23 1
    38   23   39 1
    39   23   40 1
    40   24   25 1
    41   24   26 1
    42   24   27 1
@<TRIPOS>MOLECULE
CHEMBL410419
   44    46     0     0     0
SMALL
USER_CHARGES

@<TRIPOS>ATOM
      1 C1         -0.0187    1.5258    0.0104 C.3       1 <0>        -0.1564
      2 C2          0.0021   -0.0041    0.0020 C.3       1 <0>         0.1164
      3 C3          0.7597   -0.5172   -1.2399 C.3       1 <0>        -0.0449
      4 C4          2.0948   -0.9533   -0.6496 C.2       1 <0>         0.0967
      5 C5          1.7612   -1.2589    0.7619 C.2       1 <0>         0.4752
      6 O1          2.3336   -2.0686    1.4638 O.2       1 <0>        -0.4189
      7 O2          0.7212   -0.4928    1.1396 O.3       1 <0>        -0.3193
      8 N1          3.2499   -1.0377   -1.2421 N.2       1 <0>        -0.3553
      9 C6          4.3453   -1.4522   -0.5443 C.ar      1 <0>         0.0428
     10 C7          4.5967   -0.9462    0.7358 C.ar      1 <0>        -0.1093
     11 C8          5.7066   -1.3704    1.4348 C.ar      1 <0>        -0.1064
     12 C9          6.5715   -2.2941    0.8734 C.ar      1 <0>        -0.1028
     13 C10         6.3301   -2.7992   -0.3926 C.ar      1 <0>        -0.1130
     14 C11         5.2210   -2.3902   -1.1021 C.ar      1 <0>        -0.0795
     15 C12         0.0406   -1.6870   -1.8609 C.ar      1 <0>        -0.0197
     16 C13        -0.1763   -2.8357   -1.1232 C.ar      1 <0>        -0.1324
     17 C14        -0.8359   -3.9087   -1.6928 C.ar      1 <0>        -0.0175
     18 C15        -1.2790   -3.8328   -3.0000 C.ar      1 <0>        -0.6545
     19 C16        -1.0629   -2.6837   -3.7374 C.ar      1 <0>        -0.0171
     20 C17        -0.4071   -1.6091   -3.1664 C.ar      1 <0>        -0.1191
     21 S1         -2.1187   -5.2009   -3.7265 S.o2      1 <0>         2.4980
     22 O3         -1.8819   -5.0724   -5.1217 O.2       1 <0>        -0.9344
     23 O4         -1.6474   -6.3359   -3.0132 O.2       1 <0>        -0.9346
     24 C18        -3.8731   -4.9181   -3.3619 C.3       1 <0>        -0.6494
     25 C19        -1.4276   -0.5490    0.0098 C.3       1 <0>        -0.1693
     26 H1          1.0039    1.9031    0.0027 H         1 <0>         0.0691
     27 H2         -0.5459    1.8868   -0.8726 H         1 <0>         0.0877
     28 H3         -0.5289    1.8773    0.9072 H         1 <0>         0.0808
     29 H4          0.9000    0.2831   -1.9665 H         1 <0>         0.1382
     30 H5          3.9233   -0.2250    1.1748 H         1 <0>         0.1156
     31 H6          5.9021   -0.9809    2.4229 H         1 <0>         0.1299
     32 H7          7.4394   -2.6222    1.4261 H         1 <0>         0.1304
     33 H8          7.0098   -3.5192   -0.8238 H         1 <0>         0.1343
     34 H9          5.0313   -2.7891   -2.0876 H         1 <0>         0.1334
     35 H10         0.1699   -2.8951   -0.1019 H         1 <0>         0.1251
     36 H11        -1.0047   -4.8065   -1.1167 H         1 <0>         0.1469
     37 H12        -1.4088   -2.6245   -4.7588 H         1 <0>         0.1487
     38 H13        -0.2415   -0.7100   -3.7413 H         1 <0>         0.1413
     39 H14        -4.1877   -3.9719   -3.8021 H         1 <0>         0.1326
     40 H15        -4.4670   -5.7297   -3.7822 H         1 <0>         0.1347
     41 H16        -4.0187   -4.8827   -2.2822 H         1 <0>         0.1322
     42 H17        -1.9529   -0.2036   -0.8806 H         1 <0>         0.0870
     43 H18        -1.4011   -1.6386    0.0163 H         1 <0>         0.0781
     44 H19        -1.9473   -0.1928    0.8993 H         1 <0>         0.0790
@<TRIPOS>BOND
     1    1    2 1
     2    1   26 1
     3    1   27 1
     4    1   28 1
     5    2    7 1
     6    2   25 1
     7    2    3 1
     8    3    4 1
     9    3   15 1
    10    3   29 1
    11    4    8 2
    12    4    5 1
    13    5    6 2
    14    5    7 1
    15    8    9 1
    16    9   14 ar
    17    9   10 ar
    18   10   11 ar
    19   10   30 1
    20   11   12 ar
    21   11   31 1
    22   12   13 ar
    23   12   32 1
    24   13   14 ar
    25   13   33 1
    26   14   34 1
    27   15   20 ar
    28   15   16 ar
    29   16   17 ar
    30   16   35 1
    31   17   18 ar
    32   17   36 1
    33   18   19 ar
    34   18   21 1
    35   19   20 ar
    36   19   37 1
    37   20   38 1
    38   21   22 2
    39   21   23 2
    40   21   24 1
    41   24   39 1
    42   24   40 1
    43   24   41 1
    44   25   42 1
    45   25   43 1
    46   25   44 1
@<TRIPOS>MOLECULE
CHEMBL521
   32    32     0     0     0
SMALL
USER_CHARGES

@<TRIPOS>ATOM
      1 C1         -0.0187    1.5258    0.0104 C.3       1 <0>        -0.1500
      2 C2          0.0021   -0.0041    0.0020 C.3       1 <0>        -0.0934
      3 C3         -1.4333   -0.5336    0.0129 C.3       1 <0>        -0.1453
      4 C4          0.7182   -0.4975   -1.2568 C.3       1 <0>        -0.0671
      5 C5          2.1652   -0.0794   -1.2080 C.ar      1 <0>        -0.1067
      6 C6          2.5514    1.1372   -1.7387 C.ar      1 <0>        -0.1171
      7 C7          3.8788    1.5207   -1.6939 C.ar      1 <0>        -0.1263
      8 C8          4.8198    0.6878   -1.1181 C.ar      1 <0>        -0.0208
      9 C9          4.4335   -0.5284   -0.5866 C.ar      1 <0>        -0.1001
     10 C10         3.1055   -0.9100   -0.6275 C.ar      1 <0>        -0.1173
     11 C11         6.2670    1.1054   -1.0702 C.3       1 <0>        -0.1358
     12 C12         7.1180    0.0838   -1.8271 C.3       1 <0>        -0.1138
     13 C13         6.7227    1.1743    0.3646 C.2       1 <0>         0.5006
     14 O1          7.8876    0.9496    0.6457 O.co2     1 <0>        -0.6971
     15 O2          5.9265    1.4548    1.2443 O.co2     1 <0>        -0.6897
     16 H1          1.0039    1.9031    0.0027 H         1 <0>         0.0655
     17 H2         -0.5459    1.8868   -0.8726 H         1 <0>         0.0493
     18 H3         -0.5289    1.8773    0.9072 H         1 <0>         0.0490
     19 H4          0.5293   -0.3651    0.8851 H         1 <0>         0.0713
     20 H5         -1.9605   -0.1726   -0.8702 H         1 <0>         0.0517
     21 H6         -1.4185   -1.6235    0.0069 H         1 <0>         0.0518
     22 H7         -1.9435   -0.1821    0.9097 H         1 <0>         0.0521
     23 H8          0.6556   -1.5845   -1.3079 H         1 <0>         0.0648
     24 H9          0.2444   -0.0644   -2.1377 H         1 <0>         0.0646
     25 H10         1.8162    1.7879   -2.1885 H         1 <0>         0.1112
     26 H11         4.1806    2.4709   -2.1091 H         1 <0>         0.1122
     27 H12         5.1688   -1.1793   -0.1371 H         1 <0>         0.1137
     28 H13         2.8030   -1.8586   -0.2090 H         1 <0>         0.1115
     29 H14         6.3779    2.0855   -1.5341 H         1 <0>         0.0694
     30 H15         6.7884    0.0339   -2.8649 H         1 <0>         0.0347
     31 H16         8.1647    0.3858   -1.7925 H         1 <0>         0.0601
     32 H17         7.0071   -0.8964   -1.3632 H         1 <0>         0.0467
@<TRIPOS>BOND
     1    1    2 1
     2    1   16 1
     3    1   17 1
     4    1   18 1
     5    2    3 1
     6    2    4 1
     7    2   19 1
     8    3   20 1
     9    3   21 1
    10    3   22 1
    11    4    5 1
    12    4   23 1
    13    4   24 1
    14    5   10 ar
    15    5    6 ar
    16    6    7 ar
    17    6   25 1
    18    7    8 ar
    19    7   26 1
    20    8    9 ar
    21    8   11 1
    22    9   10 ar
    23    9   27 1
    24   10   28 1
    25   11   12 1
    26   11   13 1
    27   11   29 1
    28   12   30 1
    29   12   31 1
    30   12   32 1
    31   13   14 2
    32   13   15 1
@<TRIPOS>MOLECULE
CHEMBL521__1
   32    32     0     0     0
SMALL
USER_CHARGES

@<TRIPOS>ATOM
      1 C1         -0.0187    1.5258    0.0104 C.3       1 <0>        -0.1492
      2 C2          0.0021   -0.0041    0.0020 C.3       1 <0>        -0.0917
      3 C3         -1.4333   -0.5336    0.0129 C.3       1 <0>        -0.1463
      4 C4          0.7182   -0.4975   -1.2568 C.3       1 <0>        -0.0693
      5 C5          2.1652   -0.0794   -1.2080 C.ar      1 <0>        -0.1030
      6 C6          2.5514    1.1372   -1.7387 C.ar      1 <0>        -0.1250
      7 C7          3.8788    1.5207   -1.6939 C.ar      1 <0>        -0.1284
      8 C8          4.8198    0.6878   -1.1181 C.ar      1 <0>        -0.0440
      9 C9          4.4335   -0.5284   -0.5866 C.ar      1 <0>        -0.0792
     10 C10         3.1055   -0.9100   -0.6275 C.ar      1 <0>        -0.1265
     11 C11         6.2670    1.1054   -1.0702 C.3       1 <0>        -0.1321
     12 C12         6.7297    1.1754    0.3865 C.3       1 <0>        -0.1181
     13 C13         7.1052    0.0991   -1.8157 C.2       1 <0>         0.5026
     14 O1          8.0256    0.4755   -2.5212 O.co2     1 <0>        -0.6997
     15 O2          6.8629   -1.0914   -1.7135 O.co2     1 <0>        -0.6874
     16 H1          1.0039    1.9031    0.0027 H         1 <0>         0.0635
     17 H2         -0.5459    1.8868   -0.8726 H         1 <0>         0.0505
     18 H3         -0.5289    1.8773    0.9072 H         1 <0>         0.0479
     19 H4          0.5293   -0.3651    0.8851 H         1 <0>         0.0698
     20 H5         -1.9605   -0.1726   -0.8702 H         1 <0>         0.0523
     21 H6         -1.4185   -1.6235    0.0069 H         1 <0>         0.0527
     22 H7         -1.9435   -0.1821    0.9097 H         1 <0>         0.0515
     23 H8          0.6556   -1.5845   -1.3079 H         1 <0>         0.0660
     24 H9          0.2444   -0.0644   -2.1377 H         1 <0>         0.0650
     25 H10         1.8162    1.7879   -2.1885 H         1 <0>         0.1104
     26 H11         4.1806    2.4709   -2.1091 H         1 <0>         0.1123
     27 H12         5.1688   -1.1793   -0.1371 H         1 <0>         0.1305
     28 H13         2.8030   -1.8586   -0.2090 H         1 <0>         0.1113
     29 H14         6.3779    2.0855   -1.5341 H         1 <0>         0.0671
     30 H15         7.7764    1.4774    0.4211 H         1 <0>         0.0511
     31 H16         6.1234    1.9032    0.9257 H         1 <0>         0.0415
     32 H17         6.6188    0.1953    0.8504 H         1 <0>         0.0537
@<TRIPOS>BOND
     1    1    2 1
     2    1   16 1
     3    1   17 1
     4    1   18 1
     5    2    3 1
     6    2    4 1
     7    2   19 1
     8    3   20 1
     9    3   21 1
    10    3   22 1
    11    4    5 1
    12    4   23 1
    13    4   24 1
    14    5   10 ar
    15    5    6 ar
    16    6    7 ar
    17    6   25 1
    18    7    8 ar
    19    7   26 1
    20    8    9 ar
    21    8   11 1
    22    9   10 ar
    23    9   27 1
    24   10   28 1
    25   11   12 1
    26   11   13 1
    27   11   29 1
    28   12   30 1
    29   12   31 1
    30   12   32 1
    31   13   14 2
    32   13   15 1
@<TRIPOS>MOLECULE
CHEMBL139591
   47    51     0     0     0
SMALL
USER_CHARGES

@<TRIPOS>ATOM
      1 C1         -0.0169    1.3924    0.0097 C.ar      1 <0>        -0.0838
      2 C2          1.1682    2.0959    0.0022 C.ar      1 <0>        -0.1291
      3 C3          2.3808    1.4175   -0.0131 C.ar      1 <0>         0.1378
      4 C4          2.4038    0.0282   -0.0207 C.ar      1 <0>        -0.1273
      5 C5          1.2229   -0.6823   -0.0137 C.ar      1 <0>        -0.0683
      6 C6          0.0021   -0.0041    0.0020 C.ar      1 <0>        -0.0236
      7 C7         -1.2660   -0.7619    0.0105 C.2       1 <0>         0.0631
      8 C8         -1.5468   -1.8382    0.7876 C.2       1 <0>        -0.1300
      9 C9         -2.8535   -2.2556    0.4848 C.2       1 <0>        -0.1313
     10 C10        -3.3427   -1.4237   -0.4687 C.2       1 <0>         0.0671
     11 N1         -2.3710   -0.4970   -0.7631 N.pl3     1 <0>        -0.5498
     12 H1         -2.4508    0.2216   -1.4098 H         1 <0>         0.4152
     13 C11        -4.6863   -1.4973   -1.0793 C.ar      1 <0>        -0.0303
     14 C12        -5.2049   -2.7283   -1.4856 C.ar      1 <0>        -0.0695
     15 C13        -6.4596   -2.7911   -2.0545 C.ar      1 <0>        -0.1483
     16 C14        -7.2055   -1.6353   -2.2232 C.ar      1 <0>         0.1020
     17 C15        -6.6956   -0.4107   -1.8222 C.ar      1 <0>        -0.1491
     18 C16        -5.4443   -0.3368   -1.2469 C.ar      1 <0>        -0.0841
     19 F1         -8.4341   -1.7027   -2.7811 F         1 <0>        -0.1369
     20 C17        -3.5268   -3.4341    1.1424 C.3       1 <0>        -0.0514
     21 C18        -2.4460   -4.2844    1.8222 C.3       1 <0>        -0.1161
     22 C19        -1.5618   -3.3941    2.6980 C.3       1 <0>        -0.1166
     23 C20        -0.6702   -2.5156    1.8110 C.3       1 <0>        -0.0491
     24 N2          3.5840    2.1366   -0.0212 N.pl3     1 <0>        -0.4128
     25 C21         4.8490    1.6084   -0.0416 C.2       1 <0>        -0.0543
     26 C22         5.7055    2.6475   -0.0425 C.2       1 <0>        -0.0195
     27 N3          4.9889    3.7810   -0.0231 N.2       1 <0>        -0.4831
     28 C23         3.7168    3.4884   -0.0161 C.2       1 <0>         0.1886
     29 H2         -0.9589    1.9203    0.0260 H         1 <0>         0.1317
     30 H3          1.1544    3.1758    0.0077 H         1 <0>         0.1351
     31 H4          3.3482   -0.4956   -0.0326 H         1 <0>         0.1358
     32 H5          1.2415   -1.7621   -0.0204 H         1 <0>         0.1388
     33 H6         -4.6244   -3.6296   -1.3550 H         1 <0>         0.1395
     34 H7         -6.8616   -3.7428   -2.3695 H         1 <0>         0.1408
     35 H8         -7.2810    0.4869   -1.9564 H         1 <0>         0.1387
     36 H9         -5.0499    0.6175   -0.9303 H         1 <0>         0.1302
     37 H10        -4.2402   -3.0817    1.8874 H         1 <0>         0.0706
     38 H11        -4.0439   -4.0294    0.3898 H         1 <0>         0.0700
     39 H12        -2.9201   -5.0458    2.4416 H         1 <0>         0.0645
     40 H13        -1.8330   -4.7675    1.0612 H         1 <0>         0.0635
     41 H14        -2.1913   -2.7589    3.3212 H         1 <0>         0.0634
     42 H15        -0.9359   -4.0192    3.3349 H         1 <0>         0.0644
     43 H16         0.0721   -3.1349    1.3074 H         1 <0>         0.0697
     44 H17        -0.1699   -1.7642    2.4219 H         1 <0>         0.0691
     45 H18         5.1087    0.5601   -0.0541 H         1 <0>         0.1792
     46 H19         6.7833    2.5798   -0.0558 H         1 <0>         0.1764
     47 H20         2.9059    4.2016   -0.0056 H         1 <0>         0.2088
@<TRIPOS>BOND
     1    1    6 ar
     2    1    2 ar
     3    1   29 1
     4    2    3 ar
     5    2   30 1
     6    3    4 ar
     7    3   24 1
     8    4    5 ar
     9    4   31 1
    10    5    6 ar
    11    5   32 1
    12    6    7 1
    13    7   11 1
    14    7    8 2
    15    8   23 1
    16    8    9 1
    17    9   10 2
    18    9   20 1
    19   10   11 1
    20   10   13 1
    21   11   12 1
    22   13   18 ar
    23   13   14 ar
    24   14   15 ar
    25   14   33 1
    26   15   16 ar
    27   15   34 1
    28   16   17 ar
    29   16   19 1
    30   17   18 ar
    31   17   35 1
    32   18   36 1
    33   20   21 1
    34   20   37 1
    35   20   38 1
    36   21   22 1
    37   21   39 1
    38   21   40 1
    39   22   23 1
    40   22   41 1
    41   22   42 1
    42   23   43 1
    43   23   44 1
    44   24   28 1
    45   24   25 1
    46   25   26 2
    47   25   45 1
    48   26   27 1
    49   26   46 1
    50   27   28 2
    51   28   47 1
@<TRIPOS>MOLECULE
CHEMBL108802
   45    47     0     0     0
SMALL
USER_CHARGES

@<TRIPOS>ATOM
      1 C1         -0.0187    1.5258    0.0104 C.3       1 <0>        -0.1551
      2 C2          0.0021   -0.0041    0.0020 C.3       1 <0>         0.1280
      3 C3          0.7419   -0.5062   -1.2159 C.2       1 <0>        -0.0582
      4 C4          1.7934   -1.2199   -0.7595 C.2       1 <0>        -0.1665
      5 C5          1.7735   -1.2064    0.6993 C.2       1 <0>         0.5036
      6 O1          2.5881   -1.7598    1.4131 O.2       1 <0>        -0.4417
      7 O2          0.7209   -0.4920    1.1391 O.3       1 <0>        -0.3068
      8 C6          2.8188   -1.9168   -1.6163 C.3       1 <0>        -0.0209
      9 C7          4.0140   -1.0176   -1.8009 C.ar      1 <0>        -0.0859
     10 C8          4.0570   -0.1345   -2.8634 C.ar      1 <0>        -0.1120
     11 C9          5.1533    0.6903   -3.0327 C.ar      1 <0>        -0.1204
     12 C10         6.2065    0.6323   -2.1392 C.ar      1 <0>        -0.1177
     13 C11         6.1630   -0.2503   -1.0761 C.ar      1 <0>        -0.1175
     14 C12         5.0648   -1.0720   -0.9044 C.ar      1 <0>        -0.1057
     15 C13         0.3863   -0.2648   -2.6235 C.ar      1 <0>         0.0172
     16 C14         0.4330    1.0308   -3.1480 C.ar      1 <0>        -0.1196
     17 C15         0.0983    1.2488   -4.4678 C.ar      1 <0>        -0.0183
     18 C16        -0.2832    0.1896   -5.2728 C.ar      1 <0>        -0.6529
     19 C17        -0.3323   -1.0954   -4.7610 C.ar      1 <0>        -0.0177
     20 C18         0.0054   -1.3306   -3.4450 C.ar      1 <0>        -0.1184
     21 S1         -0.7090    0.4786   -6.9580 S.o2      1 <0>         2.4972
     22 O3         -1.5927   -0.5817   -7.2957 O.2       1 <0>        -0.9339
     23 O4         -1.1504    1.8289   -6.9940 O.2       1 <0>        -0.9340
     24 C19         0.8502    0.3065   -7.8689 C.3       1 <0>        -0.6500
     25 C20        -1.4278   -0.5485    0.0112 C.3       1 <0>        -0.1504
     26 H1          1.0039    1.9031    0.0027 H         1 <0>         0.0703
     27 H2         -0.5459    1.8868   -0.8726 H         1 <0>         0.0864
     28 H3         -0.5289    1.8773    0.9072 H         1 <0>         0.0837
     29 H4          3.1310   -2.8410   -1.1300 H         1 <0>         0.0961
     30 H5          2.3837   -2.1470   -2.5888 H         1 <0>         0.0918
     31 H6          3.2342   -0.0891   -3.5615 H         1 <0>         0.1181
     32 H7          5.1872    1.3798   -3.8633 H         1 <0>         0.1223
     33 H8          7.0633    1.2762   -2.2718 H         1 <0>         0.1227
     34 H9          6.9860   -0.2958   -0.3781 H         1 <0>         0.1240
     35 H10         5.0292   -1.7589   -0.0717 H         1 <0>         0.1269
     36 H11         0.7301    1.8584   -2.5210 H         1 <0>         0.1395
     37 H12         0.1335    2.2488   -4.8742 H         1 <0>         0.1493
     38 H13        -0.6313   -1.9167   -5.3954 H         1 <0>         0.1495
     39 H14        -0.0288   -2.3346   -3.0484 H         1 <0>         0.1391
     40 H15         1.2491   -0.6969   -7.7202 H         1 <0>         0.1326
     41 H16         0.6707    0.4724   -8.9312 H         1 <0>         0.1353
     42 H17         1.5679    1.0407   -7.5028 H         1 <0>         0.1324
     43 H18        -1.9538   -0.2029   -0.8788 H         1 <0>         0.0846
     44 H19        -1.4016   -1.6381    0.0176 H         1 <0>         0.0701
     45 H20        -1.9465   -0.1922    0.9011 H         1 <0>         0.0826
@<TRIPOS>BOND
     1    1    2 1
     2    1   26 1
     3    1   27 1
     4    1   28 1
     5    2    7 1
     6    2    3 1
     7    2   25 1
     8    3    4 2
     9    3   15 1
    10    4    5 1
    11    4    8 1
    12    5    6 2
    13    5    7 1
    14    8    9 1
    15    8   29 1
    16    8   30 1
    17    9   14 ar
    18    9   10 ar
    19   10   11 ar
    20   10   31 1
    21   11   12 ar
    22   11   32 1
    23   12   13 ar
    24   12   33 1
    25   13   14 ar
    26   13   34 1
    27   14   35 1
    28   15   20 ar
    29   15   16 ar
    30   16   17 ar
    31   16   36 1
    32   17   18 ar
    33   17   37 1
    34   18   19 ar
    35   18   21 1
    36   19   20 ar
    37   19   38 1
    38   20   39 1
    39   21   22 2
    40   21   23 2
    41   21   24 1
    42   24   40 1
    43   24   41 1
    44   24   42 1
    45   25   43 1
    46   25   44 1
    47   25   45 1
@<TRIPOS>MOLECULE
CHEMBL325370
   44    46     0     0     0
SMALL
USER_CHARGES

@<TRIPOS>ATOM
      1 C1         -0.2855    1.3904   -0.2165 C.3       1 <0>        -0.1571
      2 C2         -0.0909   -0.1162   -0.0347 C.3       1 <0>         0.1248
      3 C3          0.6147   -0.6957   -1.2387 C.2       1 <0>         0.0084
      4 C4          1.7942   -1.2397   -0.7676 C.2       1 <0>        -0.2543
      5 C5          1.8504   -1.0214    0.6833 C.2       1 <0>         0.5178
      6 O1          2.7591   -1.3788    1.4070 O.2       1 <0>        -0.4304
      7 O2          0.7498   -0.3684    1.0939 O.3       1 <0>        -0.2985
      8 C6          2.8154   -1.9195   -1.5781 C.2       1 <0>         0.4698
      9 O3          3.4482   -1.2948   -2.4081 O.2       1 <0>        -0.4247
     10 C7          3.0730   -3.3624   -1.3843 C.ar      1 <0>        -0.1634
     11 C8          2.2893   -4.1016   -0.4959 C.ar      1 <0>        -0.0637
     12 C9          2.5351   -5.4474   -0.3199 C.ar      1 <0>        -0.1291
     13 C10         3.5556   -6.0651   -1.0213 C.ar      1 <0>        -0.0807
     14 C11         4.3360   -5.3385   -1.9032 C.ar      1 <0>        -0.1300
     15 C12         4.0973   -3.9932   -2.0931 C.ar      1 <0>        -0.0560
     16 C13         0.1427   -0.6839   -2.6265 C.ar      1 <0>        -0.0051
     17 C14         0.0057    0.5296   -3.3142 C.ar      1 <0>        -0.1093
     18 C15        -0.4383    0.5310   -4.6187 C.ar      1 <0>        -0.0180
     19 C16        -0.7487   -0.6615   -5.2502 C.ar      1 <0>        -0.6477
     20 C17        -0.6165   -1.8652   -4.5786 C.ar      1 <0>        -0.0172
     21 C18        -0.1688   -1.8864   -3.2754 C.ar      1 <0>        -0.1119
     22 S1         -1.3161   -0.6473   -6.9182 S.o2      1 <0>         2.4981
     23 O4         -2.0932   -1.8300   -7.0470 O.2       1 <0>        -0.9329
     24 O5         -1.9105    0.6322   -7.0881 O.2       1 <0>        -0.9327
     25 C19         0.1884   -0.7757   -7.9235 C.3       1 <0>        -0.6493
     26 C20        -1.4461   -0.7995    0.1586 C.3       1 <0>        -0.1518
     27 H1          0.6847    1.8684   -0.3518 H         1 <0>         0.0739
     28 H2         -0.9061    1.5733   -1.0938 H         1 <0>         0.0898
     29 H3         -0.7738    1.8029    0.6664 H         1 <0>         0.0899
     30 H4          1.4928   -3.6206    0.0523 H         1 <0>         0.1211
     31 H5          1.9300   -6.0202    0.3672 H         1 <0>         0.1323
     32 H6          3.7441   -7.1190   -0.8794 H         1 <0>         0.1315
     33 H7          5.1309   -5.8267   -2.4475 H         1 <0>         0.1335
     34 H8          4.7042   -3.4283   -2.7851 H         1 <0>         0.1357
     35 H9          0.2471    1.4607   -2.8231 H         1 <0>         0.1429
     36 H10        -0.5448    1.4652   -5.1501 H         1 <0>         0.1527
     37 H11        -0.8609   -2.7906   -5.0789 H         1 <0>         0.1518
     38 H12        -0.0620   -2.8264   -2.7546 H         1 <0>         0.1387
     39 H13         0.7085   -1.7028   -7.6824 H         1 <0>         0.1328
     40 H14        -0.0793   -0.7735   -8.9801 H         1 <0>         0.1361
     41 H15         0.8401    0.0720   -7.7120 H         1 <0>         0.1332
     42 H16        -2.0662   -0.6323   -0.7220 H         1 <0>         0.0883
     43 H17        -1.2964   -1.8699    0.2997 H         1 <0>         0.0724
     44 H18        -1.9411   -0.3831    1.0359 H         1 <0>         0.0885
@<TRIPOS>BOND
     1    1    2 1
     2    1   27 1
     3    1   28 1
     4    1   29 1
     5    2    7 1
     6    2    3 1
     7    2   26 1
     8    3    4 2
     9    3   16 1
    10    4    5 1
    11    4    8 1
    12    5    6 2
    13    5    7 1
    14    8    9 2
    15    8   10 1
    16   10   15 ar
    17   10   11 ar
    18   11   12 ar
    19   11   30 1
    20   12   13 ar
    21   12   31 1
    22   13   14 ar
    23   13   32 1
    24   14   15 ar
    25   14   33 1
    26   15   34 1
    27   16   21 ar
    28   16   17 ar
    29   17   18 ar
    30   17   35 1
    31   18   19 ar
    32   18   36 1
    33   19   20 ar
    34   19   22 1
    35   20   21 ar
    36   20   37 1
    37   21   38 1
    38   22   23 2
    39   22   24 2
    40   22   25 1
    41   25   39 1
    42   25   40 1
    43   25   41 1
    44   26   42 1
    45   26   43 1
    46   26   44 1
@<TRIPOS>MOLECULE
CHEMBL142650
   37    40     0     0     0
SMALL
USER_CHARGES

@<TRIPOS>ATOM
      1 C1         -0.0167    1.3795    0.0096 C.ar      1 <0>        -0.1177
      2 C2          1.1683    2.0938    0.0021 C.ar      1 <0>        -0.1164
      3 C3          2.3774    1.4298   -0.0130 C.ar      1 <0>        -0.1148
      4 C4          2.4036    0.0339   -0.0208 C.ar      1 <0>        -0.0201
      5 C5          1.2042   -0.6806   -0.0131 C.ar      1 <0>        -0.0962
      6 C6          0.0021   -0.0041    0.0020 C.ar      1 <0>        -0.1159
      7 C7          3.6950   -0.6840   -0.0375 C.2       1 <0>         0.0782
      8 C8          4.0088   -1.7475   -0.8310 C.2       1 <0>        -0.1643
      9 C9          5.3248   -2.1247   -0.5333 C.2       1 <0>        -0.1644
     10 C10         5.7860   -1.2834    0.4355 C.2       1 <0>         0.0782
     11 N1          4.7880   -0.3924    0.7385 N.pl3     1 <0>        -0.5436
     12 H1          4.8447    0.3217    1.3924 H         1 <0>         0.4177
     13 C11         7.1300   -1.3209    1.0484 C.ar      1 <0>        -0.0200
     14 C12         7.6874   -2.5389    1.4421 C.ar      1 <0>        -0.0963
     15 C13         8.9426   -2.5668    2.0137 C.ar      1 <0>        -0.1158
     16 C14         9.6489   -1.3912    2.1970 C.ar      1 <0>        -0.1177
     17 C15         9.1025   -0.1806    1.8091 C.ar      1 <0>        -0.1164
     18 C16         7.8506   -0.1391    1.2311 C.ar      1 <0>        -0.1149
     19 C17         5.7084   -3.3079   -1.4006 C.3       1 <0>        -0.0447
     20 C18         4.3431   -3.9369   -1.7865 C.3       1 <0>        -0.1182
     21 C19         3.4630   -2.6648   -1.9079 C.3       1 <0>        -0.0447
     22 H2         -0.9605    1.9042    0.0260 H         1 <0>         0.1240
     23 H3          1.1466    3.1735    0.0078 H         1 <0>         0.1245
     24 H4          3.3016    1.9885   -0.0192 H         1 <0>         0.1186
     25 H5          1.2174   -1.7605   -0.0194 H         1 <0>         0.1263
     26 H6         -0.9265   -0.5555    0.0083 H         1 <0>         0.1265
     27 H7          7.1370   -3.4572    1.2999 H         1 <0>         0.1263
     28 H8          9.3748   -3.5082    2.3190 H         1 <0>         0.1265
     29 H9         10.6311   -1.4186    2.6453 H         1 <0>         0.1240
     30 H10         9.6591    0.7333    1.9551 H         1 <0>         0.1245
     31 H11         7.4271    0.8059    0.9246 H         1 <0>         0.1185
     32 H12         6.2418   -2.9739   -2.2905 H         1 <0>         0.0744
     33 H13         6.3115   -4.0182   -0.8350 H         1 <0>         0.0660
     34 H14         4.4076   -4.4636   -2.7387 H         1 <0>         0.0757
     35 H15         3.9763   -4.5951   -0.9989 H         1 <0>         0.0717
     36 H16         2.4167   -2.9021   -1.7152 H         1 <0>         0.0661
     37 H17         3.5792   -2.2116   -2.8925 H         1 <0>         0.0743
@<TRIPOS>BOND
     1    1    6 ar
     2    1    2 ar
     3    1   22 1
     4    2    3 ar
     5    2   23 1
     6    3    4 ar
     7    3   24 1
     8    4    5 ar
     9    4    7 1
    10    5    6 ar
    11    5   25 1
    12    6   26 1
    13    7   11 1
    14    7    8 2
    15    8   21 1
    16    8    9 1
    17    9   10 2
    18    9   19 1
    19   10   11 1
    20   10   13 1
    21   11   12 1
    22   13   18 ar
    23   13   14 ar
    24   14   15 ar
    25   14   27 1
    26   15   16 ar
    27   15   28 1
    28   16   17 ar
    29   16   29 1
    30   17   18 ar
    31   17   30 1
    32   18   31 1
    33   19   20 1
    34   19   32 1
    35   19   33 1
    36   20   21 1
    37   20   34 1
    38   20   35 1
    39   21   36 1
    40   21   37 1
@<TRIPOS>MOLECULE
CHEMBL473946
   36    38     0     0     0
SMALL
USER_CHARGES

@<TRIPOS>ATOM
      1 C1          0.2390    0.8164   -0.5961 C.3       1 <0>         0.0259
      2 O1          0.2641   -0.6047   -0.4490 O.3       1 <0>        -0.3166
      3 C2          0.8351   -1.0981    0.6814 C.ar      1 <0>         0.1332
      4 C3          1.3548   -0.2290    1.6309 C.ar      1 <0>        -0.2064
      5 C4          1.9353   -0.7263    2.7789 C.ar      1 <0>        -0.0646
      6 C5          1.9994   -2.1037    2.9854 C.ar      1 <0>        -0.0606
      7 C6          1.4760   -2.9739    2.0300 C.ar      1 <0>        -0.0541
      8 C7          0.8922   -2.4698    0.8866 C.ar      1 <0>        -0.1485
      9 C8          2.6232   -2.6419    4.2180 C.2       1 <0>        -0.1249
     10 C9          3.9168   -2.3276    4.5988 C.2       1 <0>         0.0871
     11 N1          4.4210   -2.8278    5.6943 N.2       1 <0>        -0.4403
     12 S1          3.1987   -3.7799    6.3324 S.3       1 <0>         0.2226
     13 C10         1.9495   -3.5018    5.0903 C.2       1 <0>        -0.0680
     14 C11         0.5757   -4.0370    5.0052 C.ar      1 <0>        -0.0627
     15 C12         0.3395   -5.3968    5.2183 C.ar      1 <0>        -0.0538
     16 C13        -0.9444   -5.8921    5.1384 C.ar      1 <0>        -0.1500
     17 C14        -2.0021   -5.0410    4.8464 C.ar      1 <0>         0.1453
     18 C15        -1.7717   -3.6882    4.6338 C.ar      1 <0>        -0.2070
     19 C16        -0.4917   -3.1837    4.7170 C.ar      1 <0>        -0.0366
     20 O2         -3.2661   -5.5334    4.7681 O.3       1 <0>        -0.3137
     21 C17        -4.3071   -4.6030    4.4640 C.3       1 <0>         0.0245
     22 H1          1.2592    1.2002   -0.5918 H         1 <0>         0.0570
     23 H2         -0.2428    1.0757   -1.5389 H         1 <0>         0.1016
     24 H3         -0.3186    1.2575    0.2302 H         1 <0>         0.0564
     25 H4          1.3048    0.8379    1.4702 H         1 <0>         0.1310
     26 H5          2.3401   -0.0496    3.5168 H         1 <0>         0.1271
     27 H6          1.5241   -4.0413    2.1869 H         1 <0>         0.1294
     28 H7          0.4826   -3.1431    0.1482 H         1 <0>         0.1331
     29 H8          4.5117   -1.6659    3.9866 H         1 <0>         0.1780
     30 H9          1.1616   -6.0595    5.4451 H         1 <0>         0.1350
     31 H10        -1.1278   -6.9437    5.3027 H         1 <0>         0.1384
     32 H11        -2.5971   -3.0298    4.4066 H         1 <0>         0.1340
     33 H12        -0.3139   -2.1307    4.5559 H         1 <0>         0.1288
     34 H13        -4.1116   -4.1426    3.4955 H         1 <0>         0.0583
     35 H14        -5.2633   -5.1253    4.4317 H         1 <0>         0.1032
     36 H15        -4.3406   -3.8312    5.2330 H         1 <0>         0.0579
@<TRIPOS>BOND
     1    1    2 1
     2    1   22 1
     3    1   23 1
     4    1   24 1
     5    2    3 1
     6    3    8 ar
     7    3    4 ar
     8    4    5 ar
     9    4   25 1
    10    5    6 ar
    11    5   26 1
    12    6    7 ar
    13    6    9 1
    14    7    8 ar
    15    7   27 1
    16    8   28 1
    17    9   13 2
    18    9   10 1
    19   10   11 2
    20   10   29 1
    21   11   12 1
    22   12   13 1
    23   13   14 1
    24   14   19 ar
    25   14   15 ar
    26   15   16 ar
    27   15   30 1
    28   16   17 ar
    29   16   31 1
    30   17   18 ar
    31   17   20 1
    32   18   19 ar
    33   18   32 1
    34   19   33 1
    35   20   21 1
    36   21   34 1
    37   21   35 1
    38   21   36 1
@<TRIPOS>MOLECULE
CHEMBL70104
   49    51     0     0     0
SMALL
USER_CHARGES

@<TRIPOS>ATOM
      1 C1         -0.1390    1.3141    0.3825 C.3       1 <0>        -0.1539
      2 C2         -0.0001   -0.1930    0.1579 C.3       1 <0>         0.1356
      3 C3          0.7822   -0.4585   -1.1070 C.2       1 <0>        -0.0878
      4 C4          1.8855   -1.1499   -0.7393 C.2       1 <0>         0.0121
      5 C5          1.8542   -1.3457    0.7119 C.2       1 <0>         0.4846
      6 O1          2.7034   -1.9311    1.3557 O.2       1 <0>        -0.4352
      7 O2          0.7463   -0.7817    1.2272 O.3       1 <0>        -0.2988
      8 O3          2.8607   -1.5905   -1.5777 O.3       1 <0>        -0.2855
      9 C6          4.1605   -1.0184   -1.4184 C.3       1 <0>         0.0903
     10 C7          4.2674    0.2493   -2.2682 C.3       1 <0>        -0.1393
     11 C8          5.6590    0.8618   -2.0976 C.3       1 <0>        -0.1172
     12 C9          6.7185   -0.1455   -2.5490 C.3       1 <0>        -0.1239
     13 C10         6.6116   -1.4133   -1.6991 C.3       1 <0>        -0.1171
     14 C11         5.2199   -2.0258   -1.8697 C.3       1 <0>        -0.1145
     15 C12         0.4161   -0.0459   -2.4712 C.ar      1 <0>         0.0242
     16 C13         0.3987    1.3096   -2.8147 C.ar      1 <0>        -0.1225
     17 C14         0.0545    1.6882   -4.0952 C.ar      1 <0>        -0.0200
     18 C15        -0.2732    0.7307   -5.0393 C.ar      1 <0>        -0.6536
     19 C16        -0.2583   -0.6128   -4.7070 C.ar      1 <0>        -0.0185
     20 C17         0.0893   -1.0077   -3.4325 C.ar      1 <0>        -0.1085
     21 S1         -0.7123    1.2247   -6.6726 S.o2      1 <0>         2.4982
     22 O4         -1.5418    0.1778   -7.1575 O.2       1 <0>        -0.9344
     23 O5         -1.2206    2.5438   -6.5282 O.2       1 <0>        -0.9349
     24 C18         0.8540    1.2553   -7.5872 C.3       1 <0>        -0.6500
     25 C19        -1.3838   -0.8392    0.0659 C.3       1 <0>        -0.1523
     26 H1          0.8514    1.7647    0.4465 H         1 <0>         0.0703
     27 H2         -0.6864    1.7565   -0.4498 H         1 <0>         0.0887
     28 H3         -0.6811    1.4946    1.3108 H         1 <0>         0.0863
     29 H4          4.3210   -0.7676   -0.3698 H         1 <0>         0.0708
     30 H5          4.1069   -0.0015   -3.3167 H         1 <0>         0.0746
     31 H6          3.5126    0.9670   -1.9467 H         1 <0>         0.0627
     32 H7          5.7352    1.7650   -2.7031 H         1 <0>         0.0698
     33 H8          5.8195    1.1127   -1.0491 H         1 <0>         0.0641
     34 H9          6.5579   -0.3964   -3.5975 H         1 <0>         0.0654
     35 H10         7.7099    0.2908   -2.4274 H         1 <0>         0.0676
     36 H11         7.3663   -2.1310   -2.0207 H         1 <0>         0.0737
     37 H12         6.7721   -1.1624   -0.6506 H         1 <0>         0.0659
     38 H13         5.1438   -2.9290   -1.2643 H         1 <0>         0.0749
     39 H14         5.0594   -2.2767   -2.9183 H         1 <0>         0.0746
     40 H15         0.6538    2.0580   -2.0790 H         1 <0>         0.1380
     41 H16         0.0402    2.7346   -4.3619 H         1 <0>         0.1484
     42 H17        -0.5156   -1.3540   -5.4492 H         1 <0>         0.1485
     43 H18         0.1048   -2.0567   -3.1759 H         1 <0>         0.1379
     44 H19         1.3024    0.2619   -7.5733 H         1 <0>         0.1323
     45 H20         0.6668    1.5550   -8.6184 H         1 <0>         0.1348
     46 H21         1.5339    1.9675   -7.1196 H         1 <0>         0.1320
     47 H22        -1.9296   -0.4110   -0.7749 H         1 <0>         0.0866
     48 H23        -1.2740   -1.9136   -0.0815 H         1 <0>         0.0710
     49 H24        -1.9337   -0.6534    0.9885 H         1 <0>         0.0838
@<TRIPOS>BOND
     1    1    2 1
     2    1   26 1
     3    1   27 1
     4    1   28 1
     5    2    7 1
     6    2    3 1
     7    2   25 1
     8    3    4 2
     9    3   15 1
    10    4    5 1
    11    4    8 1
    12    5    6 2
    13    5    7 1
    14    8    9 1
    15    9   14 1
    16    9   10 1
    17    9   29 1
    18   10   11 1
    19   10   30 1
    20   10   31 1
    21   11   12 1
    22   11   32 1
    23   11   33 1
    24   12   13 1
    25   12   34 1
    26   12   35 1
    27   13   14 1
    28   13   36 1
    29   13   37 1
    30   14   38 1
    31   14   39 1
    32   15   20 ar
    33   15   16 ar
    34   16   17 ar
    35   16   40 1
    36   17   18 ar
    37   17   41 1
    38   18   19 ar
    39   18   21 1
    40   19   20 ar
    41   19   42 1
    42   20   43 1
    43   21   22 2
    44   21   23 2
    45   21   24 1
    46   24   44 1
    47   24   45 1
    48   24   46 1
    49   25   47 1
    50   25   48 1
    51   25   49 1
@<TRIPOS>MOLECULE
CHEMBL344085
   40    43     0     0     0
SMALL
USER_CHARGES

@<TRIPOS>ATOM
      1 C1         -0.0167    1.3795    0.0096 C.ar      1 <0>        -0.1172
      2 C2          1.1683    2.0938    0.0021 C.ar      1 <0>        -0.1166
      3 C3          2.3774    1.4298   -0.0130 C.ar      1 <0>        -0.1138
      4 C4          2.4036    0.0339   -0.0208 C.ar      1 <0>        -0.0200
      5 C5          1.2042   -0.6806   -0.0131 C.ar      1 <0>        -0.0969
      6 C6          0.0021   -0.0041    0.0020 C.ar      1 <0>        -0.1161
      7 C7          3.6950   -0.6840   -0.0375 C.2       1 <0>         0.0643
      8 C8          4.0090   -1.7423   -0.8263 C.2       1 <0>        -0.1348
      9 C9          5.3278   -2.1223   -0.5275 C.2       1 <0>        -0.1345
     10 C10         5.7907   -1.2861    0.4354 C.2       1 <0>         0.0640
     11 N1          4.7910   -0.3933    0.7391 N.pl3     1 <0>        -0.5502
     12 H1          4.8486    0.3207    1.3931 H         1 <0>         0.4139
     13 C11         7.1357   -1.3249    1.0463 C.ar      1 <0>        -0.0190
     14 C12         7.6923   -2.5434    1.4397 C.ar      1 <0>        -0.0991
     15 C13         8.9483   -2.5724    2.0094 C.ar      1 <0>        -0.1156
     16 C14         9.6563   -1.3975    2.1911 C.ar      1 <0>        -0.1176
     17 C15         9.1106   -0.1865    1.8035 C.ar      1 <0>        -0.1162
     18 C16         7.8579   -0.1438    1.2273 C.ar      1 <0>        -0.1144
     19 C17         6.0375   -3.2719   -1.1979 C.3       1 <0>        -0.0497
     20 C18         4.9838   -4.1477   -1.8878 C.3       1 <0>        -0.1156
     21 C19         4.0725   -3.2755   -2.7540 C.3       1 <0>        -0.1161
     22 C20         3.1540   -2.4350   -1.8576 C.3       1 <0>        -0.0471
     23 H2         -0.9605    1.9042    0.0260 H         1 <0>         0.1239
     24 H3          1.1466    3.1735    0.0078 H         1 <0>         0.1243
     25 H4          3.3016    1.9885   -0.0192 H         1 <0>         0.1184
     26 H5          1.2174   -1.7605   -0.0194 H         1 <0>         0.1269
     27 H6         -0.9265   -0.5555    0.0083 H         1 <0>         0.1265
     28 H7          7.1406   -3.4611    1.2987 H         1 <0>         0.1281
     29 H8          9.3799   -3.5142    2.3145 H         1 <0>         0.1265
     30 H9         10.6391   -1.4258    2.6379 H         1 <0>         0.1239
     31 H10         9.6685    0.7268    1.9482 H         1 <0>         0.1243
     32 H11         7.4349    0.8016    0.9211 H         1 <0>         0.1184
     33 H12         6.7397   -2.8891   -1.9385 H         1 <0>         0.0687
     34 H13         6.5727   -3.8592   -0.4517 H         1 <0>         0.0694
     35 H14         5.4814   -4.8870   -2.5154 H         1 <0>         0.0634
     36 H15         4.3860   -4.6582   -1.1326 H         1 <0>         0.0629
     37 H16         4.6821   -2.6142   -3.3697 H         1 <0>         0.0626
     38 H17         3.4663   -3.9125   -3.3981 H         1 <0>         0.0635
     39 H18         2.4312   -3.0826   -1.3614 H         1 <0>         0.0684
     40 H19         2.6307   -1.6927   -2.4603 H         1 <0>         0.0682
@<TRIPOS>BOND
     1    1    6 ar
     2    1    2 ar
     3    1   23 1
     4    2    3 ar
     5    2   24 1
     6    3    4 ar
     7    3   25 1
     8    4    5 ar
     9    4    7 1
    10    5    6 ar
    11    5   26 1
    12    6   27 1
    13    7   11 1
    14    7    8 2
    15    8   22 1
    16    8    9 1
    17    9   10 2
    18    9   19 1
    19   10   11 1
    20   10   13 1
    21   11   12 1
    22   13   18 ar
    23   13   14 ar
    24   14   15 ar
    25   14   28 1
    26   15   16 ar
    27   15   29 1
    28   16   17 ar
    29   16   30 1
    30   17   18 ar
    31   17   31 1
    32   18   32 1
    33   19   20 1
    34   19   33 1
    35   19   34 1
    36   20   21 1
    37   20   35 1
    38   20   36 1
    39   21   22 1
    40   21   37 1
    41   21   38 1
    42   22   39 1
    43   22   40 1
@<TRIPOS>MOLECULE
CHEMBL68514
   56    58     0     0     0
SMALL
USER_CHARGES

@<TRIPOS>ATOM
      1 C1         -1.4385    0.1580    0.0330 C.3       1 <0>        -0.1188
      2 C2         -0.3349   -0.8653    0.1108 C.ar      1 <0>        -0.0565
      3 C3          0.0187   -1.5855   -1.0187 C.ar      1 <0>        -0.1010
      4 C4          1.0309   -2.5247   -0.9493 C.ar      1 <0>        -0.0855
      5 C5          1.6883   -2.7435    0.2490 C.ar      1 <0>        -0.1054
      6 C6          1.3340   -2.0240    1.3793 C.ar      1 <0>         0.1139
      7 C7          0.3228   -1.0768    1.3054 C.ar      1 <0>        -0.0884
      8 C8         -0.0619   -0.2862    2.5293 C.3       1 <0>        -0.0021
      9 C9          1.2010    0.1240    3.2893 C.3       1 <0>        -0.1156
     10 C10         0.8629    1.2472    4.2717 C.3       1 <0>        -0.1186
     11 C11         2.1259    1.6573    5.0317 C.3       1 <0>        -0.1182
     12 C12         1.7877    2.7805    6.0141 C.3       1 <0>        -0.0926
     13 C13         3.0507    3.1906    6.7741 C.3       1 <0>        -0.1834
     14 C14         2.7177    4.2969    7.7418 C.2       1 <0>         0.4871
     15 O1          1.5760    4.7182    7.8166 O.co2     1 <0>        -0.6998
     16 O2          3.5899    4.7706    8.4498 O.co2     1 <0>        -0.7101
     17 C15        -0.9323   -1.1332    3.4215 C.ar      1 <0>        -0.0754
     18 C16        -0.5653   -2.4343    3.7108 C.ar      1 <0>        -0.0823
     19 C17        -1.3623   -3.2119    4.5292 C.ar      1 <0>        -0.1567
     20 C18        -2.5289   -2.6875    5.0595 C.ar      1 <0>         0.0899
     21 C19        -2.8955   -1.3843    4.7690 C.ar      1 <0>        -0.1547
     22 C20        -2.0941   -0.6068    3.9546 C.ar      1 <0>        -0.0868
     23 F1         -3.3091   -3.4469    5.8593 F         1 <0>        -0.1446
     24 O3          1.9802   -2.2405    2.5551 O.3       1 <0>        -0.4875
     25 C21         2.7917   -3.7671    0.3249 C.3       1 <0>        -0.1117
     26 C22         1.2243   -3.1697   -2.3051 C.3       1 <0>        -0.0792
     27 C23        -0.0605   -2.8421   -3.0952 C.3       1 <0>        -0.1207
     28 C24        -0.5367   -1.5353   -2.4262 C.3       1 <0>        -0.0793
     29 H1         -1.0061    1.1489   -0.1055 H         1 <0>         0.0728
     30 H2         -2.0910   -0.0746   -0.8086 H         1 <0>         0.0655
     31 H3         -2.0167    0.1397    0.9568 H         1 <0>         0.0706
     32 H4         -0.6105    0.6062    2.2278 H         1 <0>         0.0900
     33 H5          1.5896   -0.7339    3.8380 H         1 <0>         0.0849
     34 H6          1.9530    0.4740    2.5821 H         1 <0>         0.0602
     35 H7          0.4743    2.1051    3.7230 H         1 <0>         0.0584
     36 H8          0.1109    0.8972    4.9789 H         1 <0>         0.0623
     37 H9          2.5145    0.7994    5.5804 H         1 <0>         0.0544
     38 H10         2.8779    2.0073    4.3246 H         1 <0>         0.0529
     39 H11         1.3991    3.6384    5.4654 H         1 <0>         0.0565
     40 H12         1.0357    2.4305    6.7213 H         1 <0>         0.0570
     41 H13         3.4393    2.3327    7.3228 H         1 <0>         0.0537
     42 H14         3.8027    3.5406    6.0670 H         1 <0>         0.0534
     43 H15         0.3445   -2.8433    3.2968 H         1 <0>         0.1546
     44 H16        -1.0756   -4.2284    4.7549 H         1 <0>         0.1299
     45 H17        -3.8054   -0.9742    5.1818 H         1 <0>         0.1329
     46 H18        -2.3775    0.4112    3.7315 H         1 <0>         0.1309
     47 H19         2.8126   -1.7560    2.6415 H         1 <0>         0.3876
     48 H20         3.7454   -3.2907    0.0979 H         1 <0>         0.0667
     49 H21         2.8265   -4.1900    1.3289 H         1 <0>         0.0722
     50 H22         2.6011   -4.5610   -0.3974 H         1 <0>         0.0640
     51 H23         2.0946   -2.7449   -2.8053 H         1 <0>         0.0790
     52 H24         1.3377   -4.2485   -2.1980 H         1 <0>         0.0734
     53 H25         0.1640   -2.6783   -4.1492 H         1 <0>         0.0758
     54 H26        -0.8018   -3.6319   -2.9740 H         1 <0>         0.0715
     55 H27        -1.6258   -1.4980   -2.4018 H         1 <0>         0.0738
     56 H28        -0.1397   -0.6712   -2.9589 H         1 <0>         0.0789
@<TRIPOS>BOND
     1    1    2 1
     2    1   29 1
     3    1   30 1
     4    1   31 1
     5    2    7 ar
     6    2    3 ar
     7    3   28 1
     8    3    4 ar
     9    4    5 ar
    10    4   26 1
    11    5    6 ar
    12    5   25 1
    13    6    7 ar
    14    6   24 1
    15    7    8 1
    16    8    9 1
    17    8   17 1
    18    8   32 1
    19    9   10 1
    20    9   33 1
    21    9   34 1
    22   10   11 1
    23   10   35 1
    24   10   36 1
    25   11   12 1
    26   11   37 1
    27   11   38 1
    28   12   13 1
    29   12   39 1
    30   12   40 1
    31   13   14 1
    32   13   41 1
    33   13   42 1
    34   14   15 2
    35   14   16 1
    36   17   22 ar
    37   17   18 ar
    38   18   19 ar
    39   18   43 1
    40   19   20 ar
    41   19   44 1
    42   20   21 ar
    43   20   23 1
    44   21   22 ar
    45   21   45 1
    46   22   46 1
    47   24   47 1
    48   25   48 1
    49   25   49 1
    50   25   50 1
    51   26   27 1
    52   26   51 1
    53   26   52 1
    54   27   28 1
    55   27   53 1
    56   27   54 1
    57   28   55 1
    58   28   56 1
@<TRIPOS>MOLECULE
CHEMBL68514__1
   56    58     0     0     0
SMALL
USER_CHARGES

@<TRIPOS>ATOM
      1 C1         -0.8137    2.2189   -0.2955 C.3       1 <0>        -0.1198
      2 C2         -0.3231    0.8026   -0.4523 C.ar      1 <0>        -0.0573
      3 C3          0.0118    0.3239   -1.7086 C.ar      1 <0>        -0.1034
      4 C4          0.4620   -0.9752   -1.8545 C.ar      1 <0>        -0.0842
      5 C5          0.5765   -1.7946   -0.7448 C.ar      1 <0>        -0.1116
      6 C6          0.2405   -1.3164    0.5119 C.ar      1 <0>         0.1206
      7 C7         -0.2041   -0.0100    0.6567 C.ar      1 <0>        -0.0847
      8 C8         -0.5639    0.5180    2.0216 C.3       1 <0>        -0.0055
      9 C9         -1.3524   -0.5457    2.7883 C.3       1 <0>        -0.1209
     10 C10        -1.8247    0.0333    4.1235 C.3       1 <0>        -0.1196
     11 C11        -2.6131   -1.0304    4.8902 C.3       1 <0>        -0.1173
     12 C12        -3.0854   -0.4514    6.2254 C.3       1 <0>        -0.0923
     13 C13        -3.8739   -1.5151    6.9921 C.3       1 <0>        -0.1833
     14 C14        -4.3391   -0.9448    8.3072 C.2       1 <0>         0.4872
     15 O1         -4.0654    0.2057    8.6037 O.co2     1 <0>        -0.6999
     16 O2         -4.9892   -1.6340    9.0746 O.co2     1 <0>        -0.7106
     17 C15         0.6953    0.8529    2.7787 C.ar      1 <0>        -0.0687
     18 C16         1.3254   -0.1178    3.5349 C.ar      1 <0>        -0.0893
     19 C17         2.4805    0.1880    4.2293 C.ar      1 <0>        -0.1508
     20 C18         3.0067    1.4672    4.1673 C.ar      1 <0>         0.0899
     21 C19         2.3748    2.4386    3.4095 C.ar      1 <0>        -0.1515
     22 C20         1.2227    2.1291    2.7118 C.ar      1 <0>        -0.0894
     23 F1          4.1356    1.7675    4.8460 F         1 <0>        -0.1433
     24 O3          0.3532   -2.1224    1.6002 O.3       1 <0>        -0.4800
     25 C21         1.0673   -3.2105   -0.9036 C.3       1 <0>        -0.1125
     26 C22         0.7586   -1.2532   -3.3127 C.3       1 <0>        -0.0793
     27 C23         0.0311   -0.1375   -4.0927 C.3       1 <0>        -0.1208
     28 C24        -0.0245    1.0072   -3.0590 C.3       1 <0>        -0.0785
     29 H1          0.0175    2.8611   -0.0041 H         1 <0>         0.0708
     30 H2         -1.2274    2.5670   -1.2419 H         1 <0>         0.0663
     31 H3         -1.5859    2.2529    0.4731 H         1 <0>         0.0732
     32 H4         -1.1733    1.4154    1.9149 H         1 <0>         0.0908
     33 H5         -2.2166   -0.8523    2.1992 H         1 <0>         0.0607
     34 H6         -0.7133   -1.4092    2.9725 H         1 <0>         0.0983
     35 H7         -0.9604    0.3399    4.7126 H         1 <0>         0.0611
     36 H8         -2.4637    0.8969    3.9393 H         1 <0>         0.0559
     37 H9         -3.4774   -1.3370    4.3011 H         1 <0>         0.0528
     38 H10        -1.9740   -1.8939    5.0744 H         1 <0>         0.0540
     39 H11        -2.2211   -0.1448    6.8145 H         1 <0>         0.0563
     40 H12        -3.7245    0.4122    6.0412 H         1 <0>         0.0559
     41 H13        -4.7382   -1.8217    6.4030 H         1 <0>         0.0535
     42 H14        -3.2348   -2.3786    7.1763 H         1 <0>         0.0536
     43 H15         0.9146   -1.1154    3.5834 H         1 <0>         0.1426
     44 H16         2.9723   -0.5704    4.8203 H         1 <0>         0.1345
     45 H17         2.7841    3.4368    3.3607 H         1 <0>         0.1323
     46 H18         0.7321    2.8854    2.1171 H         1 <0>         0.1290
     47 H19         1.2626   -2.2491    1.9034 H         1 <0>         0.3813
     48 H20         2.1527   -3.2320   -0.8055 H         1 <0>         0.0655
     49 H21         0.6203   -3.8386   -0.1330 H         1 <0>         0.0725
     50 H22         0.7839   -3.5852   -1.8872 H         1 <0>         0.0651
     51 H23         1.8319   -1.2048   -3.4962 H         1 <0>         0.0782
     52 H24         0.3688   -2.2302   -3.5984 H         1 <0>         0.0736
     53 H25         0.6058    0.1600   -4.9697 H         1 <0>         0.0754
     54 H26        -0.9731   -0.4537   -4.3750 H         1 <0>         0.0721
     55 H27        -0.9488    1.5738   -3.1714 H         1 <0>         0.0740
     56 H28         0.8384    1.6631   -3.1742 H         1 <0>         0.0777
@<TRIPOS>BOND
     1    1    2 1
     2    1   29 1
     3    1   30 1
     4    1   31 1
     5    2    7 ar
     6    2    3 ar
     7    3   28 1
     8    3    4 ar
     9    4    5 ar
    10    4   26 1
    11    5    6 ar
    12    5   25 1
    13    6    7 ar
    14    6   24 1
    15    7    8 1
    16    8    9 1
    17    8   17 1
    18    8   32 1
    19    9   10 1
    20    9   33 1
    21    9   34 1
    22   10   11 1
    23   10   35 1
    24   10   36 1
    25   11   12 1
    26   11   37 1
    27   11   38 1
    28   12   13 1
    29   12   39 1
    30   12   40 1
    31   13   14 1
    32   13   41 1
    33   13   42 1
    34   14   15 2
    35   14   16 1
    36   17   22 ar
    37   17   18 ar
    38   18   19 ar
    39   18   43 1
    40   19   20 ar
    41   19   44 1
    42   20   21 ar
    43   20   23 1
    44   21   22 ar
    45   21   45 1
    46   22   46 1
    47   24   47 1
    48   25   48 1
    49   25   49 1
    50   25   50 1
    51   26   27 1
    52   26   51 1
    53   26   52 1
    54   27   28 1
    55   27   53 1
    56   27   54 1
    57   28   55 1
    58   28   56 1
@<TRIPOS>MOLECULE
CHEMBL16689
   41    44     0     0     0
SMALL
USER_CHARGES

@<TRIPOS>ATOM
      1 C1          0.8994   -1.1556    1.3477 C.3       1 <0>        -0.6500
      2 S1         -0.0068   -0.2499    0.0635 S.o2      1 <0>         2.4979
      3 O1         -1.3043   -0.8048   -0.1036 O.2       1 <0>        -0.9347
      4 O2          0.1655    1.1498    0.2376 O.2       1 <0>        -0.9341
      5 C2          0.8387   -0.6239   -1.4365 C.ar      1 <0>        -0.6530
      6 C3          1.8873    0.1769   -1.8538 C.ar      1 <0>        -0.0182
      7 C4          2.5538   -0.1097   -3.0268 C.ar      1 <0>        -0.1077
      8 C5          2.1681   -1.2119   -3.7940 C.ar      1 <0>         0.0508
      9 C6          1.1088   -2.0162   -3.3661 C.ar      1 <0>        -0.1217
     10 C7          0.4546   -1.7202   -2.1885 C.ar      1 <0>        -0.0181
     11 C8          2.8758   -1.5247   -5.0502 C.2       1 <0>        -0.1515
     12 C9          4.2442   -1.6099   -5.3037 C.2       1 <0>         0.1311
     13 N1          4.6460   -1.9089   -6.5220 N.2       1 <0>        -0.4800
     14 C10         3.7807   -2.1283   -7.5028 C.2       1 <0>         0.1985
     15 S2          2.2161   -1.9074   -6.6676 S.3       1 <0>         0.0748
     16 C11         4.0407   -2.4698   -8.9090 C.2       1 <0>        -0.1165
     17 C12         5.2509   -2.6519   -9.5525 C.2       1 <0>        -0.0826
     18 C13         5.2390   -2.9707  -10.8907 C.2       1 <0>        -0.1649
     19 C14         4.0489   -3.0959  -11.5337 C.2       1 <0>        -0.1467
     20 S3          2.8758   -2.7653  -10.2295 S.3       1 <0>         0.1016
     21 C15         5.2282   -1.3681   -4.2229 C.ar      1 <0>        -0.0396
     22 C16         5.0204   -1.9083   -2.9539 C.ar      1 <0>        -0.0656
     23 C17         5.9395   -1.6803   -1.9508 C.ar      1 <0>        -0.1532
     24 C18         7.0676   -0.9160   -2.2022 C.ar      1 <0>         0.1113
     25 C19         7.2783   -0.3768   -3.4611 C.ar      1 <0>        -0.1539
     26 C20         6.3681   -0.6043   -4.4725 C.ar      1 <0>        -0.0534
     27 F1          7.9649   -0.6955   -1.2166 F         1 <0>        -0.1355
     28 H1          0.8745   -2.2225    1.1261 H         1 <0>         0.1324
     29 H2          1.9340   -0.8135    1.3721 H         1 <0>         0.1326
     30 H3          0.4340   -0.9749    2.3167 H         1 <0>         0.1348
     31 H4          2.1844    1.0285   -1.2597 H         1 <0>         0.1493
     32 H5          3.3715    0.5165   -3.3517 H         1 <0>         0.1374
     33 H6          0.8051   -2.8695   -3.9543 H         1 <0>         0.1372
     34 H7         -0.3620   -2.3431   -1.8546 H         1 <0>         0.1494
     35 H8          6.1831   -2.5460   -9.0176 H         1 <0>         0.1470
     36 H9          6.1660   -3.1196  -11.4245 H         1 <0>         0.1464
     37 H10         3.8604   -3.3379  -12.5693 H         1 <0>         0.1965
     38 H11         4.1413   -2.5038   -2.7569 H         1 <0>         0.1328
     39 H12         5.7794   -2.0979   -0.9677 H         1 <0>         0.1405
     40 H13         8.1587    0.2188   -3.6520 H         1 <0>         0.1412
     41 H14         6.5356   -0.1876   -5.4547 H         1 <0>         0.1377
@<TRIPOS>BOND
     1    1    2 1
     2    1   28 1
     3    1   29 1
     4    1   30 1
     5    2    3 2
     6    2    4 2
     7    2    5 1
     8    5   10 ar
     9    5    6 ar
    10    6    7 ar
    11    6   31 1
    12    7    8 ar
    13    7   32 1
    14    8    9 ar
    15    8   11 1
    16    9   10 ar
    17    9   33 1
    18   10   34 1
    19   11   15 1
    20   11   12 2
    21   12   13 1
    22   12   21 1
    23   13   14 2
    24   14   15 1
    25   14   16 1
    26   16   20 1
    27   16   17 2
    28   17   18 1
    29   17   35 1
    30   18   19 2
    31   18   36 1
    32   19   20 1
    33   19   37 1
    34   21   26 ar
    35   21   22 ar
    36   22   23 ar
    37   22   38 1
    38   23   24 ar
    39   23   39 1
    40   24   25 ar
    41   24   27 1
    42   25   26 ar
    43   25   40 1
    44   26   41 1
@<TRIPOS>MOLECULE
CHEMBL317321
   55    58     0     0     0
SMALL
USER_CHARGES

@<TRIPOS>ATOM
      1 C1         -0.0274    1.5406    0.0105 C.3       1 <0>        -0.1720
      2 C2         -0.0040    0.0107    0.0035 C.3       1 <0>         0.1257
      3 N1          0.6832   -0.4617   -1.2009 N.pl3     1 <0>        -0.3873
      4 C3          0.1055   -0.7253   -2.3952 C.2       1 <0>         0.3058
      5 C4          1.0863   -1.1380   -3.2438 C.2       1 <0>        -0.2798
      6 C5          2.2942   -1.1236   -2.5411 C.2       1 <0>         0.0589
      7 N2          2.0556   -0.7145   -1.3213 N.2       1 <0>        -0.2908
      8 N3         -1.2492   -0.5977   -2.7014 N.am      1 <0>        -0.6536
      9 C6         -1.6914   -0.8962   -3.9390 C.2       1 <0>         0.5195
     10 O1         -0.9113   -1.2757   -4.7866 O.2       1 <0>        -0.4875
     11 C7         -3.1552   -0.7584   -4.2698 C.3       1 <0>        -0.0578
     12 C8         -3.3846   -1.1508   -5.7066 C.2       1 <0>        -0.1474
     13 C9         -3.3349   -0.3378   -6.7711 C.2       1 <0>         0.1244
     14 N4         -3.5973   -1.0499   -7.9163 N.am      1 <0>        -0.5036
     15 C10        -3.8279   -2.3771   -7.5975 C.ar      1 <0>         0.0767
     16 C11        -3.6980   -2.4953   -6.2028 C.ar      1 <0>        -0.0347
     17 C12        -3.8729   -3.7359   -5.5888 C.ar      1 <0>        -0.1113
     18 C13        -4.1701   -4.8435   -6.3598 C.ar      1 <0>         0.1140
     19 C14        -4.2939   -4.7235   -7.7406 C.ar      1 <0>        -0.1750
     20 C15        -4.1314   -3.5007   -8.3555 C.ar      1 <0>        -0.0822
     21 O2         -4.3418   -6.0552   -5.7671 O.3       1 <0>        -0.3165
     22 C16        -4.6471   -7.1584   -6.6225 C.3       1 <0>         0.0269
     23 C17        -3.6258   -0.5345   -9.1613 C.2       1 <0>         0.6019
     24 O3         -4.6814   -0.1803   -9.6482 O.2       1 <0>        -0.4275
     25 C18        -2.3745   -0.4003   -9.9336 C.ar      1 <0>        -0.1665
     26 C19        -1.1775   -0.9075   -9.4230 C.ar      1 <0>        -0.0421
     27 C20        -0.0123   -0.7790  -10.1490 C.ar      1 <0>        -0.1200
     28 C21        -0.0273   -0.1484  -11.3823 C.ar      1 <0>         0.0042
     29 C22        -1.2112    0.3572  -11.8939 C.ar      1 <0>        -0.1234
     30 C23        -2.3841    0.2294  -11.1803 C.ar      1 <0>        -0.0382
     31 Cl1         1.4438    0.0095  -12.2903 Cl        1 <0>        -0.0516
     32 C24        -3.0364    1.1384   -6.7193 C.3       1 <0>        -0.1046
     33 H1          0.9946    1.9196    0.0030 H         1 <0>         0.0685
     34 H2         -0.5547    1.8999   -0.8732 H         1 <0>         0.0584
     35 H3         -0.5386    1.8920    0.9067 H         1 <0>         0.0791
     36 H4          0.5233   -0.3486    0.8872 H         1 <0>         0.1005
     37 H5         -1.0259   -0.3683    0.0111 H         1 <0>         0.0859
     38 H6          0.9545   -1.4261   -4.2763 H         1 <0>         0.1718
     39 H7          3.2601   -1.3992   -2.9380 H         1 <0>         0.1855
     40 H8         -1.8732   -0.2942   -2.0235 H         1 <0>         0.4096
     41 H9         -3.7379   -1.4093   -3.6179 H         1 <0>         0.1113
     42 H10        -3.4654    0.2760   -4.1217 H         1 <0>         0.1086
     43 H11        -3.7764   -3.8300   -4.5173 H         1 <0>         0.1322
     44 H12        -4.5260   -5.5949   -8.3350 H         1 <0>         0.1358
     45 H13        -4.2280   -3.4185   -9.4281 H         1 <0>         0.1228
     46 H14        -5.5769   -6.9586   -7.1552 H         1 <0>         0.0554
     47 H15        -3.8390   -7.2957   -7.3409 H         1 <0>         0.0556
     48 H16        -4.7585   -8.0624   -6.0237 H         1 <0>         0.1007
     49 H17        -1.1645   -1.3991   -8.4615 H         1 <0>         0.1447
     50 H18         0.9139   -1.1705   -9.7552 H         1 <0>         0.1458
     51 H19        -1.2163    0.8484  -12.8557 H         1 <0>         0.1463
     52 H20        -3.3073    0.6198  -11.5824 H         1 <0>         0.1474
     53 H21        -1.9618    1.2952   -6.8121 H         1 <0>         0.0878
     54 H22        -3.5491    1.6417   -7.5390 H         1 <0>         0.0703
     55 H23        -3.3825    1.5460   -5.7695 H         1 <0>         0.0917
@<TRIPOS>BOND
     1    1    2 1
     2    1   33 1
     3    1   34 1
     4    1   35 1
     5    2    3 1
     6    2   36 1
     7    2   37 1
     8    3    7 1
     9    3    4 1
    10    4    5 2
    11    4    8 1
    12    5    6 1
    13    5   38 1
    14    6    7 2
    15    6   39 1
    16    8    9 am
    17    8   40 1
    18    9   10 2
    19    9   11 1
    20   11   12 1
    21   11   41 1
    22   11   42 1
    23   12   16 1
    24   12   13 2
    25   13   14 1
    26   13   32 1
    27   14   15 1
    28   14   23 am
    29   15   20 ar
    30   15   16 ar
    31   16   17 ar
    32   17   18 ar
    33   17   43 1
    34   18   19 ar
    35   18   21 1
    36   19   20 ar
    37   19   44 1
    38   20   45 1
    39   21   22 1
    40   22   46 1
    41   22   47 1
    42   22   48 1
    43   23   24 2
    44   23   25 1
    45   25   30 ar
    46   25   26 ar
    47   26   27 ar
    48   26   49 1
    49   27   28 ar
    50   27   50 1
    51   28   29 ar
    52   28   31 1
    53   29   30 ar
    54   29   51 1
    55   30   52 1
    56   32   53 1
    57   32   54 1
    58   32   55 1
@<TRIPOS>MOLECULE
CHEMBL61422
   35    39     0     0     0
SMALL
USER_CHARGES

@<TRIPOS>ATOM
      1 C1         -0.0167    1.3790    0.0096 C.ar      1 <0>        -0.1190
      2 C2          1.1717    2.0854    0.0021 C.ar      1 <0>        -0.1195
      3 C3          2.3809    1.4171   -0.0145 C.ar      1 <0>        -0.1201
      4 C4          2.4125    0.0298   -0.0230 C.ar      1 <0>         0.0850
      5 C5          1.2099   -0.6787   -0.0152 C.ar      1 <0>         0.1219
      6 C6          0.0021   -0.0041    0.0020 C.ar      1 <0>        -0.1133
      7 N1          1.2405   -2.0850   -0.0268 N.pl3     1 <0>        -0.4609
      8 C7          2.4913   -2.6590   -0.0481 C.ar      1 <0>        -0.0282
      9 C8          2.4033   -4.0420   -0.0615 C.ar      1 <0>         0.0445
     10 C9          3.5962   -4.7635   -0.0852 C.ar      1 <0>        -0.1466
     11 C10         4.7958   -4.0771   -0.0938 C.ar      1 <0>        -0.0927
     12 C11         4.8534   -2.6871   -0.0792 C.ar      1 <0>        -0.1750
     13 C12         3.6771   -1.9583   -0.0556 C.ar      1 <0>         0.1189
     14 O1          3.6223   -0.6023   -0.0393 O.3       1 <0>        -0.2502
     15 C13         0.9569   -4.3174   -0.0448 C.2       1 <0>        -0.4407
     16 C14         0.3155   -3.0786   -0.0235 C.2       1 <0>         0.4944
     17 O2         -1.0239   -2.8954   -0.0024 O.3       1 <0>        -0.6728
     18 C15         0.3178   -5.6322   -0.0495 C.2       1 <0>         0.6392
     19 O3          0.0658   -6.1905    1.0029 O.2       1 <0>        -0.4840
     20 N2          0.0075   -6.2264   -1.2188 N.am      1 <0>        -0.6165
     21 C16        -0.5998   -7.4756   -1.2233 C.2       1 <0>         0.3079
     22 N3         -0.9486   -8.2188   -0.1952 N.2       1 <0>        -0.5356
     23 C17        -1.5225   -9.3954   -0.3675 C.2       1 <0>         0.0735
     24 C18        -1.7333   -9.7970   -1.6449 C.2       1 <0>        -0.2721
     25 S1         -1.0748   -8.4028   -2.5451 S.3       1 <0>         0.0695
     26 H1         -0.9589    1.9066    0.0260 H         1 <0>         0.1288
     27 H2          1.1547    3.1652    0.0088 H         1 <0>         0.1300
     28 H3          3.3048    1.9765   -0.0213 H         1 <0>         0.1354
     29 H4         -0.9256   -0.5570    0.0092 H         1 <0>         0.1502
     30 H5          3.5830   -5.8433   -0.0965 H         1 <0>         0.1170
     31 H6          5.7186   -4.6381   -0.1120 H         1 <0>         0.1205
     32 H7          5.8076   -2.1813   -0.0859 H         1 <0>         0.1258
     33 H8          0.2082   -5.7816   -2.0571 H         1 <0>         0.4233
     34 H9         -1.8110  -10.0106    0.4720 H         1 <0>         0.1694
     35 H10        -2.1799  -10.7077   -2.0158 H         1 <0>         0.1921
@<TRIPOS>BOND
     1    1    6 ar
     2    1    2 ar
     3    1   26 1
     4    2    3 ar
     5    2   27 1
     6    3    4 ar
     7    3   28 1
     8    4   14 1
     9    4    5 ar
    10    5    6 ar
    11    5    7 1
    12    6   29 1
    13    7   16 1
    14    7    8 1
    15    8   13 ar
    16    8    9 ar
    17    9   10 ar
    18    9   15 1
    19   10   11 ar
    20   10   30 1
    21   11   12 ar
    22   11   31 1
    23   12   13 ar
    24   12   32 1
    25   13   14 1
    26   15   16 2
    27   15   18 1
    28   16   17 1
    29   18   19 2
    30   18   20 am
    31   20   21 1
    32   20   33 1
    33   21   25 1
    34   21   22 2
    35   22   23 1
    36   23   24 2
    37   23   34 1
    38   24   25 1
    39   24   35 1
@<TRIPOS>MOLECULE
CHEMBL61422__1
   36    40     0     0     0
SMALL
USER_CHARGES

@<TRIPOS>ATOM
      1 C1         -0.0167    1.3792    0.0096 C.ar      1 <0>        -0.1133
      2 C2          1.1714    2.0858    0.0021 C.ar      1 <0>        -0.0936
      3 C3          2.3812    1.4179   -0.0118 C.ar      1 <0>        -0.1107
      4 C4          2.4120    0.0307   -0.0183 C.ar      1 <0>         0.0992
      5 C5          1.2107   -0.6777   -0.0120 C.ar      1 <0>         0.0872
      6 C6          0.0021   -0.0041    0.0020 C.ar      1 <0>        -0.1044
      7 N1          1.2393   -2.0861   -0.0205 N.am      1 <0>        -0.4903
      8 C7          2.4956   -2.6781   -0.0295 C.ar      1 <0>         0.0430
      9 C8          2.4483   -4.0504   -0.0343 C.ar      1 <0>        -0.0749
     10 C9          3.6346   -4.7517   -0.0419 C.ar      1 <0>        -0.0615
     11 C10         4.8343   -4.0555   -0.0450 C.ar      1 <0>        -0.0935
     12 C11         4.8673   -2.6692   -0.0415 C.ar      1 <0>        -0.0959
     13 C12         3.6759   -1.9614   -0.0341 C.ar      1 <0>         0.1083
     14 O1          3.6177   -0.6056   -0.0310 O.3       1 <0>        -0.2388
     15 C13         0.9778   -4.3863   -0.0298 C.3       1 <0>        -0.0873
     16 C14         0.2826   -3.0347   -0.0211 C.2       1 <0>         0.5437
     17 O2         -0.9156   -2.8447   -0.0160 O.2       1 <0>        -0.4747
     18 C15         0.6204   -5.1704    1.2065 C.2       1 <0>         0.5318
     19 O3          1.4766   -5.4401    2.0221 O.2       1 <0>        -0.4393
     20 N2         -0.6506   -5.5719    1.4059 N.am      1 <0>        -0.6153
     21 C16        -0.9802   -6.2951    2.5463 C.2       1 <0>         0.2673
     22 N3         -0.1940   -6.6705    3.5318 N.2       1 <0>        -0.5215
     23 C17        -0.6639   -7.3600    4.5548 C.2       1 <0>         0.0617
     24 C18        -1.9860   -7.6599    4.5405 C.2       1 <0>        -0.2416
     25 S1         -2.4836   -6.8967    3.0050 S.3       1 <0>         0.1209
     26 H1         -0.9590    1.9066    0.0260 H         1 <0>         0.1396
     27 H2          1.1541    3.1657    0.0067 H         1 <0>         0.1423
     28 H3          3.3051    1.9771   -0.0179 H         1 <0>         0.1469
     29 H4         -0.9254   -0.5575    0.0067 H         1 <0>         0.1467
     30 H5          3.6302   -5.8317   -0.0450 H         1 <0>         0.1427
     31 H6          5.7637   -4.6055   -0.0499 H         1 <0>         0.1474
     32 H7          5.8123   -2.1463   -0.0441 H         1 <0>         0.1505
     33 H8          0.7120   -4.9456   -0.9268 H         1 <0>         0.1662
     34 H9         -1.3353   -5.3561    0.7536 H         1 <0>         0.4323
     35 H10        -0.0237   -7.6715    5.3669 H         1 <0>         0.1778
     36 H11        -2.5762   -8.2065    5.2611 H         1 <0>         0.2012
@<TRIPOS>BOND
     1    1    6 ar
     2    1    2 ar
     3    1   26 1
     4    2    3 ar
     5    2   27 1
     6    3    4 ar
     7    3   28 1
     8    4   14 1
     9    4    5 ar
    10    5    6 ar
    11    5    7 1
    12    6   29 1
    13    7   16 am
    14    7    8 1
    15    8   13 ar
    16    8    9 ar
    17    9   10 ar
    18    9   15 1
    19   10   11 ar
    20   10   30 1
    21   11   12 ar
    22   11   31 1
    23   12   13 ar
    24   12   32 1
    25   13   14 1
    26   15   16 1
    27   15   18 1
    28   15   33 1
    29   16   17 2
    30   18   19 2
    31   18   20 am
    32   20   21 1
    33   20   34 1
    34   21   25 1
    35   21   22 2
    36   22   23 1
    37   23   24 2
    38   23   35 1
    39   24   25 1
    40   24   36 1
@<TRIPOS>MOLECULE
CHEMBL61422__2
   36    40     0     0     0
SMALL
USER_CHARGES

@<TRIPOS>ATOM
      1 C1         -0.0167    1.3792    0.0096 C.ar      1 <0>        -0.1133
      2 C2          1.1714    2.0858    0.0021 C.ar      1 <0>        -0.0936
      3 C3          2.3812    1.4179   -0.0118 C.ar      1 <0>        -0.1107
      4 C4          2.4120    0.0307   -0.0183 C.ar      1 <0>         0.0992
      5 C5          1.2107   -0.6777   -0.0120 C.ar      1 <0>         0.0872
      6 C6          0.0021   -0.0041    0.0020 C.ar      1 <0>        -0.1043
      7 N1          1.2393   -2.0861   -0.0205 N.am      1 <0>        -0.4903
      8 C7          2.4956   -2.6781   -0.0295 C.ar      1 <0>         0.0430
      9 C8          2.4483   -4.0504   -0.0343 C.ar      1 <0>        -0.0750
     10 C9          3.6346   -4.7517   -0.0419 C.ar      1 <0>        -0.0615
     11 C10         4.8343   -4.0555   -0.0450 C.ar      1 <0>        -0.0935
     12 C11         4.8673   -2.6692   -0.0415 C.ar      1 <0>        -0.0959
     13 C12         3.6759   -1.9614   -0.0341 C.ar      1 <0>         0.1083
     14 O1          3.6177   -0.6056   -0.0310 O.3       1 <0>        -0.2388
     15 C13         0.9778   -4.3863   -0.0298 C.3       1 <0>        -0.0873
     16 C14         0.2826   -3.0347   -0.0211 C.2       1 <0>         0.5437
     17 O2         -0.9156   -2.8447   -0.0160 O.2       1 <0>        -0.4747
     18 C15         0.6104   -5.1596   -1.2700 C.2       1 <0>         0.5318
     19 O3          1.4599   -5.4222   -2.0948 O.2       1 <0>        -0.4392
     20 N2         -0.6623   -5.5594   -1.4625 N.am      1 <0>        -0.6153
     21 C16        -1.0012   -6.2726   -2.6064 C.2       1 <0>         0.2673
     22 N3         -0.2207   -6.6494   -3.5960 N.2       1 <0>        -0.5215
     23 C17        -0.6994   -7.3282   -4.6221 C.2       1 <0>         0.0617
     24 C18        -2.0241   -7.6160   -4.6064 C.2       1 <0>        -0.2417
     25 S1         -2.5083   -6.8703   -3.0581 S.3       1 <0>         0.1209
     26 H1         -0.9590    1.9066    0.0260 H         1 <0>         0.1396
     27 H2          1.1541    3.1657    0.0067 H         1 <0>         0.1423
     28 H3          3.3051    1.9771   -0.0179 H         1 <0>         0.1469
     29 H4         -0.9254   -0.5575    0.0067 H         1 <0>         0.1467
     30 H5          3.6302   -5.8317   -0.0450 H         1 <0>         0.1427
     31 H6          5.7637   -4.6055   -0.0499 H         1 <0>         0.1474
     32 H7          5.8123   -2.1463   -0.0441 H         1 <0>         0.1505
     33 H8          0.7193   -4.9534    0.8644 H         1 <0>         0.1661
     34 H9         -1.3417   -5.3493   -0.8028 H         1 <0>         0.4323
     35 H10        -0.0640   -7.6402   -5.4378 H         1 <0>         0.1778
     36 H11        -2.6212   -8.1519   -5.3294 H         1 <0>         0.2012
@<TRIPOS>BOND
     1    1    6 ar
     2    1    2 ar
     3    1   26 1
     4    2    3 ar
     5    2   27 1
     6    3    4 ar
     7    3   28 1
     8    4   14 1
     9    4    5 ar
    10    5    6 ar
    11    5    7 1
    12    6   29 1
    13    7   16 am
    14    7    8 1
    15    8   13 ar
    16    8    9 ar
    17    9   10 ar
    18    9   15 1
    19   10   11 ar
    20   10   30 1
    21   11   12 ar
    22   11   31 1
    23   12   13 ar
    24   12   32 1
    25   13   14 1
    26   15   16 1
    27   15   18 1
    28   15   33 1
    29   16   17 2
    30   18   19 2
    31   18   20 am
    32   20   21 1
    33   20   34 1
    34   21   25 1
    35   21   22 2
    36   22   23 1
    37   23   24 2
    38   23   35 1
    39   24   25 1
    40   24   36 1
@<TRIPOS>MOLECULE
CHEMBL46171
   44    46     0     0     0
SMALL
USER_CHARGES

@<TRIPOS>ATOM
      1 C1         -0.0225    1.8097    0.0120 C.3       1 <0>        -0.6502
      2 S1          0.0021   -0.0041    0.0020 S.o2      1 <0>         2.4983
      3 O1          0.8352   -0.4880    1.0465 O.2       1 <0>        -0.9356
      4 O2         -1.3147   -0.5105   -0.1678 O.2       1 <0>        -0.9358
      5 C2          0.8454   -0.4373   -1.4831 C.ar      1 <0>        -0.6554
      6 C3          0.1315   -0.6121   -2.6550 C.ar      1 <0>        -0.0210
      7 C4          0.7869   -0.9510   -3.8213 C.ar      1 <0>        -0.1252
      8 C5          2.1707   -1.1172   -3.8169 C.ar      1 <0>         0.0159
      9 C6          2.8848   -0.9398   -2.6333 C.ar      1 <0>        -0.1076
     10 C7          2.2196   -0.5958   -1.4740 C.ar      1 <0>        -0.0203
     11 C8          2.8806   -1.4819   -5.0671 C.ar      1 <0>        -0.1304
     12 C9          2.4368   -2.5487   -5.8497 C.ar      1 <0>         0.0251
     13 C10         3.1336   -2.8496   -7.0088 C.ar      1 <0>        -0.2763
     14 C11         4.2370   -2.0922   -7.3532 C.ar      1 <0>         0.2078
     15 N1          4.6377   -1.0882   -6.5965 N.ar      1 <0>        -0.5319
     16 C12         4.0035   -0.7582   -5.4849 C.ar      1 <0>         0.3709
     17 O3          4.4472    0.2851   -4.7409 O.3       1 <0>        -0.2838
     18 C13         5.5979    0.9823   -5.2224 C.3       1 <0>         0.1086
     19 C14         5.9413    2.1010   -4.2728 C.ar      1 <0>        -0.0983
     20 C15         5.3862    3.3543   -4.4521 C.ar      1 <0>        -0.0799
     21 C16         5.7007    4.3807   -3.5816 C.ar      1 <0>        -0.1132
     22 C17         6.5713    4.1536   -2.5305 C.ar      1 <0>        -0.0226
     23 C18         7.1264    2.8991   -2.3515 C.ar      1 <0>        -0.1126
     24 C19         6.8068    1.8720   -3.2194 C.ar      1 <0>        -0.0801
     25 Cl1         6.9672    5.4425   -1.4370 Cl        1 <0>        -0.0623
     26 C20         2.6925   -3.9929   -7.8860 C.3       1 <0>         0.5216
     27 F1          1.7796   -3.5254   -8.8374 F         1 <0>        -0.1725
     28 F2          3.8050   -4.5383   -8.5357 F         1 <0>        -0.1727
     29 F3          2.0835   -4.9763   -7.0991 F         1 <0>        -0.1735
     30 H1          1.0001    2.1870    0.0043 H         1 <0>         0.1319
     31 H2         -0.5497    2.1708   -0.8711 H         1 <0>         0.1319
     32 H3         -0.5327    2.1613    0.9088 H         1 <0>         0.1342
     33 H4         -0.9408   -0.4834   -2.6572 H         1 <0>         0.1466
     34 H5          0.2285   -1.0875   -4.7356 H         1 <0>         0.1355
     35 H6          3.9572   -1.0674   -2.6242 H         1 <0>         0.1343
     36 H7          2.7724   -0.4538   -0.5572 H         1 <0>         0.1455
     37 H8          1.5716   -3.1259   -5.5588 H         1 <0>         0.1596
     38 H9          4.7807   -2.3262   -8.2566 H         1 <0>         0.1778
     39 H10         6.4389    0.2922   -5.2900 H         1 <0>         0.0849
     40 H11         5.3864    1.3950   -6.2087 H         1 <0>         0.0841
     41 H12         4.7070    3.5315   -5.2729 H         1 <0>         0.1344
     42 H13         5.2673    5.3599   -3.7220 H         1 <0>         0.1380
     43 H14         7.8063    2.7213   -1.5314 H         1 <0>         0.1387
     44 H15         7.2364    0.8914   -3.0770 H         1 <0>         0.1353
@<TRIPOS>BOND
     1    1    2 1
     2    1   30 1
     3    1   31 1
     4    1   32 1
     5    2    3 2
     6    2    4 2
     7    2    5 1
     8    5   10 ar
     9    5    6 ar
    10    6    7 ar
    11    6   33 1
    12    7    8 ar
    13    7   34 1
    14    8    9 ar
    15    8   11 1
    16    9   10 ar
    17    9   35 1
    18   10   36 1
    19   11   16 ar
    20   11   12 ar
    21   12   13 ar
    22   12   37 1
    23   13   14 ar
    24   13   26 1
    25   14   15 ar
    26   14   38 1
    27   15   16 ar
    28   16   17 1
    29   17   18 1
    30   18   19 1
    31   18   39 1
    32   18   40 1
    33   19   24 ar
    34   19   20 ar
    35   20   21 ar
    36   20   41 1
    37   21   22 ar
    38   21   42 1
    39   22   23 ar
    40   22   25 1
    41   23   24 ar
    42   23   43 1
    43   24   44 1
    44   26   27 1
    45   26   28 1
    46   26   29 1
@<TRIPOS>MOLECULE
CHEMBL43864
   45    47     0     0     0
SMALL
USER_CHARGES

@<TRIPOS>ATOM
      1 C1         -0.0891    1.5005   -0.0503 C.3       1 <0>        -0.1141
      2 C2         -0.0288   -0.0051   -0.0244 C.2       1 <0>         0.0435
      3 C3         -0.0964   -0.8162   -1.1022 C.2       1 <0>        -0.2025
      4 C4         -0.0027   -2.1410   -0.6457 C.2       1 <0>        -0.1530
      5 C5          0.1203   -2.0954    0.7104 C.2       1 <0>         0.0221
      6 N1          0.1090   -0.7777    1.0901 N.pl3     1 <0>        -0.4295
      7 C6          0.2227   -0.2831    2.4644 C.3       1 <0>         0.1263
      8 C7         -0.0561    1.2211    2.4898 C.3       1 <0>        -0.1407
      9 C8          0.0626    1.7376    3.9250 C.3       1 <0>        -0.1200
     10 C9          1.4760    1.4720    4.4474 C.3       1 <0>        -0.1241
     11 C10         1.7548   -0.0321    4.4220 C.3       1 <0>        -0.1181
     12 C11         1.6361   -0.5487    2.9867 C.3       1 <0>        -0.1410
     13 C12         0.2480   -3.2600    1.6124 C.ar      1 <0>         0.0548
     14 C13         0.1613   -3.0886    2.9947 C.ar      1 <0>        -0.1703
     15 C14         0.2807   -4.1795    3.8308 C.ar      1 <0>        -0.0146
     16 C15         0.4866   -5.4412    3.3017 C.ar      1 <0>        -0.6704
     17 C16         0.5735   -5.6179    1.9322 C.ar      1 <0>        -0.0133
     18 C17         0.4499   -4.5362    1.0849 C.ar      1 <0>        -0.1305
     19 S1          0.6392   -6.8290    4.3766 S.o2      1 <0>         2.5004
     20 O1          1.4171   -7.7685    3.6476 O.2       1 <0>        -0.9373
     21 O2          1.1164   -6.2884    5.6011 O.2       1 <0>        -0.9385
     22 C18        -1.0538   -7.4465    4.5839 C.3       1 <0>        -0.6509
     23 H1          0.9203    1.9058    0.0202 H         1 <0>         0.0719
     24 H2         -0.5486    1.8298   -0.9823 H         1 <0>         0.0772
     25 H3         -0.6827    1.8549    0.7924 H         1 <0>         0.0915
     26 H4         -0.2032   -0.5025   -2.1301 H         1 <0>         0.1400
     27 H5         -0.0247   -3.0314   -1.2566 H         1 <0>         0.1405
     28 H6         -0.5009   -0.7975    3.0967 H         1 <0>         0.0975
     29 H7          0.6675    1.7355    1.8575 H         1 <0>         0.0894
     30 H8         -1.0630    1.4103    2.1177 H         1 <0>         0.0825
     31 H9         -0.1360    2.8092    3.9431 H         1 <0>         0.0737
     32 H10        -0.6610    1.2232    4.5573 H         1 <0>         0.0658
     33 H11         2.1996    1.9864    3.8151 H         1 <0>         0.0651
     34 H12         1.5605    1.8400    5.4699 H         1 <0>         0.0691
     35 H13         2.7617   -0.2213    4.7941 H         1 <0>         0.0733
     36 H14         1.0311   -0.5465    5.0543 H         1 <0>         0.0663
     37 H15         1.8347   -1.6203    2.9686 H         1 <0>         0.0796
     38 H16         2.3597   -0.0343    2.3544 H         1 <0>         0.0729
     39 H17         0.0013   -2.1042    3.4091 H         1 <0>         0.1434
     40 H18         0.2138   -4.0483    4.9008 H         1 <0>         0.1426
     41 H19         0.7342   -6.6054    1.5255 H         1 <0>         0.1456
     42 H20         0.5138   -4.6761    0.0159 H         1 <0>         0.1379
     43 H21        -1.4581   -7.7315    3.6126 H         1 <0>         0.1318
     44 H22        -1.0457   -8.3147    5.2430 H         1 <0>         0.1332
     45 H23        -1.6748   -6.6645    5.0208 H         1 <0>         0.1309
@<TRIPOS>BOND
     1    1    2 1
     2    1   23 1
     3    1   24 1
     4    1   25 1
     5    2    6 1
     6    2    3 2
     7    3    4 1
     8    3   26 1
     9    4    5 2
    10    4   27 1
    11    5    6 1
    12    5   13 1
    13    6    7 1
    14    7   12 1
    15    7    8 1
    16    7   28 1
    17    8    9 1
    18    8   29 1
    19    8   30 1
    20    9   10 1
    21    9   31 1
    22    9   32 1
    23   10   11 1
    24   10   33 1
    25   10   34 1
    26   11   12 1
    27   11   35 1
    28   11   36 1
    29   12   37 1
    30   12   38 1
    31   13   18 ar
    32   13   14 ar
    33   14   15 ar
    34   14   39 1
    35   15   16 ar
    36   15   40 1
    37   16   17 ar
    38   16   19 1
    39   17   18 ar
    40   17   41 1
    41   18   42 1
    42   19   20 2
    43   19   21 2
    44   19   22 1
    45   22   43 1
    46   22   44 1
    47   22   45 1
@<TRIPOS>MOLECULE
CHEMBL562791
   40    42     0     0     0
SMALL
USER_CHARGES

@<TRIPOS>ATOM
      1 C1         -0.0225    1.8097    0.0120 C.3       1 <0>        -0.6491
      2 S1          0.0021   -0.0041    0.0020 S.o2      1 <0>         2.4984
      3 O1          0.8352   -0.4880    1.0465 O.2       1 <0>        -0.9329
      4 O2         -1.3147   -0.5105   -0.1678 O.2       1 <0>        -0.9325
      5 C2          0.8454   -0.4373   -1.4831 C.ar      1 <0>        -0.6400
      6 C3          0.1315   -0.6121   -2.6550 C.ar      1 <0>        -0.0286
      7 C4          0.7867   -0.9519   -3.8211 C.ar      1 <0>        -0.0848
      8 C5          2.1705   -1.1185   -3.8166 C.ar      1 <0>        -0.0142
      9 C6          2.8847   -0.9407   -2.6330 C.ar      1 <0>        -0.1056
     10 C7          2.2196   -0.5958   -1.4740 C.ar      1 <0>        -0.0270
     11 C8          2.8802   -1.4841   -5.0665 C.ar      1 <0>         0.2643
     12 C9          4.2667   -1.6589   -5.0701 C.ar      1 <0>        -0.2116
     13 C10         4.8839   -2.0002   -6.2600 C.ar      1 <0>         0.1380
     14 N1          4.1486   -2.1498   -7.3509 N.ar      1 <0>        -0.5337
     15 C11         2.8369   -1.9778   -7.3175 C.ar      1 <0>         0.5254
     16 N2          2.2059   -1.6564   -6.2012 N.ar      1 <0>        -0.4950
     17 O3          2.1214   -2.1400   -8.4562 O.3       1 <0>        -0.2650
     18 C12         2.8487   -2.4920   -9.6348 C.3       1 <0>         0.0563
     19 C13         2.8609   -1.3870  -10.7042 C.3       1 <0>        -0.1502
     20 C14         2.6860   -2.5034  -11.7473 C.3       1 <0>        -0.1375
     21 C15         2.0366   -3.3374  -10.6303 C.3       1 <0>        -0.1332
     22 C16         6.3767   -2.1990   -6.3143 C.3       1 <0>         0.5261
     23 F1          6.6788   -3.5387   -6.0475 F         1 <0>        -0.1613
     24 F2          6.8464   -1.8598   -7.5877 F         1 <0>        -0.1569
     25 F3          6.9909   -1.3831   -5.3581 F         1 <0>        -0.1620
     26 H1          1.0001    2.1870    0.0043 H         1 <0>         0.1328
     27 H2         -0.5497    2.1708   -0.8711 H         1 <0>         0.1329
     28 H3         -0.5327    2.1613    0.9088 H         1 <0>         0.1355
     29 H4         -0.9407   -0.4828   -2.6573 H         1 <0>         0.1516
     30 H5          0.2282   -1.0889   -4.7353 H         1 <0>         0.1509
     31 H6          3.9571   -1.0684   -2.6238 H         1 <0>         0.1427
     32 H7          2.7724   -0.4538   -0.5572 H         1 <0>         0.1528
     33 H8          4.8426   -1.5303   -4.1656 H         1 <0>         0.1701
     34 H9          3.8350   -2.9017   -9.4170 H         1 <0>         0.1224
     35 H10         2.0090   -0.7100  -10.6423 H         1 <0>         0.0936
     36 H11         3.8141   -0.8637  -10.7804 H         1 <0>         0.0781
     37 H12         2.0000   -2.2441  -12.5536 H         1 <0>         0.0834
     38 H13         3.6285   -2.9154  -12.1081 H         1 <0>         0.0889
     39 H14         2.3243   -4.3886  -10.6467 H         1 <0>         0.0809
     40 H15         0.9593   -3.1935  -10.5481 H         1 <0>         0.0963
@<TRIPOS>BOND
     1    1    2 1
     2    1   26 1
     3    1   27 1
     4    1   28 1
     5    2    3 2
     6    2    4 2
     7    2    5 1
     8    5   10 ar
     9    5    6 ar
    10    6    7 ar
    11    6   29 1
    12    7    8 ar
    13    7   30 1
    14    8    9 ar
    15    8   11 1
    16    9   10 ar
    17    9   31 1
    18   10   32 1
    19   11   16 ar
    20   11   12 ar
    21   12   13 ar
    22   12   33 1
    23   13   14 ar
    24   13   22 1
    25   14   15 ar
    26   15   16 ar
    27   15   17 1
    28   17   18 1
    29   18   21 1
    30   18   19 1
    31   18   34 1
    32   19   20 1
    33   19   35 1
    34   19   36 1
    35   20   21 1
    36   20   37 1
    37   20   38 1
    38   21   39 1
    39   21   40 1
    40   22   23 1
    41   22   24 1
    42   22   25 1
@<TRIPOS>MOLECULE
CHEMBL457332
   34    36     0     0     0
SMALL
USER_CHARGES

@<TRIPOS>ATOM
      1 C1          2.0445   -0.9295    1.6195 C.3       1 <0>        -0.6494
      2 S1          0.6225   -0.8873    0.4940 S.o2      1 <0>         2.4995
      3 O1         -0.1939   -2.0331    0.6936 O.2       1 <0>        -0.9305
      4 O2          0.0520    0.4141    0.4746 O.2       1 <0>        -0.9308
      5 C2          1.3111   -1.1003   -1.1138 C.ar      1 <0>        -0.6540
      6 C3          1.7053    0.0036   -1.8474 C.ar      1 <0>        -0.0067
      7 C4          2.2459   -0.1602   -3.1078 C.ar      1 <0>        -0.1319
      8 C5          2.3932   -1.4348   -3.6381 C.ar      1 <0>         0.1838
      9 C6          1.9964   -2.5413   -2.8991 C.ar      1 <0>        -0.1187
     10 C7          1.4614   -2.3714   -1.6372 C.ar      1 <0>        -0.0042
     11 N1          2.9409   -1.6043   -4.9170 N.pl3     1 <0>        -0.3310
     12 C8          4.0500   -0.9811   -5.4264 C.2       1 <0>         0.1022
     13 C9          4.2069   -1.4507   -6.6968 C.2       1 <0>        -0.0500
     14 N2          3.2363   -2.3239   -6.9552 N.2       1 <0>        -0.2215
     15 N3          2.4676   -2.4506   -5.9310 N.2       1 <0>        -0.0460
     16 C10         4.9074    0.0066   -4.7346 C.ar      1 <0>        -0.0547
     17 C11         4.9794    0.0170   -3.3414 C.ar      1 <0>        -0.0760
     18 C12         5.7802    0.9398   -2.7013 C.ar      1 <0>        -0.1492
     19 C13         6.5124    1.8556   -3.4397 C.ar      1 <0>         0.1207
     20 C14         6.4441    1.8498   -4.8238 C.ar      1 <0>        -0.1484
     21 C15         5.6511    0.9271   -5.4736 C.ar      1 <0>        -0.0525
     22 F1          7.2953    2.7575   -2.8081 F         1 <0>        -0.1309
     23 H1          2.5556   -1.8874    1.5235 H         1 <0>         0.1333
     24 H2          2.7328   -0.1233    1.3656 H         1 <0>         0.1330
     25 H3          1.6995   -0.8030    2.6457 H         1 <0>         0.1368
     26 H4          1.5902    0.9949   -1.4344 H         1 <0>         0.1576
     27 H5          2.5533    0.7024   -3.6804 H         1 <0>         0.1445
     28 H6          2.1097   -3.5340   -3.3090 H         1 <0>         0.1481
     29 H7          1.1567   -3.2319   -1.0601 H         1 <0>         0.1580
     30 H8          4.9904   -1.1612   -7.3814 H         1 <0>         0.1964
     31 H9          4.4087   -0.6962   -2.7650 H         1 <0>         0.1351
     32 H10         5.8362    0.9489   -1.6228 H         1 <0>         0.1443
     33 H11         7.0165    2.5659   -5.3947 H         1 <0>         0.1477
     34 H12         5.6023    0.9202   -6.5525 H         1 <0>         0.1456
@<TRIPOS>BOND
     1    1    2 1
     2    1   23 1
     3    1   24 1
     4    1   25 1
     5    2    3 2
     6    2    4 2
     7    2    5 1
     8    5   10 ar
     9    5    6 ar
    10    6    7 ar
    11    6   26 1
    12    7    8 ar
    13    7   27 1
    14    8    9 ar
    15    8   11 1
    16    9   10 ar
    17    9   28 1
    18   10   29 1
    19   11   15 1
    20   11   12 1
    21   12   13 2
    22   12   16 1
    23   13   14 1
    24   13   30 1
    25   14   15 2
    26   16   21 ar
    27   16   17 ar
    28   17   18 ar
    29   17   31 1
    30   18   19 ar
    31   18   32 1
    32   19   20 ar
    33   19   22 1
    34   20   21 ar
    35   20   33 1
    36   21   34 1
@<TRIPOS>MOLECULE
CHEMBL75896
   37    38     0     0     0
SMALL
USER_CHARGES

@<TRIPOS>ATOM
      1 C1         -0.0953    1.1986    0.0369 C.ar      1 <0>        -0.1936
      2 C2          0.9814    2.0729    0.0198 C.ar      1 <0>        -0.0439
      3 C3          2.2733    1.5915   -0.0225 C.ar      1 <0>        -0.1127
      4 C4          2.5059    0.2217   -0.0484 C.ar      1 <0>         0.2968
      5 C5          1.4169   -0.6685   -0.0312 C.ar      1 <0>        -0.2729
      6 C6          0.1119   -0.1617    0.0118 C.ar      1 <0>        -0.0462
      7 C7          1.6463   -2.1167   -0.0586 C.2       1 <0>         0.4149
      8 O1          2.7761   -2.5533    0.0100 O.2       1 <0>        -0.4851
      9 C8          0.4786   -3.0625   -0.1720 C.3       1 <0>        -0.1254
     10 C9          0.1876   -3.3389   -1.6484 C.3       1 <0>        -0.1079
     11 C10        -0.9979   -4.2992   -1.7635 C.3       1 <0>        -0.1159
     12 C11        -0.6607   -5.6129   -1.0555 C.3       1 <0>        -0.1211
     13 C12        -0.3697   -5.3366    0.4209 C.3       1 <0>        -0.1175
     14 C13         0.8158   -4.3763    0.5360 C.3       1 <0>        -0.1068
     15 N1          3.8040   -0.2648   -0.0914 N.pl3     1 <0>        -0.8473
     16 C14         3.4341    2.5523   -0.0412 C.3       1 <0>        -0.1523
     17 C15         3.8609    2.7968   -1.4657 C.2       1 <0>         0.4930
     18 O2          3.2766    2.2423   -2.3809 O.co2     1 <0>        -0.6829
     19 O3          4.7905    3.5492   -1.7029 O.co2     1 <0>        -0.7038
     20 H1         -1.1020    1.5877    0.0747 H         1 <0>         0.1159
     21 H2          0.8069    3.1385    0.0394 H         1 <0>         0.1171
     22 H3         -0.7305   -0.8374    0.0253 H         1 <0>         0.1199
     23 H4         -0.3990   -2.6138    0.2935 H         1 <0>         0.0944
     24 H5         -0.0526   -2.4030   -2.1528 H         1 <0>         0.0723
     25 H6          1.0652   -3.7876   -2.1139 H         1 <0>         0.0666
     26 H7         -1.8755   -3.8505   -1.2980 H         1 <0>         0.0636
     27 H8         -1.2052   -4.4961   -2.8153 H         1 <0>         0.0641
     28 H9         -1.5053   -6.2971   -1.1375 H         1 <0>         0.0597
     29 H10         0.2168   -6.0617   -1.5210 H         1 <0>         0.0616
     30 H11        -1.2473   -4.8879    0.8864 H         1 <0>         0.0616
     31 H12        -0.1295   -6.2725    0.9253 H         1 <0>         0.0615
     32 H13         1.6934   -4.8250    0.0706 H         1 <0>         0.0715
     33 H14         1.0231   -4.1794    1.5879 H         1 <0>         0.0618
     34 H15         4.5491    0.3490   -0.1863 H         1 <0>         0.3972
     35 H16         3.9668   -1.2188   -0.0267 H         1 <0>         0.4078
     36 H17         3.1326    3.4953    0.4147 H         1 <0>         0.0711
     37 H18         4.2666    2.1273    0.5197 H         1 <0>         0.0630
@<TRIPOS>BOND
     1    1    6 ar
     2    1    2 ar
     3    1   20 1
     4    2    3 ar
     5    2   21 1
     6    3    4 ar
     7    3   16 1
     8    4    5 ar
     9    4   15 1
    10    5    6 ar
    11    5    7 1
    12    6   22 1
    13    7    8 2
    14    7    9 1
    15    9   14 1
    16    9   10 1
    17    9   23 1
    18   10   11 1
    19   10   24 1
    20   10   25 1
    21   11   12 1
    22   11   26 1
    23   11   27 1
    24   12   13 1
    25   12   28 1
    26   12   29 1
    27   13   14 1
    28   13   30 1
    29   13   31 1
    30   14   32 1
    31   14   33 1
    32   15   34 1
    33   15   35 1
    34   16   17 1
    35   16   36 1
    36   16   37 1
    37   17   18 2
    38   17   19 1
@<TRIPOS>MOLECULE
CHEMBL324312
   41    43     0     0     0
SMALL
USER_CHARGES

@<TRIPOS>ATOM
      1 C1         -0.0187    1.5258    0.0104 C.3       1 <0>        -0.1538
      2 C2          0.0021   -0.0041    0.0020 C.3       1 <0>         0.0522
      3 O1          0.6709   -0.4649   -1.1737 O.3       1 <0>        -0.3128
      4 C3          0.7768   -1.8101   -1.3361 C.ar      1 <0>         0.1478
      5 C4          0.2412   -2.6667   -0.3838 C.ar      1 <0>        -0.2051
      6 C5          0.3464   -4.0320   -0.5449 C.ar      1 <0>        -0.0434
      7 C6          0.9921   -4.5526   -1.6676 C.ar      1 <0>        -0.0720
      8 C7          1.5288   -3.6880   -2.6230 C.ar      1 <0>        -0.0577
      9 C8          1.4151   -2.3240   -2.4569 C.ar      1 <0>        -0.1497
     10 C9          1.1076   -6.0160   -1.8441 C.2       1 <0>         0.0548
     11 C10         1.4581   -6.9262   -0.8940 C.2       1 <0>         0.0704
     12 N1          1.4443   -8.1401   -1.4577 N.2       1 <0>        -0.4665
     13 C11         1.1026   -8.0372   -2.7141 C.2       1 <0>         0.2219
     14 N2          0.8758   -6.7288   -3.0023 N.pl3     1 <0>        -0.4187
     15 C12         0.4843   -6.2030   -4.2412 C.ar      1 <0>         0.1786
     16 C13        -0.5885   -5.3249   -4.3165 C.ar      1 <0>        -0.1259
     17 C14        -0.9716   -4.8081   -5.5387 C.ar      1 <0>         0.0026
     18 C15        -0.2883   -5.1648   -6.6867 C.ar      1 <0>        -0.6726
     19 C16         0.7803   -6.0396   -6.6149 C.ar      1 <0>         0.0019
     20 C17         1.1720   -6.5549   -5.3948 C.ar      1 <0>        -0.1357
     21 S1         -0.7804   -4.5039   -8.2441 S.o2      1 <0>         2.7023
     22 O2         -0.3263   -5.4163   -9.2343 O.2       1 <0>        -0.9573
     23 O3         -2.1472   -4.1369   -8.1159 O.2       1 <0>        -0.9572
     24 N3          0.0676   -3.0995   -8.4700 N.pl3     1 <0>        -1.2485
     25 Cl1         1.8537   -6.5738    0.7592 Cl        1 <0>         0.0040
     26 H1          1.0039    1.9031    0.0027 H         1 <0>         0.0675
     27 H2         -0.5459    1.8868   -0.8726 H         1 <0>         0.0674
     28 H3         -0.5289    1.8773    0.9072 H         1 <0>         0.0807
     29 H4          0.5293   -0.3651    0.8851 H         1 <0>         0.0650
     30 H5         -1.0205   -0.3814    0.0098 H         1 <0>         0.0647
     31 H6         -0.2583   -2.2630    0.4846 H         1 <0>         0.1355
     32 H7         -0.0698   -4.6977    0.1967 H         1 <0>         0.1318
     33 H8          2.0291   -4.0870   -3.4930 H         1 <0>         0.1249
     34 H9          1.8268   -1.6543   -3.1975 H         1 <0>         0.1364
     35 H10         1.0108   -8.8586   -3.4094 H         1 <0>         0.2232
     36 H11        -1.1230   -5.0465   -3.4203 H         1 <0>         0.1431
     37 H12        -1.8060   -4.1250   -5.5979 H         1 <0>         0.1554
     38 H13         1.3117   -6.3169   -7.5133 H         1 <0>         0.1570
     39 H14         2.0094   -7.2346   -5.3387 H         1 <0>         0.1470
     40 H15         0.6947   -2.7976   -7.7944 H         1 <0>         0.4174
     41 H16        -0.0629   -2.5789   -9.2780 H         1 <0>         0.4236
@<TRIPOS>BOND
     1    1    2 1
     2    1   26 1
     3    1   27 1
     4    1   28 1
     5    2    3 1
     6    2   29 1
     7    2   30 1
     8    3    4 1
     9    4    9 ar
    10    4    5 ar
    11    5    6 ar
    12    5   31 1
    13    6    7 ar
    14    6   32 1
    15    7    8 ar
    16    7   10 1
    17    8    9 ar
    18    8   33 1
    19    9   34 1
    20   10   14 1
    21   10   11 2
    22   11   12 1
    23   11   25 1
    24   12   13 2
    25   13   14 1
    26   13   35 1
    27   14   15 1
    28   15   20 ar
    29   15   16 ar
    30   16   17 ar
    31   16   36 1
    32   17   18 ar
    33   17   37 1
    34   18   19 ar
    35   18   21 1
    36   19   20 ar
    37   19   38 1
    38   20   39 1
    39   21   22 2
    40   21   23 2
    41   21   24 1
    42   24   40 1
    43   24   41 1
@<TRIPOS>MOLECULE
CHEMBL71685
   38    39     0     0     0
SMALL
USER_CHARGES

@<TRIPOS>ATOM
      1 C1         -0.0167    1.3781    0.0096 C.ar      1 <0>        -0.1103
      2 C2          1.1709    2.0855    0.0021 C.ar      1 <0>        -0.1154
      3 C3          2.3773    1.4107   -0.0130 C.ar      1 <0>        -0.0152
      4 C4          2.3960    0.0285   -0.0201 C.ar      1 <0>        -0.1164
      5 C5          1.2085   -0.6789   -0.0117 C.ar      1 <0>        -0.1113
      6 C6          0.0021   -0.0041    0.0020 C.ar      1 <0>        -0.1179
      7 C7         -1.2926   -0.7753    0.0107 C.3       1 <0>        -0.0754
      8 C8         -1.7450   -1.0285   -1.4288 C.3       1 <0>         0.1176
      9 N1         -3.0037   -1.7782   -1.4204 N.pl3     1 <0>        -1.1146
     10 S1         -3.9186   -1.8756   -2.7972 S.o2      1 <0>         2.6966
     11 O1         -5.0460   -2.6802   -2.4795 O.2       1 <0>        -0.9583
     12 O2         -4.0443   -0.5509   -3.2958 O.2       1 <0>        -0.9508
     13 C9         -2.9777   -2.7739   -3.9856 C.ar      1 <0>        -0.6766
     14 C10        -2.1229   -2.1031   -4.8402 C.ar      1 <0>        -0.0058
     15 C11        -1.3845   -2.8071   -5.7726 C.ar      1 <0>        -0.1305
     16 C12        -1.5010   -4.1835   -5.8505 C.ar      1 <0>         0.0175
     17 C13        -2.3566   -4.8543   -4.9949 C.ar      1 <0>        -0.1333
     18 C14        -3.0902   -4.1497   -4.0592 C.ar      1 <0>        -0.0057
     19 Cl1        -0.5743   -5.0685   -7.0218 Cl        1 <0>        -0.0553
     20 C15         3.6720    2.1819   -0.0222 C.3       1 <0>        -0.1614
     21 C16         4.1176    2.4323    1.3954 C.2       1 <0>         0.4967
     22 O3          3.4461    2.0226    2.3269 O.co2     1 <0>        -0.6870
     23 O4          5.1496    3.0447    1.6109 O.co2     1 <0>        -0.7024
     24 H1         -0.9591    1.9053    0.0259 H         1 <0>         0.1152
     25 H2          1.1563    3.1654    0.0076 H         1 <0>         0.1150
     26 H3          3.3385   -0.4987   -0.0326 H         1 <0>         0.1140
     27 H4          1.2231   -1.7588   -0.0179 H         1 <0>         0.1129
     28 H5         -1.1443   -1.7285    0.5180 H         1 <0>         0.0760
     29 H6         -2.0551   -0.1993    0.5352 H         1 <0>         0.0784
     30 H7         -1.8934   -0.0752   -1.9361 H         1 <0>         0.0844
     31 H8         -0.9826   -1.6044   -1.9533 H         1 <0>         0.0680
     32 H9         -3.3011   -2.2175   -0.6083 H         1 <0>         0.4204
     33 H10        -2.0323   -1.0286   -4.7796 H         1 <0>         0.1522
     34 H11        -0.7170   -2.2829   -6.4405 H         1 <0>         0.1459
     35 H12        -2.4482   -5.9287   -5.0555 H         1 <0>         0.1442
     36 H13        -3.7546   -4.6737   -3.3880 H         1 <0>         0.1504
     37 H14         4.4344    1.6056   -0.5463 H         1 <0>         0.0689
     38 H15         3.5237    3.1349   -0.5302 H         1 <0>         0.0694
@<TRIPOS>BOND
     1    1    6 ar
     2    1    2 ar
     3    1   24 1
     4    2    3 ar
     5    2   25 1
     6    3    4 ar
     7    3   20 1
     8    4    5 ar
     9    4   26 1
    10    5    6 ar
    11    5   27 1
    12    6    7 1
    13    7    8 1
    14    7   28 1
    15    7   29 1
    16    8    9 1
    17    8   30 1
    18    8   31 1
    19    9   10 1
    20    9   32 1
    21   10   11 2
    22   10   12 2
    23   10   13 1
    24   13   18 ar
    25   13   14 ar
    26   14   15 ar
    27   14   33 1
    28   15   16 ar
    29   15   34 1
    30   16   17 ar
    31   16   19 1
    32   17   18 ar
    33   17   35 1
    34   18   36 1
    35   20   21 1
    36   20   37 1
    37   20   38 1
    38   21   22 2
    39   21   23 1
@<TRIPOS>MOLECULE
CHEMBL322276
   47    50     0     0     0
SMALL
USER_CHARGES

@<TRIPOS>ATOM
      1 C1         -0.0706    0.8480    0.8235 C.3       1 <0>        -0.1550
      2 C2          0.0850   -0.6080    0.3801 C.3       1 <0>         0.1341
      3 C3          0.8092   -0.6718   -0.9443 C.2       1 <0>        -0.0645
      4 C4          1.9421   -1.3806   -0.7297 C.2       1 <0>        -0.0024
      5 C5          1.9851   -1.7806    0.6787 C.2       1 <0>         0.4861
      6 O1          2.8753   -2.4297    1.1932 O.2       1 <0>        -0.4238
      7 O2          0.8934   -1.3232    1.3191 O.3       1 <0>        -0.2962
      8 O3          2.8832   -1.6731   -1.6656 O.3       1 <0>        -0.2159
      9 C6          4.1166   -1.1189   -1.5255 C.ar      1 <0>         0.0861
     10 C7          4.3500   -0.1933   -0.5108 C.ar      1 <0>        -0.1570
     11 C8          5.5932    0.3771   -0.3547 C.ar      1 <0>        -0.0873
     12 C9          6.6305    0.0306   -1.2144 C.ar      1 <0>         0.0740
     13 C10         6.3982   -0.9034   -2.2397 C.ar      1 <0>        -0.0737
     14 C11         5.1346   -1.4799   -2.3858 C.ar      1 <0>        -0.0910
     15 C12         7.6692   -1.0457   -2.9541 C.2       1 <0>        -0.2073
     16 C13         8.5516   -0.2325   -2.3521 C.2       1 <0>         0.0630
     17 N1          7.9500    0.4191   -1.3105 N.pl3     1 <0>        -0.5950
     18 H1          8.3865    1.0592   -0.7268 H         1 <0>         0.4175
     19 C14         0.3689   -0.0802   -2.2174 C.ar      1 <0>         0.0145
     20 C15         0.3076    1.3095   -2.3629 C.ar      1 <0>        -0.1184
     21 C16        -0.1055    1.8561   -3.5594 C.ar      1 <0>        -0.0206
     22 C17        -0.4590    1.0335   -4.6149 C.ar      1 <0>        -0.6514
     23 C18        -0.4015   -0.3426   -4.4787 C.ar      1 <0>        -0.0180
     24 C19         0.0151   -0.9046   -3.2905 C.ar      1 <0>        -0.1071
     25 S1         -0.9857    1.7419   -6.1398 S.o2      1 <0>         2.4986
     26 O4         -1.7505    0.7224   -6.7682 O.2       1 <0>        -0.9342
     27 O5         -1.5854    2.9781   -5.7774 O.2       1 <0>        -0.9344
     28 C20         0.5438    2.0381   -7.0690 C.3       1 <0>        -0.6499
     29 C21        -1.2895   -1.2693    0.2603 C.3       1 <0>        -0.1528
     30 H2          0.9133    1.3099    0.9058 H         1 <0>         0.0713
     31 H3         -0.6661    1.3900    0.0888 H         1 <0>         0.0901
     32 H4         -0.5698    0.8816    1.7919 H         1 <0>         0.0886
     33 H5          3.5482    0.0796    0.1592 H         1 <0>         0.1199
     34 H6          5.7630    1.0939    0.4351 H         1 <0>         0.1273
     35 H7          4.9536   -2.2006   -3.1695 H         1 <0>         0.1359
     36 H8          7.8604   -1.6843   -3.8038 H         1 <0>         0.1504
     37 H9          9.5836   -0.1111   -2.6463 H         1 <0>         0.1744
     38 H10         0.5828    1.9526   -1.5401 H         1 <0>         0.1393
     39 H11        -0.1537    2.9290   -3.6732 H         1 <0>         0.1485
     40 H12        -0.6796   -0.9779   -5.3066 H         1 <0>         0.1509
     41 H13         0.0641   -1.9786   -3.1873 H         1 <0>         0.1396
     42 H14         1.0328    1.0864   -7.2768 H         1 <0>         0.1332
     43 H15         0.3073    2.5378   -8.0084 H         1 <0>         0.1351
     44 H16         1.2105    2.6682   -6.4802 H         1 <0>         0.1319
     45 H17        -1.8835   -0.7403   -0.4849 H         1 <0>         0.0879
     46 H18        -1.1672   -2.3089   -0.0438 H         1 <0>         0.0722
     47 H19        -1.7969   -1.2300    1.2242 H         1 <0>         0.0858
@<TRIPOS>BOND
     1    1    2 1
     2    1   30 1
     3    1   31 1
     4    1   32 1
     5    2    7 1
     6    2    3 1
     7    2   29 1
     8    3    4 2
     9    3   19 1
    10    4    5 1
    11    4    8 1
    12    5    6 2
    13    5    7 1
    14    8    9 1
    15    9   14 ar
    16    9   10 ar
    17   10   11 ar
    18   10   33 1
    19   11   12 ar
    20   11   34 1
    21   12   17 1
    22   12   13 ar
    23   13   14 ar
    24   13   15 1
    25   14   35 1
    26   15   16 2
    27   15   36 1
    28   16   17 1
    29   16   37 1
    30   17   18 1
    31   19   24 ar
    32   19   20 ar
    33   20   21 ar
    34   20   38 1
    35   21   22 ar
    36   21   39 1
    37   22   23 ar
    38   22   25 1
    39   23   24 ar
    40   23   40 1
    41   24   41 1
    42   25   26 2
    43   25   27 2
    44   25   28 1
    45   28   42 1
    46   28   43 1
    47   28   44 1
    48   29   45 1
    49   29   46 1
    50   29   47 1
@<TRIPOS>MOLECULE
CHEMBL254377
   56    59     0     0     0
SMALL
USER_CHARGES

@<TRIPOS>ATOM
      1 C1         -0.0184    1.5028    0.0103 C.3       1 <0>        -0.1031
      2 C2          0.0021   -0.0041    0.0020 C.2       1 <0>         0.1057
      3 C3          0.0074   -0.7686   -1.1014 C.2       1 <0>        -0.1772
      4 C4          0.0293   -2.1641   -0.6562 C.ar      1 <0>        -0.0544
      5 C5          0.0430   -3.3930   -1.3197 C.ar      1 <0>        -0.1120
      6 C6          0.0627   -4.5631   -0.5876 C.ar      1 <0>         0.1028
      7 C7          0.0685   -4.5202    0.8044 C.ar      1 <0>        -0.1780
      8 C8          0.0552   -3.3144    1.4689 C.ar      1 <0>        -0.0882
      9 C9          0.0357   -2.1241    0.7494 C.ar      1 <0>         0.0730
     10 N1          0.0239   -0.7953    1.1178 N.pl3     1 <0>        -0.4741
     11 C10         0.0308   -0.3042    2.4980 C.3       1 <0>         0.1493
     12 C11        -1.3874   -0.1552    2.9853 C.ar      1 <0>        -0.0993
     13 C12        -2.0590    1.0391    2.8024 C.ar      1 <0>        -0.0972
     14 C13        -3.3600    1.1761    3.2488 C.ar      1 <0>        -0.0900
     15 C14        -3.9899    0.1178    3.8786 C.ar      1 <0>        -0.0823
     16 C15        -3.3175   -1.0771    4.0613 C.ar      1 <0>        -0.0894
     17 C16        -2.0184   -1.2149    3.6099 C.ar      1 <0>        -0.0921
     18 Br1        -5.7695    0.3047    4.4900 Br        1 <0>        -0.0442
     19 O1          0.0761   -5.7626   -1.2282 O.3       1 <0>        -0.3190
     20 C17         0.0962   -6.9345   -0.4107 C.3       1 <0>         0.0285
     21 C18        -0.0070   -0.2832   -2.5281 C.3       1 <0>        -0.0509
     22 C19         1.4305   -0.0982   -3.0183 C.3       1 <0>         0.1246
     23 N2          1.4166    0.3737   -4.4052 N.am      1 <0>        -0.7261
     24 C20         2.5772    0.6075   -5.0491 C.2       1 <0>         0.5585
     25 O2          3.6356    0.4269   -4.4792 O.2       1 <0>        -0.5305
     26 C21         2.5631    1.0835   -6.4482 C.ar      1 <0>        -0.1319
     27 C22         1.3490    1.2973   -7.1035 C.ar      1 <0>        -0.0742
     28 C23         1.3422    1.7420   -8.4088 C.ar      1 <0>        -0.1176
     29 C24         2.5367    1.9760   -9.0698 C.ar      1 <0>        -0.0118
     30 C25         3.7443    1.7656   -8.4249 C.ar      1 <0>        -0.1171
     31 C26         3.7638    1.3266   -7.1178 C.ar      1 <0>        -0.0465
     32 Cl1         2.5202    2.5346  -10.7134 Cl        1 <0>        -0.0594
     33 H1          1.0042    1.8801    0.0026 H         1 <0>         0.0814
     34 H2         -0.5455    1.8639   -0.8728 H         1 <0>         0.0870
     35 H3         -0.5286    1.8543    0.9071 H         1 <0>         0.0697
     36 H4          0.0378   -3.4277   -2.3992 H         1 <0>         0.1290
     37 H5          0.0832   -5.4414    1.3679 H         1 <0>         0.1310
     38 H6          0.0598   -3.2928    2.5486 H         1 <0>         0.1200
     39 H7          0.5607   -1.0138    3.1335 H         1 <0>         0.0991
     40 H8          0.5319    0.6630    2.5370 H         1 <0>         0.1012
     41 H9         -1.5670    1.8655    2.3110 H         1 <0>         0.1335
     42 H10        -3.8845    2.1093    3.1062 H         1 <0>         0.1362
     43 H11        -3.8089   -1.9037    4.5530 H         1 <0>         0.1358
     44 H12        -1.4947   -2.1491    3.7489 H         1 <0>         0.1309
     45 H13         0.1053   -7.8204   -1.0457 H         1 <0>         0.0990
     46 H14         0.9893   -6.9262    0.2142 H         1 <0>         0.0540
     47 H15        -0.7905   -6.9508    0.2230 H         1 <0>         0.0537
     48 H16        -0.5135   -1.0161   -3.1561 H         1 <0>         0.0777
     49 H17        -0.5349    0.6688   -2.5826 H         1 <0>         0.0759
     50 H18         1.9371    0.6347   -2.3903 H         1 <0>         0.0698
     51 H19         1.9584   -1.0503   -2.9637 H         1 <0>         0.0723
     52 H20         0.5720    0.5178   -4.8600 H         1 <0>         0.3998
     53 H21         0.4170    1.1146   -6.5893 H         1 <0>         0.1361
     54 H22         0.4037    1.9078   -8.9167 H         1 <0>         0.1415
     55 H23         4.6725    1.9495   -8.9456 H         1 <0>         0.1424
     56 H24         4.7060    1.1669   -6.6146 H         1 <0>         0.1470
@<TRIPOS>BOND
     1    1    2 1
     2    1   33 1
     3    1   34 1
     4    1   35 1
     5    2   10 1
     6    2    3 2
     7    3    4 1
     8    3   21 1
     9    4    9 ar
    10    4    5 ar
    11    5    6 ar
    12    5   36 1
    13    6    7 ar
    14    6   19 1
    15    7    8 ar
    16    7   37 1
    17    8    9 ar
    18    8   38 1
    19    9   10 1
    20   10   11 1
    21   11   12 1
    22   11   39 1
    23   11   40 1
    24   12   17 ar
    25   12   13 ar
    26   13   14 ar
    27   13   41 1
    28   14   15 ar
    29   14   42 1
    30   15   16 ar
    31   15   18 1
    32   16   17 ar
    33   16   43 1
    34   17   44 1
    35   19   20 1
    36   20   45 1
    37   20   46 1
    38   20   47 1
    39   21   22 1
    40   21   48 1
    41   21   49 1
    42   22   23 1
    43   22   50 1
    44   22   51 1
    45   23   24 am
    46   23   52 1
    47   24   25 2
    48   24   26 1
    49   26   31 ar
    50   26   27 ar
    51   27   28 ar
    52   27   53 1
    53   28   29 ar
    54   28   54 1
    55   29   30 ar
    56   29   32 1
    57   30   31 ar
    58   30   55 1
    59   31   56 1
@<TRIPOS>MOLECULE
CHEMBL404107
   55    58     0     0     0
SMALL
USER_CHARGES

@<TRIPOS>ATOM
      1 C1         -0.0184    1.5028    0.0103 C.3       1 <0>        -0.1047
      2 C2          0.0021   -0.0041    0.0020 C.2       1 <0>         0.1083
      3 C3          0.0074   -0.7686   -1.1014 C.2       1 <0>        -0.1807
      4 C4          0.0293   -2.1641   -0.6562 C.ar      1 <0>        -0.0544
      5 C5          0.0430   -3.3930   -1.3197 C.ar      1 <0>        -0.1127
      6 C6          0.0627   -4.5631   -0.5876 C.ar      1 <0>         0.1036
      7 C7          0.0685   -4.5202    0.8044 C.ar      1 <0>        -0.1778
      8 C8          0.0552   -3.3144    1.4689 C.ar      1 <0>        -0.0877
      9 C9          0.0357   -2.1241    0.7494 C.ar      1 <0>         0.0729
     10 N1          0.0239   -0.7953    1.1178 N.pl3     1 <0>        -0.4740
     11 C10         0.0308   -0.3042    2.4980 C.3       1 <0>         0.1493
     12 C11        -1.3874   -0.1552    2.9853 C.ar      1 <0>        -0.0998
     13 C12        -2.0590    1.0391    2.8024 C.ar      1 <0>        -0.0971
     14 C13        -3.3600    1.1761    3.2488 C.ar      1 <0>        -0.0897
     15 C14        -3.9899    0.1178    3.8786 C.ar      1 <0>        -0.0821
     16 C15        -3.3175   -1.0771    4.0613 C.ar      1 <0>        -0.0894
     17 C16        -2.0184   -1.2149    3.6099 C.ar      1 <0>        -0.0920
     18 Br1        -5.7695    0.3047    4.4900 Br        1 <0>        -0.0440
     19 O1          0.0761   -5.7626   -1.2282 O.3       1 <0>        -0.3187
     20 C17         0.0962   -6.9345   -0.4107 C.3       1 <0>         0.0284
     21 C18        -0.0070   -0.2832   -2.5281 C.3       1 <0>        -0.0365
     22 C19         1.4305   -0.0982   -3.0183 C.3       1 <0>         0.0721
     23 O2          1.4169    0.3621   -4.3711 O.3       1 <0>        -0.3473
     24 C20         2.6113    0.5763   -4.9563 C.2       1 <0>         0.5098
     25 O3          3.6363    0.3779   -4.3352 O.2       1 <0>        -0.4991
     26 C21         2.6745    1.0524   -6.3526 C.ar      1 <0>        -0.1229
     27 C22         1.4978    1.2869   -7.0675 C.ar      1 <0>        -0.0480
     28 C23         1.5634    1.7313   -8.3710 C.ar      1 <0>        -0.1239
     29 C24         2.7931    1.9448   -8.9719 C.ar      1 <0>        -0.0025
     30 C25         3.9637    1.7140   -8.2682 C.ar      1 <0>        -0.1220
     31 C26         3.9112    1.2755   -6.9621 C.ar      1 <0>        -0.0417
     32 Cl1         2.8674    2.5033  -10.6140 Cl        1 <0>        -0.0558
     33 H1          1.0042    1.8801    0.0026 H         1 <0>         0.0813
     34 H2         -0.5455    1.8639   -0.8728 H         1 <0>         0.0889
     35 H3         -0.5286    1.8543    0.9071 H         1 <0>         0.0708
     36 H4          0.0378   -3.4277   -2.3992 H         1 <0>         0.1299
     37 H5          0.0832   -5.4414    1.3679 H         1 <0>         0.1315
     38 H6          0.0598   -3.2928    2.5486 H         1 <0>         0.1204
     39 H7          0.5607   -1.0138    3.1335 H         1 <0>         0.0994
     40 H8          0.5319    0.6630    2.5370 H         1 <0>         0.1014
     41 H9         -1.5670    1.8655    2.3110 H         1 <0>         0.1335
     42 H10        -3.8845    2.1093    3.1062 H         1 <0>         0.1364
     43 H11        -3.8089   -1.9037    4.5530 H         1 <0>         0.1359
     44 H12        -1.4947   -2.1491    3.7489 H         1 <0>         0.1308
     45 H13         0.9893   -6.9262    0.2142 H         1 <0>         0.0539
     46 H14        -0.7905   -6.9508    0.2230 H         1 <0>         0.0539
     47 H15         0.1053   -7.8204   -1.0457 H         1 <0>         0.0992
     48 H16        -0.5135   -1.0161   -3.1561 H         1 <0>         0.0830
     49 H17        -0.5349    0.6688   -2.5826 H         1 <0>         0.0812
     50 H18         1.9371    0.6347   -2.3903 H         1 <0>         0.0687
     51 H19         1.9584   -1.0503   -2.9637 H         1 <0>         0.0715
     52 H20         0.5384    1.1201   -6.6002 H         1 <0>         0.1501
     53 H21         0.6542    1.9130   -8.9248 H         1 <0>         0.1445
     54 H22         4.9195    1.8823   -8.7422 H         1 <0>         0.1453
     55 H23         4.8246    1.1006   -6.4129 H         1 <0>         0.1483
@<TRIPOS>BOND
     1    1    2 1
     2    1   33 1
     3    1   34 1
     4    1   35 1
     5    2   10 1
     6    2    3 2
     7    3    4 1
     8    3   21 1
     9    4    9 ar
    10    4    5 ar
    11    5    6 ar
    12    5   36 1
    13    6    7 ar
    14    6   19 1
    15    7    8 ar
    16    7   37 1
    17    8    9 ar
    18    8   38 1
    19    9   10 1
    20   10   11 1
    21   11   12 1
    22   11   39 1
    23   11   40 1
    24   12   17 ar
    25   12   13 ar
    26   13   14 ar
    27   13   41 1
    28   14   15 ar
    29   14   42 1
    30   15   16 ar
    31   15   18 1
    32   16   17 ar
    33   16   43 1
    34   17   44 1
    35   19   20 1
    36   20   45 1
    37   20   46 1
    38   20   47 1
    39   21   22 1
    40   21   48 1
    41   21   49 1
    42   22   23 1
    43   22   50 1
    44   22   51 1
    45   23   24 1
    46   24   25 2
    47   24   26 1
    48   26   31 ar
    49   26   27 ar
    50   27   28 ar
    51   27   52 1
    52   28   29 ar
    53   28   53 1
    54   29   30 ar
    55   29   32 1
    56   30   31 ar
    57   30   54 1
    58   31   55 1
@<TRIPOS>MOLECULE
CHEMBL414824
   50    51     0     0     0
SMALL
USER_CHARGES

@<TRIPOS>ATOM
      1 C1         -0.0187    1.5258    0.0104 C.3       1 <0>        -0.1473
      2 C2          0.0021   -0.0041    0.0020 C.3       1 <0>        -0.0213
      3 C3          0.7421   -0.5109    1.2415 C.3       1 <0>        -0.1419
      4 C4         -1.4333   -0.5336    0.0129 C.3       1 <0>        -0.1423
      5 C5          0.7074   -0.4901   -1.2379 C.ar      1 <0>        -0.0903
      6 C6          1.2148    0.4183   -2.1413 C.ar      1 <0>        -0.0977
      7 C7          1.8693   -0.0338   -3.2908 C.ar      1 <0>        -0.0639
      8 C8          2.0058   -1.4063   -3.5179 C.ar      1 <0>        -0.1038
      9 C9          1.4951   -2.3069   -2.6087 C.ar      1 <0>        -0.0902
     10 C10         0.8501   -1.8529   -1.4653 C.ar      1 <0>         0.1204
     11 O1          0.3528   -2.7446   -0.5691 O.3       1 <0>        -0.4851
     12 C11         1.6410   -3.7869   -2.8526 C.3       1 <0>        -0.0212
     13 C12         2.3880   -4.0157   -4.1681 C.3       1 <0>        -0.1474
     14 C13         2.4285   -4.4181   -1.7026 C.3       1 <0>        -0.1422
     15 C14         0.2549   -4.4294   -2.9347 C.3       1 <0>        -0.1422
     16 C15         2.4132    0.9334   -4.2601 C.2       1 <0>        -0.0935
     17 C16         3.0415    0.4969   -5.3636 C.2       1 <0>        -0.1100
     18 C17         3.5856    1.4643   -6.3333 C.ar      1 <0>        -0.1051
     19 C18         4.2384    1.0220   -7.4920 C.ar      1 <0>        -0.0674
     20 C19         4.7302    1.9711   -8.3698 C.ar      1 <0>        -0.1687
     21 C20         4.5639    3.3137   -8.0792 C.ar      1 <0>         0.0957
     22 N1          3.9450    3.7020   -6.9808 N.ar      1 <0>        -0.4818
     23 C21         3.4543    2.8382   -6.1163 C.ar      1 <0>         0.1039
     24 H1          1.0039    1.9031    0.0027 H         1 <0>         0.0588
     25 H2         -0.5459    1.8868   -0.8726 H         1 <0>         0.0581
     26 H3         -0.5289    1.8773    0.9072 H         1 <0>         0.0599
     27 H4          0.2319   -0.1594    2.1383 H         1 <0>         0.0544
     28 H5          0.7568   -1.6008    1.2356 H         1 <0>         0.0749
     29 H6          1.7647   -0.1336    1.2338 H         1 <0>         0.0510
     30 H7         -1.9605   -0.1726   -0.8702 H         1 <0>         0.0542
     31 H8         -1.4185   -1.6235    0.0069 H         1 <0>         0.0580
     32 H9         -1.9435   -0.1821    0.9097 H         1 <0>         0.0609
     33 H10         1.1067    1.4777   -1.9618 H         1 <0>         0.1325
     34 H11         2.5103   -1.7602   -4.4048 H         1 <0>         0.1319
     35 H12        -0.5602   -3.0108   -0.7444 H         1 <0>         0.3816
     36 H13         3.3755   -3.5579   -4.1097 H         1 <0>         0.0581
     37 H14         2.4936   -5.0861   -4.3446 H         1 <0>         0.0603
     38 H15         1.8270   -3.5660   -4.9874 H         1 <0>         0.0574
     39 H16         1.8963   -4.2550   -0.7654 H         1 <0>         0.0755
     40 H17         2.5341   -5.4885   -1.8790 H         1 <0>         0.0544
     41 H18         3.4160   -3.9603   -1.6441 H         1 <0>         0.0509
     42 H19        -0.3060   -3.9797   -3.7540 H         1 <0>         0.0542
     43 H20         0.3605   -5.4998   -3.1111 H         1 <0>         0.0610
     44 H21        -0.2772   -4.2664   -1.9975 H         1 <0>         0.0581
     45 H22         2.3065    1.9934   -4.0831 H         1 <0>         0.1242
     46 H23         3.1482   -0.5632   -5.5406 H         1 <0>         0.1248
     47 H24         4.3548   -0.0325   -7.6940 H         1 <0>         0.1364
     48 H25         5.2393    1.6673   -9.2725 H         1 <0>         0.1378
     49 H26         4.9475    4.0563   -8.7631 H         1 <0>         0.1570
     50 H27         2.9499    3.1948   -5.2305 H         1 <0>         0.1567
@<TRIPOS>BOND
     1    1    2 1
     2    1   24 1
     3    1   25 1
     4    1   26 1
     5    2    3 1
     6    2    4 1
     7    2    5 1
     8    3   27 1
     9    3   28 1
    10    3   29 1
    11    4   30 1
    12    4   31 1
    13    4   32 1
    14    5   10 ar
    15    5    6 ar
    16    6    7 ar
    17    6   33 1
    18    7    8 ar
    19    7   16 1
    20    8    9 ar
    21    8   34 1
    22    9   10 ar
    23    9   12 1
    24   10   11 1
    25   11   35 1
    26   12   13 1
    27   12   14 1
    28   12   15 1
    29   13   36 1
    30   13   37 1
    31   13   38 1
    32   14   39 1
    33   14   40 1
    34   14   41 1
    35   15   42 1
    36   15   43 1
    37   15   44 1
    38   16   17 2
    39   16   45 1
    40   17   18 1
    41   17   46 1
    42   18   23 ar
    43   18   19 ar
    44   19   20 ar
    45   19   47 1
    46   20   21 ar
    47   20   48 1
    48   21   22 ar
    49   21   49 1
    50   22   23 ar
    51   23   50 1
@<TRIPOS>MOLECULE
CHEMBL8846
   46    47     0     0     0
SMALL
USER_CHARGES

@<TRIPOS>ATOM
      1 C1         -1.2921    1.1949   -0.9881 C.3       1 <0>        -0.1498
      2 C2         -0.8293   -0.2246   -0.6540 C.3       1 <0>        -0.0210
      3 C3         -0.4003   -0.2891    0.8132 C.3       1 <0>        -0.1426
      4 C4         -1.9790   -1.2055   -0.8927 C.3       1 <0>        -0.1426
      5 C5          0.3366   -0.5933   -1.5349 C.ar      1 <0>        -0.1005
      6 C6          0.8155    0.3114   -2.4558 C.ar      1 <0>        -0.0524
      7 C7          1.8968   -0.0315   -3.2723 C.ar      1 <0>        -0.1629
      8 C8          2.4875   -1.2922   -3.1502 C.ar      1 <0>        -0.0741
      9 C9          2.0026   -2.1911   -2.2268 C.ar      1 <0>        -0.0981
     10 C10         0.9306   -1.8441   -1.4127 C.ar      1 <0>         0.1504
     11 O1          0.4591   -2.7310   -0.4999 O.3       1 <0>        -0.4825
     12 C11         2.6385   -3.5510   -2.0947 C.3       1 <0>        -0.0210
     13 C12         3.7908   -3.6744   -3.0936 C.3       1 <0>        -0.1518
     14 C13         3.1751   -3.7271   -0.6727 C.3       1 <0>        -0.1434
     15 C14         1.5951   -4.6322   -2.3836 C.3       1 <0>        -0.1431
     16 C15         2.4133    0.9355   -4.2616 C.2       1 <0>         0.4819
     17 O2          2.1911    2.1248   -4.1240 O.2       1 <0>        -0.4409
     18 C16         3.1928    0.4642   -5.4082 C.2       1 <0>        -0.2828
     19 C17         3.8698    1.2031   -6.3698 C.2       1 <0>        -0.0640
     20 C18         4.5195    0.4726   -7.3342 C.2       1 <0>        -0.1877
     21 C19         4.4603   -0.8823   -7.2875 C.2       1 <0>        -0.2289
     22 S1          3.5267   -1.2077   -5.9292 S.3       1 <0>         0.2245
     23 H1         -0.4730    1.8936   -0.8181 H         1 <0>         0.0607
     24 H2         -1.5978    1.2407   -2.0334 H         1 <0>         0.0588
     25 H3         -2.1354    1.4615   -0.3510 H         1 <0>         0.0621
     26 H4         -1.2435   -0.0224    1.4504 H         1 <0>         0.0565
     27 H5         -0.0705   -1.3003    1.0513 H         1 <0>         0.0752
     28 H6          0.4189    0.4097    0.9833 H         1 <0>         0.0522
     29 H7         -2.2847   -1.1596   -1.9379 H         1 <0>         0.0553
     30 H8         -1.6493   -2.2167   -0.6546 H         1 <0>         0.0581
     31 H9         -2.8223   -0.9388   -0.2555 H         1 <0>         0.0629
     32 H10         0.3561    1.2845   -2.5473 H         1 <0>         0.1427
     33 H11         3.3230   -1.5610   -3.7796 H         1 <0>         0.1379
     34 H12        -0.2358   -3.3120   -0.8386 H         1 <0>         0.3872
     35 H13         4.5341   -2.9042   -2.8878 H         1 <0>         0.0595
     36 H14         4.2507   -4.6580   -2.9980 H         1 <0>         0.0641
     37 H15         3.4085   -3.5489   -4.1066 H         1 <0>         0.0595
     38 H16         2.3542   -3.6392    0.0389 H         1 <0>         0.0759
     39 H17         3.6351   -4.7107   -0.5772 H         1 <0>         0.0568
     40 H18         3.9184   -2.9569   -0.4669 H         1 <0>         0.0521
     41 H19         1.2128   -4.5067   -3.3966 H         1 <0>         0.0563
     42 H20         2.0551   -5.6157   -2.2880 H         1 <0>         0.0634
     43 H21         0.7742   -4.5443   -1.6719 H         1 <0>         0.0582
     44 H22         3.8840    2.2829   -6.3599 H         1 <0>         0.1499
     45 H23         5.0697    0.9697   -8.1194 H         1 <0>         0.1387
     46 H24         4.9133   -1.5899   -7.9661 H         1 <0>         0.1893
@<TRIPOS>BOND
     1    1    2 1
     2    1   23 1
     3    1   24 1
     4    1   25 1
     5    2    3 1
     6    2    4 1
     7    2    5 1
     8    3   26 1
     9    3   27 1
    10    3   28 1
    11    4   29 1
    12    4   30 1
    13    4   31 1
    14    5   10 ar
    15    5    6 ar
    16    6    7 ar
    17    6   32 1
    18    7    8 ar
    19    7   16 1
    20    8    9 ar
    21    8   33 1
    22    9   10 ar
    23    9   12 1
    24   10   11 1
    25   11   34 1
    26   12   13 1
    27   12   14 1
    28   12   15 1
    29   13   35 1
    30   13   36 1
    31   13   37 1
    32   14   38 1
    33   14   39 1
    34   14   40 1
    35   15   41 1
    36   15   42 1
    37   15   43 1
    38   16   17 2
    39   16   18 1
    40   18   22 1
    41   18   19 2
    42   19   20 1
    43   19   44 1
    44   20   21 2
    45   20   45 1
    46   21   22 1
    47   21   46 1
@<TRIPOS>MOLECULE
CHEMBL423296
   54    58     0     0     0
SMALL
USER_CHARGES

@<TRIPOS>ATOM
      1 C1         -0.0182    1.5027    0.0102 C.3       1 <0>        -0.1086
      2 C2          0.0021   -0.0042    0.0020 C.2       1 <0>         0.1155
      3 C3          0.0074   -0.7679   -1.0995 C.2       1 <0>        -0.1576
      4 C4          0.0293   -2.1662   -0.6567 C.ar      1 <0>        -0.0379
      5 C5          0.0428   -3.3917   -1.3243 C.ar      1 <0>        -0.1028
      6 C6          0.0625   -4.5656   -0.5961 C.ar      1 <0>         0.1125
      7 C7          0.0688   -4.5275    0.7953 C.ar      1 <0>        -0.1729
      8 C8          0.0551   -3.3226    1.4635 C.ar      1 <0>        -0.0853
      9 C9          0.0357   -2.1316    0.7482 C.ar      1 <0>         0.0752
     10 N1          0.0240   -0.7990    1.1223 N.am      1 <0>        -0.5041
     11 C10         0.0297   -0.3494    2.3928 C.2       1 <0>         0.6013
     12 O1         -1.0174   -0.0751    2.9450 O.2       1 <0>        -0.4253
     13 C11         1.3084   -0.1902    3.1139 C.ar      1 <0>        -0.1644
     14 C12         2.5190   -0.3985    2.4491 C.ar      1 <0>        -0.0445
     15 C13         3.7097   -0.2483    3.1279 C.ar      1 <0>        -0.1208
     16 C14         3.7070    0.1084    4.4664 C.ar      1 <0>         0.0042
     17 C15         2.5096    0.3160    5.1314 C.ar      1 <0>        -0.1215
     18 C16         1.3125    0.1750    4.4621 C.ar      1 <0>        -0.0373
     19 Cl1         5.2103    0.2955    5.3141 Cl        1 <0>        -0.0505
     20 O2          0.0753   -5.7626   -1.2410 O.3       1 <0>        -0.3147
     21 C17         0.0954   -6.9375   -0.4278 C.3       1 <0>         0.0269
     22 C18        -0.0069   -0.2812   -2.5257 C.3       1 <0>         0.0430
     23 C19         1.4090   -0.0991   -3.0085 C.2       1 <0>         0.0767
     24 N2          2.1796   -0.9712   -3.6043 N.2       1 <0>        -0.5002
     25 C20         3.4144   -0.6619   -3.9738 C.2       1 <0>         0.1043
     26 C21         3.8333    0.6122   -3.6983 C.2       1 <0>        -0.2233
     27 S1          2.3726    1.2772   -2.9161 S.3       1 <0>         0.1112
     28 C22         4.2963   -1.6447   -4.6499 C.ar      1 <0>        -0.0057
     29 C23         5.5913   -1.2847   -5.0182 C.ar      1 <0>        -0.0995
     30 C24         6.4077   -2.2026   -5.6469 C.ar      1 <0>        -0.0910
     31 C25         5.9423   -3.4790   -5.9119 C.ar      1 <0>        -0.0857
     32 C26         4.6570   -3.8416   -5.5482 C.ar      1 <0>        -0.0920
     33 C27         3.8346   -2.9330   -4.9139 C.ar      1 <0>        -0.0783
     34 Br1         7.0663   -4.7315   -6.7743 Br        1 <0>        -0.0487
     35 H1          1.0044    1.8799    0.0025 H         1 <0>         0.0869
     36 H2         -0.5453    1.8638   -0.8729 H         1 <0>         0.0953
     37 H3         -0.5284    1.8543    0.9070 H         1 <0>         0.0739
     38 H4          0.0376   -3.4222   -2.4038 H         1 <0>         0.1376
     39 H5          0.0842   -5.4504    1.3560 H         1 <0>         0.1356
     40 H6          0.0595   -3.3039    2.5434 H         1 <0>         0.1223
     41 H7          2.5224   -0.6770    1.4056 H         1 <0>         0.1395
     42 H8          4.6464   -0.4095    2.6151 H         1 <0>         0.1445
     43 H9          2.5140    0.5936    6.1751 H         1 <0>         0.1472
     44 H10         0.3798    0.3418    4.9804 H         1 <0>         0.1484
     45 H11         0.9887   -6.9318    0.1968 H         1 <0>         0.0548
     46 H12        -0.7911   -6.9558    0.2062 H         1 <0>         0.0552
     47 H13         0.1040   -7.8210   -1.0660 H         1 <0>         0.1010
     48 H14        -0.5139   -1.0132   -3.1543 H         1 <0>         0.1112
     49 H15        -0.5343    0.6712   -2.5793 H         1 <0>         0.1024
     50 H16         4.7827    1.0851   -3.9015 H         1 <0>         0.1972
     51 H17         5.9552   -0.2889   -4.8122 H         1 <0>         0.1334
     52 H18         7.4113   -1.9245   -5.9330 H         1 <0>         0.1366
     53 H19         4.2987   -4.8387   -5.7572 H         1 <0>         0.1361
     54 H20         2.8334   -3.2182   -4.6265 H         1 <0>         0.1429
@<TRIPOS>BOND
     1    1    2 1
     2    1   35 1
     3    1   36 1
     4    1   37 1
     5    2   10 1
     6    2    3 2
     7    3    4 1
     8    3   22 1
     9    4    9 ar
    10    4    5 ar
    11    5    6 ar
    12    5   38 1
    13    6    7 ar
    14    6   20 1
    15    7    8 ar
    16    7   39 1
    17    8    9 ar
    18    8   40 1
    19    9   10 1
    20   10   11 am
    21   11   12 2
    22   11   13 1
    23   13   18 ar
    24   13   14 ar
    25   14   15 ar
    26   14   41 1
    27   15   16 ar
    28   15   42 1
    29   16   17 ar
    30   16   19 1
    31   17   18 ar
    32   17   43 1
    33   18   44 1
    34   20   21 1
    35   21   45 1
    36   21   46 1
    37   21   47 1
    38   22   23 1
    39   22   48 1
    40   22   49 1
    41   23   27 1
    42   23   24 2
    43   24   25 1
    44   25   26 2
    45   25   28 1
    46   26   27 1
    47   26   50 1
    48   28   33 ar
    49   28   29 ar
    50   29   30 ar
    51   29   51 1
    52   30   31 ar
    53   30   52 1
    54   31   32 ar
    55   31   34 1
    56   32   33 ar
    57   32   53 1
    58   33   54 1
@<TRIPOS>MOLECULE
CHEMBL299794
   32    34     0     0     0
SMALL
USER_CHARGES

@<TRIPOS>ATOM
      1 C1         -0.0256    1.3207   -0.4280 C.ar      1 <0>        -0.1617
      2 C2          1.1537    1.9952   -0.6949 C.ar      1 <0>        -0.0748
      3 C3          2.3703    1.3531   -0.5663 C.ar      1 <0>        -0.1915
      4 C4          2.4166    0.0251   -0.1673 C.ar      1 <0>         0.2230
      5 C5          1.2241   -0.6606    0.1042 C.ar      1 <0>        -0.0352
      6 C6          0.0026   -0.0000   -0.0302 C.ar      1 <0>        -0.0602
      7 C7          1.2608   -2.0746    0.5298 C.2       1 <0>         0.0331
      8 N1          2.2977   -2.8800    0.7236 N.2       1 <0>        -0.2735
      9 N2          2.1520   -4.0773    1.0923 N.2       1 <0>        -0.3453
     10 C8          0.9520   -4.6032    1.3086 C.2       1 <0>         0.2812
     11 S1          0.5039   -6.2284    1.8211 S.3       1 <0>        -0.6579
     12 S2         -0.0805   -3.1880    0.9386 S.3       1 <0>        -0.1313
     13 N3          3.6438   -0.6250   -0.0373 N.pl3     1 <0>        -0.6722
     14 C9          4.8332    0.0988   -0.1512 C.ar      1 <0>         0.1798
     15 C10         4.9499    1.3458    0.4507 C.ar      1 <0>        -0.1256
     16 C11         6.1269    2.0585    0.3361 C.ar      1 <0>        -0.0942
     17 C12         7.1891    1.5325   -0.3767 C.ar      1 <0>        -0.1043
     18 C13         7.0763    0.2922   -0.9773 C.ar      1 <0>        -0.1554
     19 C14         5.9040   -0.4289   -0.8616 C.ar      1 <0>        -0.1049
     20 C15         8.2362   -0.2765   -1.7534 C.3       1 <0>         0.5089
     21 F1          9.3045    0.6263   -1.7239 F         1 <0>        -0.1783
     22 F2          8.6334   -1.4880   -1.1775 F         1 <0>        -0.1747
     23 F3          7.8474   -0.4957   -3.0793 F         1 <0>        -0.1763
     24 H1         -0.9716    1.8321   -0.5273 H         1 <0>         0.1245
     25 H2          1.1224    3.0290   -1.0058 H         1 <0>         0.1239
     26 H3          3.2861    1.8854   -0.7770 H         1 <0>         0.1323
     27 H4         -0.9199   -0.5219    0.1772 H         1 <0>         0.1279
     28 H5          3.6713   -1.5797    0.1321 H         1 <0>         0.4326
     29 H6          4.1207    1.7572    1.0072 H         1 <0>         0.1394
     30 H7          6.2181    3.0279    0.8034 H         1 <0>         0.1369
     31 H8          8.1086    2.0921   -0.4648 H         1 <0>         0.1368
     32 H9          5.8183   -1.3999   -1.3265 H         1 <0>         0.1369
@<TRIPOS>BOND
     1    1    6 ar
     2    1    2 ar
     3    1   24 1
     4    2    3 ar
     5    2   25 1
     6    3    4 ar
     7    3   26 1
     8    4    5 ar
     9    4   13 1
    10    5    6 ar
    11    5    7 1
    12    6   27 1
    13    7   12 1
    14    7    8 2
    15    8    9 1
    16    9   10 2
    17   10   11 1
    18   10   12 1
    19   13   14 1
    20   13   28 1
    21   14   19 ar
    22   14   15 ar
    23   15   16 ar
    24   15   29 1
    25   16   17 ar
    26   16   30 1
    27   17   18 ar
    28   17   31 1
    29   18   19 ar
    30   18   20 1
    31   19   32 1
    32   20   21 1
    33   20   22 1
    34   20   23 1
@<TRIPOS>MOLECULE
CHEMBL565567
   36    38     0     0     0
SMALL
USER_CHARGES

@<TRIPOS>ATOM
      1 C1         -0.0173    1.4248    0.0099 C.3       1 <0>         0.0274
      2 O1          0.0021   -0.0041    0.0020 O.3       1 <0>        -0.3180
      3 C2         -1.2011   -0.6379    0.0101 C.ar      1 <0>         0.1013
      4 C3         -2.3776    0.1076    0.0196 C.ar      1 <0>        -0.1694
      5 C4         -3.6045   -0.5177    0.0283 C.ar      1 <0>        -0.0918
      6 C5         -3.6779   -1.9066    0.0272 C.ar      1 <0>         0.0796
      7 C6         -2.4913   -2.6633    0.0172 C.ar      1 <0>        -0.0733
      8 C7         -1.2513   -2.0170    0.0032 C.ar      1 <0>        -0.1073
      9 C8         -2.8995   -4.0671    0.0195 C.2       1 <0>        -0.1653
     10 C9         -4.2554   -4.0850    0.0303 C.2       1 <0>         0.1082
     11 N1         -4.7332   -2.7951    0.0351 N.pl3     1 <0>        -0.5894
     12 H1         -5.6710   -2.5475    0.0431 H         1 <0>         0.4157
     13 C10        -5.0922   -5.3044    0.0366 C.ar      1 <0>         0.0307
     14 C11        -4.4936   -6.5650    0.0373 C.ar      1 <0>        -0.1198
     15 C12        -5.2799   -7.6987    0.0436 C.ar      1 <0>        -0.0152
     16 C13        -6.6590   -7.5876    0.0494 C.ar      1 <0>        -0.6616
     17 C14        -7.2587   -6.3408    0.0484 C.ar      1 <0>        -0.0155
     18 C15        -6.4837   -5.1994    0.0478 C.ar      1 <0>        -0.1386
     19 S1         -7.6559   -9.0405    0.0575 S.o2      1 <0>         2.5006
     20 O2         -8.8817   -8.6424   -0.5410 O.2       1 <0>        -0.9366
     21 O3         -6.8457  -10.0396   -0.5463 O.2       1 <0>        -0.9351
     22 C16        -7.9120   -9.4203    1.8127 C.3       1 <0>        -0.6501
     23 H2          1.0053    1.8021    0.0021 H         1 <0>         0.1003
     24 H3         -0.5445    1.7859   -0.8732 H         1 <0>         0.0547
     25 H4         -0.5275    1.7763    0.9067 H         1 <0>         0.0546
     26 H5         -2.3271    1.1864    0.0205 H         1 <0>         0.1344
     27 H6         -4.5101    0.0707    0.0364 H         1 <0>         0.1263
     28 H7         -0.3382   -2.5937   -0.0086 H         1 <0>         0.1342
     29 H8         -2.2455   -4.9265    0.0133 H         1 <0>         0.1544
     30 H9         -3.4172   -6.6530    0.0324 H         1 <0>         0.1423
     31 H10        -4.8179   -8.6749    0.0438 H         1 <0>         0.1492
     32 H11        -8.3357   -6.2609    0.0525 H         1 <0>         0.1464
     33 H12        -6.9530   -4.2266    0.0515 H         1 <0>         0.1286
     34 H13        -8.4156   -8.5831    2.2960 H         1 <0>         0.1314
     35 H14        -8.5264  -10.3160    1.9048 H         1 <0>         0.1342
     36 H15        -6.9479   -9.5902    2.2921 H         1 <0>         0.1323
@<TRIPOS>BOND
     1    1    2 1
     2    1   23 1
     3    1   24 1
     4    1   25 1
     5    2    3 1
     6    3    8 ar
     7    3    4 ar
     8    4    5 ar
     9    4   26 1
    10    5    6 ar
    11    5   27 1
    12    6   11 1
    13    6    7 ar
    14    7    8 ar
    15    7    9 1
    16    8   28 1
    17    9   10 2
    18    9   29 1
    19   10   11 1
    20   10   13 1
    21   11   12 1
    22   13   18 ar
    23   13   14 ar
    24   14   15 ar
    25   14   30 1
    26   15   16 ar
    27   15   31 1
    28   16   17 ar
    29   16   19 1
    30   17   18 ar
    31   17   32 1
    32   18   33 1
    33   19   20 2
    34   19   21 2
    35   19   22 1
    36   22   34 1
    37   22   35 1
    38   22   36 1
@<TRIPOS>MOLECULE
CHEMBL423493
   55    57     0     0     0
SMALL
USER_CHARGES

@<TRIPOS>ATOM
      1 C1         -1.4336    0.1573    0.0297 C.3       1 <0>        -0.1218
      2 C2         -0.3303   -0.8661    0.1106 C.ar      1 <0>        -0.0482
      3 C3          0.0256   -1.5883   -1.0190 C.ar      1 <0>        -0.0977
      4 C4          1.0352   -2.5255   -0.9472 C.ar      1 <0>        -0.0816
      5 C5          1.6909   -2.7441    0.2540 C.ar      1 <0>        -0.0977
      6 C6          1.3354   -2.0240    1.3831 C.ar      1 <0>         0.1203
      7 C7          0.3248   -1.0763    1.3064 C.ar      1 <0>        -0.0838
      8 C8         -0.0620   -0.2843    2.5288 C.3       1 <0>        -0.0029
      9 C9          1.1997    0.1269    3.2904 C.3       1 <0>        -0.1162
     10 C10         0.8598    1.2508    4.2712 C.3       1 <0>        -0.1187
     11 C11         2.1215    1.6620    5.0328 C.3       1 <0>        -0.1183
     12 C12         1.7816    2.7860    6.0137 C.3       1 <0>        -0.0927
     13 C13         3.0432    3.1971    6.7753 C.3       1 <0>        -0.1835
     14 C14         2.7084    4.3042    7.7414 C.2       1 <0>         0.4871
     15 O1          1.5666    4.7253    7.8140 O.co2     1 <0>        -0.6998
     16 O2          3.5794    4.7787    8.4504 O.co2     1 <0>        -0.7100
     17 C15        -0.9337   -1.1305    3.4205 C.ar      1 <0>        -0.0771
     18 C16        -0.5680   -2.4318    3.7103 C.ar      1 <0>        -0.0826
     19 C17        -1.3664   -3.2086    4.5283 C.ar      1 <0>        -0.1564
     20 C18        -2.5329   -2.6830    5.0576 C.ar      1 <0>         0.0910
     21 C19        -2.8981   -1.3795    4.7667 C.ar      1 <0>        -0.1544
     22 C20        -2.0954   -0.6029    3.9527 C.ar      1 <0>        -0.0859
     23 F1         -3.3144   -3.4416    5.8570 F         1 <0>        -0.1442
     24 O3          1.9796   -2.2398    2.5600 O.3       1 <0>        -0.4859
     25 C21         2.7935   -3.7684    0.3324 C.3       1 <0>        -0.1147
     26 C22         1.2332   -3.1713   -2.2966 C.3       1 <0>        -0.1392
     27 C23         0.2385   -2.5450   -3.2445 C.2       1 <0>         0.3840
     28 O4          0.0871   -2.7980   -4.4156 O.2       1 <0>        -0.4359
     29 C24        -0.5277   -1.5367   -2.4221 C.3       1 <0>        -0.1392
     30 H1         -1.0007    1.1480   -0.1088 H         1 <0>         0.0761
     31 H2         -2.0844   -0.0759   -0.8131 H         1 <0>         0.0669
     32 H3         -2.0137    0.1399    0.9523 H         1 <0>         0.0737
     33 H4         -0.6101    0.6077    2.2253 H         1 <0>         0.0919
     34 H5          1.5876   -0.7305    3.8405 H         1 <0>         0.0854
     35 H6          1.9528    0.4764    2.5841 H         1 <0>         0.0610
     36 H7          0.4719    2.1082    3.7211 H         1 <0>         0.0588
     37 H8          0.1067    0.9013    4.9775 H         1 <0>         0.0626
     38 H9          2.5094    0.8047    5.5829 H         1 <0>         0.0545
     39 H10         2.8745    2.0115    4.3266 H         1 <0>         0.0531
     40 H11         1.3936    3.6433    5.4636 H         1 <0>         0.0566
     41 H12         1.0285    2.4365    6.7200 H         1 <0>         0.0570
     42 H13         3.4311    2.3398    7.3254 H         1 <0>         0.0538
     43 H14         3.7963    3.5466    6.0690 H         1 <0>         0.0534
     44 H15         0.3417   -2.8417    3.2970 H         1 <0>         0.1544
     45 H16        -1.0808   -4.2253    4.7542 H         1 <0>         0.1303
     46 H17        -3.8079   -0.9686    5.1787 H         1 <0>         0.1333
     47 H18        -2.3778    0.4153    3.7292 H         1 <0>         0.1314
     48 H19         2.8118   -1.7552    2.6475 H         1 <0>         0.3901
     49 H20         3.7480   -3.2928    0.1069 H         1 <0>         0.0698
     50 H21         2.8263   -4.1907    1.3368 H         1 <0>         0.0752
     51 H22         2.6037   -4.5626   -0.3896 H         1 <0>         0.0655
     52 H23         2.2479   -2.9879   -2.6499 H         1 <0>         0.1129
     53 H24         1.0519   -4.2437   -2.2245 H         1 <0>         0.1125
     54 H25        -1.5868   -1.7942   -2.4125 H         1 <0>         0.1126
     55 H26        -0.3908   -0.5385   -2.8379 H         1 <0>         0.1133
@<TRIPOS>BOND
     1    1    2 1
     2    1   30 1
     3    1   31 1
     4    1   32 1
     5    2    7 ar
     6    2    3 ar
     7    3   29 1
     8    3    4 ar
     9    4    5 ar
    10    4   26 1
    11    5    6 ar
    12    5   25 1
    13    6    7 ar
    14    6   24 1
    15    7    8 1
    16    8    9 1
    17    8   17 1
    18    8   33 1
    19    9   10 1
    20    9   34 1
    21    9   35 1
    22   10   11 1
    23   10   36 1
    24   10   37 1
    25   11   12 1
    26   11   38 1
    27   11   39 1
    28   12   13 1
    29   12   40 1
    30   12   41 1
    31   13   14 1
    32   13   42 1
    33   13   43 1
    34   14   15 2
    35   14   16 1
    36   17   22 ar
    37   17   18 ar
    38   18   19 ar
    39   18   44 1
    40   19   20 ar
    41   19   45 1
    42   20   21 ar
    43   20   23 1
    44   21   22 ar
    45   21   46 1
    46   22   47 1
    47   24   48 1
    48   25   49 1
    49   25   50 1
    50   25   51 1
    51   26   27 1
    52   26   52 1
    53   26   53 1
    54   27   28 2
    55   27   29 1
    56   29   54 1
    57   29   55 1
@<TRIPOS>MOLECULE
CHEMBL423493__1
   55    57     0     0     0
SMALL
USER_CHARGES

@<TRIPOS>ATOM
      1 C1         -0.6144    2.1220   -0.3629 C.3       1 <0>        -0.1226
      2 C2         -0.2205    0.6702   -0.4539 C.ar      1 <0>        -0.0492
      3 C3          0.1016    0.1182   -1.6850 C.ar      1 <0>        -0.0997
      4 C4          0.4625   -1.2104   -1.7706 C.ar      1 <0>        -0.0805
      5 C5          0.5013   -1.9910   -0.6262 C.ar      1 <0>        -0.1032
      6 C6          0.1787   -1.4408    0.6038 C.ar      1 <0>         0.1263
      7 C7         -0.1764   -0.1022    0.6884 C.ar      1 <0>        -0.0800
      8 C8         -0.5214    0.5046    2.0240 C.3       1 <0>        -0.0064
      9 C9         -1.3714   -0.4814    2.8279 C.3       1 <0>        -0.1211
     10 C10        -1.8257    0.1807    4.1302 C.3       1 <0>        -0.1193
     11 C11        -2.6758   -0.8053    4.9341 C.3       1 <0>        -0.1172
     12 C12        -3.1301   -0.1432    6.2364 C.3       1 <0>        -0.0924
     13 C13        -3.9801   -1.1292    7.0403 C.3       1 <0>        -0.1834
     14 C14        -4.4277   -0.4770    8.3230 C.2       1 <0>         0.4871
     15 O1         -4.0974    0.6700    8.5713 O.co2     1 <0>        -0.7000
     16 O2         -5.1200   -1.0965    9.1126 O.co2     1 <0>        -0.7105
     17 C15         0.7463    0.8080    2.7804 C.ar      1 <0>        -0.0698
     18 C16         1.3601   -0.1821    3.5248 C.ar      1 <0>        -0.0905
     19 C17         2.5229    0.0948    4.2185 C.ar      1 <0>        -0.1504
     20 C18         3.0730    1.3644    4.1678 C.ar      1 <0>         0.0910
     21 C19         2.4573    2.3552    3.4219 C.ar      1 <0>        -0.1506
     22 C20         1.2975    2.0745    2.7248 C.ar      1 <0>        -0.0888
     23 F1          4.2094    1.6363    4.8459 F         1 <0>        -0.1427
     24 O3          0.2174   -2.2079    1.7249 O.3       1 <0>        -0.4784
     25 C21         0.8950   -3.4427   -0.7199 C.3       1 <0>        -0.1154
     26 C22         0.7636   -1.5693   -3.2051 C.3       1 <0>        -0.1393
     27 C23         0.5563   -0.3234   -4.0328 C.2       1 <0>         0.3840
     28 O4          0.6980   -0.2081   -5.2265 O.2       1 <0>        -0.4361
     29 C24         0.1343    0.7481   -3.0561 C.3       1 <0>        -0.1385
     30 H1          0.2486    2.7142   -0.0585 H         1 <0>         0.0741
     31 H2         -0.9654    2.4649   -1.3362 H         1 <0>         0.0675
     32 H3         -1.4113    2.2368    0.3719 H         1 <0>         0.0761
     33 H4         -1.0822    1.4266    1.8703 H         1 <0>         0.0922
     34 H5         -2.2448   -0.7693    2.2427 H         1 <0>         0.0616
     35 H6         -0.7799   -1.3675    3.0579 H         1 <0>         0.0988
     36 H7         -0.9524    0.4687    4.7154 H         1 <0>         0.0609
     37 H8         -2.4172    1.0669    3.9002 H         1 <0>         0.0561
     38 H9         -3.5491   -1.0932    4.3489 H         1 <0>         0.0530
     39 H10        -2.0843   -1.6915    5.1641 H         1 <0>         0.0541
     40 H11        -2.2567    0.1447    6.8216 H         1 <0>         0.0563
     41 H12        -3.7216    0.7430    6.0064 H         1 <0>         0.0560
     42 H13        -4.8535   -1.4171    6.4551 H         1 <0>         0.0535
     43 H14        -3.3887   -2.0154    7.2703 H         1 <0>         0.0537
     44 H15         0.9306   -1.1722    3.5645 H         1 <0>         0.1414
     45 H16         3.0020   -0.6788    4.8003 H         1 <0>         0.1347
     46 H17         2.8854    3.3459    3.3819 H         1 <0>         0.1329
     47 H18         0.8195    2.8460    2.1393 H         1 <0>         0.1298
     48 H19         1.1102   -2.3745    2.0569 H         1 <0>         0.3834
     49 H20         1.9745   -3.5348   -0.6000 H         1 <0>         0.0687
     50 H21         0.3927   -4.0068    0.0659 H         1 <0>         0.0755
     51 H22         0.6027   -3.8363   -1.6934 H         1 <0>         0.0667
     52 H23         1.7966   -1.9056   -3.2940 H         1 <0>         0.1122
     53 H24         0.0860   -2.3543   -3.5409 H         1 <0>         0.1129
     54 H25        -0.8570    1.1183   -3.3175 H         1 <0>         0.1130
     55 H26         0.8536    1.5669   -3.0706 H         1 <0>         0.1123
@<TRIPOS>BOND
     1    1    2 1
     2    1   30 1
     3    1   31 1
     4    1   32 1
     5    2    7 ar
     6    2    3 ar
     7    3   29 1
     8    3    4 ar
     9    4    5 ar
    10    4   26 1
    11    5    6 ar
    12    5   25 1
    13    6    7 ar
    14    6   24 1
    15    7    8 1
    16    8    9 1
    17    8   17 1
    18    8   33 1
    19    9   10 1
    20    9   34 1
    21    9   35 1
    22   10   11 1
    23   10   36 1
    24   10   37 1
    25   11   12 1
    26   11   38 1
    27   11   39 1
    28   12   13 1
    29   12   40 1
    30   12   41 1
    31   13   14 1
    32   13   42 1
    33   13   43 1
    34   14   15 2
    35   14   16 1
    36   17   22 ar
    37   17   18 ar
    38   18   19 ar
    39   18   44 1
    40   19   20 ar
    41   19   45 1
    42   20   21 ar
    43   20   23 1
    44   21   22 ar
    45   21   46 1
    46   22   47 1
    47   24   48 1
    48   25   49 1
    49   25   50 1
    50   25   51 1
    51   26   27 1
    52   26   52 1
    53   26   53 1
    54   27   28 2
    55   27   29 1
    56   29   54 1
    57   29   55 1
@<TRIPOS>MOLECULE
CHEMBL64813
   53    54     0     0     0
SMALL
USER_CHARGES

@<TRIPOS>ATOM
      1 C1         -0.1663    0.9736   -0.0361 C.3       1 <0>        -0.1486
      2 C2         -0.3138   -0.5172   -0.3468 C.3       1 <0>        -0.0211
      3 C3          0.2979   -1.3381    0.7903 C.3       1 <0>        -0.1420
      4 C4         -1.7972   -0.8649   -0.4861 C.3       1 <0>        -0.1426
      5 C5          0.3997   -0.8347   -1.6357 C.ar      1 <0>        -0.0949
      6 C6          1.0524    0.1646   -2.3254 C.ar      1 <0>        -0.0858
      7 C7          1.7130   -0.1305   -3.5191 C.ar      1 <0>        -0.0918
      8 C8          1.7098   -1.4372   -4.0097 C.ar      1 <0>        -0.0869
      9 C9          1.0548   -2.4310   -3.3142 C.ar      1 <0>        -0.0974
     10 C10         0.4036   -2.1346   -2.1241 C.ar      1 <0>         0.1343
     11 O1         -0.2361   -3.1179   -1.4386 O.3       1 <0>        -0.4845
     12 C11         1.0504   -3.8421   -3.8432 C.3       1 <0>        -0.0207
     13 C12         1.8374   -3.8978   -5.1540 C.3       1 <0>        -0.1498
     14 C13         1.7006   -4.7732   -2.8179 C.3       1 <0>        -0.1420
     15 C14        -0.3915   -4.2879   -4.0946 C.3       1 <0>        -0.1428
     16 C15         2.4134    0.9379   -4.2618 C.2       1 <0>         0.0507
     17 C16         3.5387    0.6674   -4.9089 C.2       1 <0>        -0.6839
     18 C17         4.2396   -0.6736   -4.7738 C.3       1 <0>        -0.0767
     19 C18         5.7040   -0.4250   -4.4106 C.3       1 <0>        -0.1543
     20 C19         6.4402    0.2851   -5.5435 C.3       1 <0>         0.1122
     21 N1          5.9431    1.6651   -5.6764 N.pl3     1 <0>        -1.1112
     22 S1          4.3080    1.8496   -5.9884 S.o2      1 <0>         2.6743
     23 O2          4.0799    1.4104   -7.3204 O.2       1 <0>        -0.9503
     24 O3          3.9373    3.1413   -5.5263 O.2       1 <0>        -0.9612
     25 H1          0.8906    1.2213    0.0631 H         1 <0>         0.0589
     26 H2         -0.6020    1.5584   -0.8462 H         1 <0>         0.0589
     27 H3         -0.6823    1.2033    0.8961 H         1 <0>         0.0613
     28 H4         -0.2182   -1.1085    1.7225 H         1 <0>         0.0555
     29 H5          0.1928   -2.4002    0.5689 H         1 <0>         0.0751
     30 H6          1.3547   -1.0904    0.8895 H         1 <0>         0.0509
     31 H7         -2.2329   -0.2801   -1.2961 H         1 <0>         0.0550
     32 H8         -1.9023   -1.9270   -0.7074 H         1 <0>         0.0580
     33 H9         -2.3133   -0.6352    0.4462 H         1 <0>         0.0620
     34 H10         1.0524    1.1746   -1.9429 H         1 <0>         0.1360
     35 H11         2.2195   -1.6693   -4.9331 H         1 <0>         0.1414
     36 H12        -1.1620   -3.2352   -1.6914 H         1 <0>         0.3845
     37 H13         2.8646   -3.5802   -4.9749 H         1 <0>         0.0586
     38 H14         1.8342   -4.9185   -5.5367 H         1 <0>         0.0622
     39 H15         1.3741   -3.2345   -5.8844 H         1 <0>         0.0590
     40 H16         1.1399   -4.7335   -1.8840 H         1 <0>         0.0754
     41 H17         1.6974   -5.7938   -3.2006 H         1 <0>         0.0556
     42 H18         2.7278   -4.4556   -2.6388 H         1 <0>         0.0508
     43 H19        -0.8548   -3.6246   -4.8250 H         1 <0>         0.0550
     44 H20        -0.3947   -5.3086   -4.4773 H         1 <0>         0.0623
     45 H21        -0.9522   -4.2482   -3.1607 H         1 <0>         0.0578
     46 H22         2.0088    1.9391   -4.2775 H         1 <0>         0.1418
     47 H23         3.7619   -1.2586   -3.9879 H         1 <0>         0.0943
     48 H24         4.1837   -1.2125   -5.7197 H         1 <0>         0.0842
     49 H25         5.7498    0.1916   -3.5129 H         1 <0>         0.0784
     50 H26         6.1901   -1.3802   -4.2120 H         1 <0>         0.0915
     51 H27         7.5080    0.3043   -5.3254 H         1 <0>         0.0941
     52 H28         6.2722   -0.2518   -6.4770 H         1 <0>         0.0770
     53 H29         6.5348    2.4289   -5.5903 H         1 <0>         0.4217
@<TRIPOS>BOND
     1    1    2 1
     2    1   25 1
     3    1   26 1
     4    1   27 1
     5    2    3 1
     6    2    4 1
     7    2    5 1
     8    3   28 1
     9    3   29 1
    10    3   30 1
    11    4   31 1
    12    4   32 1
    13    4   33 1
    14    5   10 ar
    15    5    6 ar
    16    6    7 ar
    17    6   34 1
    18    7    8 ar
    19    7   16 1
    20    8    9 ar
    21    8   35 1
    22    9   10 ar
    23    9   12 1
    24   10   11 1
    25   11   36 1
    26   12   13 1
    27   12   14 1
    28   12   15 1
    29   13   37 1
    30   13   38 1
    31   13   39 1
    32   14   40 1
    33   14   41 1
    34   14   42 1
    35   15   43 1
    36   15   44 1
    37   15   45 1
    38   16   17 2
    39   16   46 1
    40   17   22 1
    41   17   18 1
    42   18   19 1
    43   18   47 1
    44   18   48 1
    45   19   20 1
    46   19   49 1
    47   19   50 1
    48   20   21 1
    49   20   51 1
    50   20   52 1
    51   21   22 1
    52   21   53 1
    53   22   23 2
    54   22   24 2
@<TRIPOS>MOLECULE
CHEMBL154
   30    31     0     0     0
SMALL
USER_CHARGES

@<TRIPOS>ATOM
      1 C1         -0.0187    1.5258    0.0104 C.3       1 <0>        -0.1185
      2 C2          0.0021   -0.0041    0.0020 C.3       1 <0>        -0.1364
      3 H1         -1.0205   -0.3814    0.0098 H         1 <0>         0.0713
      4 C3          0.7074   -0.4901   -1.2379 C.ar      1 <0>        -0.0233
      5 C4          2.0367   -0.1325   -1.4560 C.ar      1 <0>        -0.0492
      6 C5          2.7027   -0.5545   -2.5653 C.ar      1 <0>        -0.1340
      7 C6          2.0432   -1.3636   -3.5068 C.ar      1 <0>        -0.0210
      8 C7          2.6987   -1.8182   -4.6628 C.ar      1 <0>        -0.1462
      9 C8          2.0264   -2.6031   -5.5556 C.ar      1 <0>         0.1082
     10 C9          0.6925   -2.9604   -5.3345 C.ar      1 <0>        -0.2006
     11 C10         0.0299   -2.5361   -4.2254 C.ar      1 <0>        -0.0655
     12 C11         0.6914   -1.7275   -3.2846 C.ar      1 <0>        -0.0750
     13 C12         0.0385   -1.2762   -2.1250 C.ar      1 <0>        -0.1205
     14 O1          2.6617   -3.0423   -6.6736 O.3       1 <0>        -0.3228
     15 C13         1.9067   -3.8599   -7.5700 C.3       1 <0>         0.0296
     16 C14         0.7309   -0.5033    1.2229 C.2       1 <0>         0.5002
     17 O2          0.3210   -0.2204    2.3358 O.co2     1 <0>        -0.6976
     18 O3          1.7305   -1.1901    1.0978 O.co2     1 <0>        -0.6861
     19 H2          1.0039    1.9031    0.0027 H         1 <0>         0.0479
     20 H3         -0.5459    1.8868   -0.8726 H         1 <0>         0.0406
     21 H4         -0.5289    1.8773    0.9072 H         1 <0>         0.0604
     22 H5          2.5458    0.4890   -0.7342 H         1 <0>         0.1214
     23 H6          3.7325   -0.2690   -2.7216 H         1 <0>         0.1221
     24 H7          3.7285   -1.5483   -4.8448 H         1 <0>         0.1285
     25 H8          0.1814   -3.5818   -6.0549 H         1 <0>         0.1229
     26 H9         -1.0004   -2.8192   -4.0679 H         1 <0>         0.1257
     27 H10        -0.9902   -1.5485   -1.9405 H         1 <0>         0.1191
     28 H11         2.5306   -4.1410   -8.4184 H         1 <0>         0.0948
     29 H12         1.5744   -4.7583   -7.0499 H         1 <0>         0.0524
     30 H13         1.0391   -3.3040   -7.9254 H         1 <0>         0.0519
@<TRIPOS>BOND
     1    1    2 1
     2    1   19 1
     3    1   20 1
     4    1   21 1
     5    2    3 1
     6    2    4 1
     7    2   16 1
     8    4   13 ar
     9    4    5 ar
    10    5    6 ar
    11    5   22 1
    12    6    7 ar
    13    6   23 1
    14    7   12 ar
    15    7    8 ar
    16    8    9 ar
    17    8   24 1
    18    9   10 ar
    19    9   14 1
    20   10   11 ar
    21   10   25 1
    22   11   12 ar
    23   11   26 1
    24   12   13 ar
    25   13   27 1
    26   14   15 1
    27   15   28 1
    28   15   29 1
    29   15   30 1
    30   16   17 2
    31   16   18 1
@<TRIPOS>MOLECULE
CHEMBL174990
   35    37     0     0     0
SMALL
USER_CHARGES

@<TRIPOS>ATOM
      1 C1          1.1515    0.6602   -0.3597 C.3       1 <0>         0.0772
      2 N1          0.4959   -0.6478   -0.2863 N.am      1 <0>        -0.5356
      3 C2         -0.0361   -1.1689   -1.4074 C.2       1 <0>         0.5599
      4 O1          0.0325   -0.5556   -2.4565 O.2       1 <0>        -0.5552
      5 C3         -0.6986   -2.4776   -1.3637 C.ar      1 <0>        -0.2165
      6 C4         -1.2624   -3.0536   -2.5026 C.ar      1 <0>        -0.0253
      7 C5         -1.8731   -4.2845   -2.4104 C.ar      1 <0>        -0.2011
      8 C6         -1.9337   -4.9573   -1.1970 C.ar      1 <0>        -0.0690
      9 C7         -1.3834   -4.4069   -0.0599 C.ar      1 <0>        -0.1736
     10 C8         -0.7606   -3.1631   -0.1308 C.ar      1 <0>         0.1107
     11 C9         -0.1556   -2.5284    1.0519 C.2       1 <0>        -0.4505
     12 C10        -0.1915   -3.1955    2.3551 C.2       1 <0>         0.6399
     13 N2         -1.0690   -2.7916    3.2950 N.am      1 <0>        -0.6698
     14 C11        -1.0292   -3.3523    4.5762 C.ar      1 <0>         0.1779
     15 C12         0.1836   -3.7482    5.1249 C.ar      1 <0>        -0.1120
     16 C13         0.2200   -4.3010    6.3900 C.ar      1 <0>        -0.0889
     17 C14        -0.9505   -4.4610    7.1106 C.ar      1 <0>        -0.0653
     18 C15        -2.1604   -4.0674    6.5661 C.ar      1 <0>        -0.0903
     19 C16        -2.2018   -3.5088    5.3038 C.ar      1 <0>        -0.1488
     20 Cl1        -0.9013   -5.1573    8.7001 Cl        1 <0>        -0.0866
     21 O2          0.5711   -4.1150    2.5894 O.2       1 <0>        -0.5407
     22 C17         0.4530   -1.2911    0.9103 C.2       1 <0>         0.5039
     23 O3          1.0135   -0.7077    1.9898 O.3       1 <0>        -0.6719
     24 H1          2.2076    0.5246   -0.5932 H         1 <0>         0.0560
     25 H2          0.6810    1.2592   -1.1394 H         1 <0>         0.0742
     26 H3          1.0539    1.1699    0.5988 H         1 <0>         0.0850
     27 H4         -1.2206   -2.5373   -3.4502 H         1 <0>         0.1230
     28 H5         -2.3099   -4.7314   -3.2912 H         1 <0>         0.1141
     29 H6         -2.4173   -5.9215   -1.1440 H         1 <0>         0.1128
     30 H7         -1.4350   -4.9363    0.8800 H         1 <0>         0.1143
     31 H8         -1.7280   -2.1121    3.0832 H         1 <0>         0.4102
     32 H9          1.0973   -3.6242    4.5628 H         1 <0>         0.1465
     33 H10         1.1629   -4.6090    6.8172 H         1 <0>         0.1317
     34 H11        -3.0725   -4.1937    7.1304 H         1 <0>         0.1312
     35 H12        -3.1457   -3.1976    4.8811 H         1 <0>         0.1322
@<TRIPOS>BOND
     1    1    2 1
     2    1   24 1
     3    1   25 1
     4    1   26 1
     5    2   22 1
     6    2    3 am
     7    3    4 2
     8    3    5 1
     9    5   10 ar
    10    5    6 ar
    11    6    7 ar
    12    6   27 1
    13    7    8 ar
    14    7   28 1
    15    8    9 ar
    16    8   29 1
    17    9   10 ar
    18    9   30 1
    19   10   11 1
    20   11   12 1
    21   11   22 2
    22   12   13 am
    23   12   21 2
    24   13   14 1
    25   13   31 1
    26   14   19 ar
    27   14   15 ar
    28   15   16 ar
    29   15   32 1
    30   16   17 ar
    31   16   33 1
    32   17   18 ar
    33   17   20 1
    34   18   19 ar
    35   18   34 1
    36   19   35 1
    37   22   23 1
@<TRIPOS>MOLECULE
CHEMBL277519
   42    45     0     0     0
SMALL
USER_CHARGES

@<TRIPOS>ATOM
      1 C1         -0.0187    1.5258    0.0104 C.3       1 <0>        -0.1453
      2 C2          0.0021   -0.0041    0.0020 C.3       1 <0>         0.3218
      3 C3         -1.4094   -0.5411    0.0469 C.2       1 <0>         0.0105
      4 C4         -1.5030   -1.2825    1.1895 C.2       1 <0>        -0.1932
      5 C5         -0.2056   -1.2402    1.8769 C.2       1 <0>         0.5225
      6 O1          0.0464   -1.7989    2.9265 O.2       1 <0>        -0.4940
      7 O2          0.6620   -0.4915    1.1734 O.3       1 <0>        -0.3340
      8 C6         -2.7026   -2.0037    1.6543 C.2       1 <0>        -0.0250
      9 C7         -2.8752   -3.3418    1.8008 C.2       1 <0>        -0.1384
     10 C8         -4.1529   -3.8386    2.2789 C.ar      1 <0>        -0.0751
     11 C9         -4.5520   -5.1794    2.5042 C.ar      1 <0>        -0.0774
     12 C10        -5.8010   -5.4653    2.9576 C.ar      1 <0>        -0.1249
     13 C11        -6.7268   -4.4629    3.2161 C.ar      1 <0>        -0.1056
     14 C12        -6.3768   -3.1429    3.0098 C.ar      1 <0>        -0.0761
     15 C13        -5.1138   -2.8384    2.5498 C.ar      1 <0>        -0.1205
     16 S1         -4.2700   -1.3258    2.1654 S.3       1 <0>         0.0317
     17 C14        -2.4701   -0.3109   -0.9418 C.ar      1 <0>         0.0309
     18 C15        -2.3394   -0.8097   -2.2436 C.ar      1 <0>        -0.0942
     19 C16        -3.3403   -0.5894   -3.1654 C.ar      1 <0>        -0.0271
     20 C17        -4.4721    0.1227   -2.8073 C.ar      1 <0>        -0.6641
     21 C18        -4.6092    0.6199   -1.5225 C.ar      1 <0>        -0.0258
     22 C19        -3.6206    0.4038   -0.5866 C.ar      1 <0>        -0.1208
     23 S2         -5.7454    0.3985   -3.9936 S.o2      1 <0>         2.5023
     24 O3         -6.3908    1.5889   -3.5628 O.2       1 <0>        -0.9417
     25 O4         -5.0864    0.3463   -5.2515 O.2       1 <0>        -0.9399
     26 C20        -6.8638   -1.0184   -3.8150 C.3       1 <0>        -0.6523
     27 O5          0.6701   -0.4778   -1.1691 O.3       1 <0>        -0.8081
     28 H1          1.0039    1.9031    0.0027 H         1 <0>         0.0639
     29 H2         -0.5459    1.8868   -0.8726 H         1 <0>         0.0624
     30 H3         -0.5289    1.8773    0.9072 H         1 <0>         0.0336
     31 H4         -2.0742   -4.0268    1.5650 H         1 <0>         0.1386
     32 H5         -3.8562   -5.9830    2.3131 H         1 <0>         0.1241
     33 H6         -6.0801   -6.4958    3.1204 H         1 <0>         0.1242
     34 H7         -7.7138   -4.7139    3.5757 H         1 <0>         0.1306
     35 H8         -7.0881   -2.3546    3.2072 H         1 <0>         0.1286
     36 H9         -1.4569   -1.3652   -2.5247 H         1 <0>         0.1497
     37 H10        -3.2410   -0.9731   -4.1700 H         1 <0>         0.1433
     38 H11        -5.4952    1.1747   -1.2515 H         1 <0>         0.1425
     39 H12        -3.7310    0.7884    0.4165 H         1 <0>         0.1306
     40 H13        -7.2580   -1.0444   -2.7991 H         1 <0>         0.1310
     41 H14        -7.6877   -0.9224   -4.5221 H         1 <0>         0.1294
     42 H15        -6.3177   -1.9400   -4.0165 H         1 <0>         0.1313
@<TRIPOS>BOND
     1    1    2 1
     2    1   28 1
     3    1   29 1
     4    1   30 1
     5    2    7 1
     6    2    3 1
     7    2   27 1
     8    3    4 2
     9    3   17 1
    10    4    5 1
    11    4    8 1
    12    5    6 2
    13    5    7 1
    14    8   16 1
    15    8    9 2
    16    9   10 1
    17    9   31 1
    18   10   15 ar
    19   10   11 ar
    20   11   12 ar
    21   11   32 1
    22   12   13 ar
    23   12   33 1
    24   13   14 ar
    25   13   34 1
    26   14   15 ar
    27   14   35 1
    28   15   16 1
    29   17   22 ar
    30   17   18 ar
    31   18   19 ar
    32   18   36 1
    33   19   20 ar
    34   19   37 1
    35   20   21 ar
    36   20   23 1
    37   21   22 ar
    38   21   38 1
    39   22   39 1
    40   23   24 2
    41   23   25 2
    42   23   26 1
    43   26   40 1
    44   26   41 1
    45   26   42 1
@<TRIPOS>MOLECULE
CHEMBL277519__1
   43    46     0     0     0
SMALL
USER_CHARGES

@<TRIPOS>ATOM
      1 C1         -0.0187    1.5258    0.0104 C.3       1 <0>        -0.1768
      2 C2          0.0021   -0.0041    0.0020 C.3       1 <0>         0.3074
      3 C3         -1.4094   -0.5411    0.0469 C.2       1 <0>        -0.0090
      4 C4         -1.5030   -1.2825    1.1895 C.2       1 <0>        -0.0949
      5 C5         -0.2056   -1.2402    1.8769 C.2       1 <0>         0.5198
      6 O1          0.0464   -1.7989    2.9265 O.2       1 <0>        -0.4207
      7 O2          0.6620   -0.4915    1.1734 O.3       1 <0>        -0.3263
      8 C6         -2.7026   -2.0037    1.6543 C.2       1 <0>        -0.0928
      9 C7         -2.8752   -3.3418    1.8008 C.2       1 <0>        -0.0933
     10 C8         -4.1529   -3.8386    2.2789 C.ar      1 <0>        -0.0937
     11 C9         -4.5520   -5.1794    2.5042 C.ar      1 <0>        -0.0680
     12 C10        -5.8010   -5.4653    2.9576 C.ar      1 <0>        -0.1217
     13 C11        -6.7268   -4.4629    3.2161 C.ar      1 <0>        -0.0871
     14 C12        -6.3768   -3.1429    3.0098 C.ar      1 <0>        -0.0799
     15 C13        -5.1138   -2.8384    2.5498 C.ar      1 <0>        -0.1090
     16 S1         -4.2700   -1.3258    2.1654 S.3       1 <0>         0.0589
     17 C14        -2.4701   -0.3109   -0.9418 C.ar      1 <0>        -0.0001
     18 C15        -2.3394   -0.8097   -2.2436 C.ar      1 <0>        -0.0980
     19 C16        -3.3403   -0.5894   -3.1654 C.ar      1 <0>        -0.0235
     20 C17        -4.4721    0.1227   -2.8073 C.ar      1 <0>        -0.6469
     21 C18        -4.6092    0.6199   -1.5225 C.ar      1 <0>        -0.0206
     22 C19        -3.6206    0.4038   -0.5866 C.ar      1 <0>        -0.1054
     23 S2         -5.7454    0.3985   -3.9936 S.o2      1 <0>         2.4975
     24 O3         -6.3908    1.5889   -3.5628 O.2       1 <0>        -0.9335
     25 O4         -5.0864    0.3463   -5.2515 O.2       1 <0>        -0.9335
     26 C20        -6.8638   -1.0184   -3.8150 C.3       1 <0>        -0.6499
     27 O5          0.6701   -0.4778   -1.1691 O.3       1 <0>        -0.5259
     28 H1          1.0039    1.9031    0.0027 H         1 <0>         0.0905
     29 H2         -0.5459    1.8868   -0.8726 H         1 <0>         0.0965
     30 H3         -0.5289    1.8773    0.9072 H         1 <0>         0.0836
     31 H4         -2.0742   -4.0268    1.5650 H         1 <0>         0.1412
     32 H5         -3.8562   -5.9830    2.3131 H         1 <0>         0.1283
     33 H6         -6.0801   -6.4958    3.1204 H         1 <0>         0.1309
     34 H7         -7.7138   -4.7139    3.5757 H         1 <0>         0.1376
     35 H8         -7.0881   -2.3546    3.2072 H         1 <0>         0.1341
     36 H9         -1.4569   -1.3652   -2.5247 H         1 <0>         0.1451
     37 H10        -3.2410   -0.9731   -4.1700 H         1 <0>         0.1503
     38 H11        -5.4952    1.1747   -1.2515 H         1 <0>         0.1507
     39 H12        -3.7310    0.7884    0.4165 H         1 <0>         0.1360
     40 H13        -7.2580   -1.0444   -2.7991 H         1 <0>         0.1326
     41 H14        -7.6877   -0.9224   -4.5221 H         1 <0>         0.1354
     42 H15        -6.3177   -1.9400   -4.0165 H         1 <0>         0.1325
     43 H16         1.5852   -0.1758   -1.2492 H         1 <0>         0.4014
@<TRIPOS>BOND
     1    1    2 1
     2    1   28 1
     3    1   29 1
     4    1   30 1
     5    2    7 1
     6    2    3 1
     7    2   27 1
     8    3    4 2
     9    3   17 1
    10    4    5 1
    11    4    8 1
    12    5    6 2
    13    5    7 1
    14    8   16 1
    15    8    9 2
    16    9   10 1
    17    9   31 1
    18   10   15 ar
    19   10   11 ar
    20   11   12 ar
    21   11   32 1
    22   12   13 ar
    23   12   33 1
    24   13   14 ar
    25   13   34 1
    26   14   15 ar
    27   14   35 1
    28   15   16 1
    29   17   22 ar
    30   17   18 ar
    31   18   19 ar
    32   18   36 1
    33   19   20 ar
    34   19   37 1
    35   20   21 ar
    36   20   23 1
    37   21   22 ar
    38   21   38 1
    39   22   39 1
    40   23   24 2
    41   23   25 2
    42   23   26 1
    43   26   40 1
    44   26   41 1
    45   26   42 1
    46   27   43 1
@<TRIPOS>MOLECULE
CHEMBL277519__2
   42    45     0     0     0
SMALL
USER_CHARGES

@<TRIPOS>ATOM
      1 C1         -0.0187    1.5258    0.0104 C.3       1 <0>        -0.1494
      2 C2          0.0021   -0.0041    0.0020 C.3       1 <0>         0.3222
      3 C3          0.7366   -0.5050   -1.2195 C.2       1 <0>         0.0071
      4 C4          1.8003   -1.2270   -0.7598 C.2       1 <0>        -0.1919
      5 C5          1.7741   -1.2069    0.7086 C.2       1 <0>         0.5225
      6 O1          2.5846   -1.7569    1.4285 O.2       1 <0>        -0.4935
      7 O2          0.7207   -0.4905    1.1388 O.3       1 <0>        -0.3339
      8 C6          2.8052   -1.9104   -1.5957 C.2       1 <0>        -0.0249
      9 C7          4.1327   -1.6481   -1.6980 C.2       1 <0>        -0.1404
     10 C8          4.9430   -2.4557   -2.5919 C.ar      1 <0>        -0.0757
     11 C9          6.3322   -2.3611   -2.8542 C.ar      1 <0>        -0.0782
     12 C10         6.9326   -3.2082   -3.7313 C.ar      1 <0>        -0.1252
     13 C11         6.2140   -4.1914   -4.3988 C.ar      1 <0>        -0.1058
     14 C12         4.8577   -4.3170   -4.1706 C.ar      1 <0>        -0.0754
     15 C13         4.2357   -3.4645   -3.2841 C.ar      1 <0>        -0.1220
     16 S1          2.5677   -3.2837   -2.7072 S.3       1 <0>         0.0370
     17 C14         0.3775   -0.2637   -2.6225 C.ar      1 <0>         0.0432
     18 C15         0.4228    1.0334   -3.1477 C.ar      1 <0>        -0.1213
     19 C16         0.0845    1.2510   -4.4661 C.ar      1 <0>        -0.0237
     20 C17        -0.2993    0.1915   -5.2703 C.ar      1 <0>        -0.6653
     21 C18        -0.3472   -1.0940   -4.7590 C.ar      1 <0>        -0.0199
     22 C19        -0.0066   -1.3302   -3.4444 C.ar      1 <0>        -0.1066
     23 S2         -0.7296    0.4811   -6.9542 S.o2      1 <0>         2.5026
     24 O3         -1.6143   -0.5791   -7.2898 O.2       1 <0>        -0.9396
     25 O4         -1.1711    1.8313   -6.9887 O.2       1 <0>        -0.9405
     26 C20         0.8271    0.3091   -7.8695 C.3       1 <0>        -0.6522
     27 O5         -1.3338   -0.5115    0.0135 O.3       1 <0>        -0.8082
     28 H1          1.0039    1.9031    0.0027 H         1 <0>         0.0347
     29 H2         -0.5459    1.8868   -0.8726 H         1 <0>         0.0653
     30 H3         -0.5289    1.8773    0.9072 H         1 <0>         0.0645
     31 H4          4.5796   -0.8503   -1.1234 H         1 <0>         0.1382
     32 H5          6.9205   -1.6074   -2.3518 H         1 <0>         0.1235
     33 H6          7.9929   -3.1142   -3.9138 H         1 <0>         0.1239
     34 H7          6.7123   -4.8531   -5.0917 H         1 <0>         0.1304
     35 H8          4.2882   -5.0778   -4.6837 H         1 <0>         0.1288
     36 H9          0.7216    1.8611   -2.5216 H         1 <0>         0.1380
     37 H10         0.1185    2.2509   -4.8728 H         1 <0>         0.1438
     38 H11        -0.6480   -1.9149   -5.3931 H         1 <0>         0.1438
     39 H12        -0.0403   -2.3344   -3.0482 H         1 <0>         0.1323
     40 H13         1.2262   -0.6944   -7.7221 H         1 <0>         0.1313
     41 H14         0.6446    0.4753   -8.9312 H         1 <0>         0.1296
     42 H15         1.5458    1.0431   -7.5051 H         1 <0>         0.1309
@<TRIPOS>BOND
     1    1    2 1
     2    1   28 1
     3    1   29 1
     4    1   30 1
     5    2    7 1
     6    2    3 1
     7    2   27 1
     8    3    4 2
     9    3   17 1
    10    4    5 1
    11    4    8 1
    12    5    6 2
    13    5    7 1
    14    8   16 1
    15    8    9 2
    16    9   10 1
    17    9   31 1
    18   10   15 ar
    19   10   11 ar
    20   11   12 ar
    21   11   32 1
    22   12   13 ar
    23   12   33 1
    24   13   14 ar
    25   13   34 1
    26   14   15 ar
    27   14   35 1
    28   15   16 1
    29   17   22 ar
    30   17   18 ar
    31   18   19 ar
    32   18   36 1
    33   19   20 ar
    34   19   37 1
    35   20   21 ar
    36   20   23 1
    37   21   22 ar
    38   21   38 1
    39   22   39 1
    40   23   24 2
    41   23   25 2
    42   23   26 1
    43   26   40 1
    44   26   41 1
    45   26   42 1
@<TRIPOS>MOLECULE
CHEMBL277519__3
   43    46     0     0     0
SMALL
USER_CHARGES

@<TRIPOS>ATOM
      1 C1         -0.0187    1.5258    0.0104 C.3       1 <0>        -0.1812
      2 C2          0.0021   -0.0041    0.0020 C.3       1 <0>         0.3069
      3 C3          0.7366   -0.5050   -1.2195 C.2       1 <0>        -0.0110
      4 C4          1.8003   -1.2270   -0.7598 C.2       1 <0>        -0.0943
      5 C5          1.7741   -1.2069    0.7086 C.2       1 <0>         0.5198
      6 O1          2.5846   -1.7569    1.4285 O.2       1 <0>        -0.4205
      7 O2          0.7207   -0.4905    1.1388 O.3       1 <0>        -0.3260
      8 C6          2.8052   -1.9104   -1.5957 C.2       1 <0>        -0.0940
      9 C7          4.1327   -1.6481   -1.6980 C.2       1 <0>        -0.0925
     10 C8          4.9430   -2.4557   -2.5919 C.ar      1 <0>        -0.0948
     11 C9          6.3322   -2.3611   -2.8542 C.ar      1 <0>        -0.0678
     12 C10         6.9326   -3.2082   -3.7313 C.ar      1 <0>        -0.1220
     13 C11         6.2140   -4.1914   -4.3988 C.ar      1 <0>        -0.0867
     14 C12         4.8577   -4.3170   -4.1706 C.ar      1 <0>        -0.0799
     15 C13         4.2357   -3.4645   -3.2841 C.ar      1 <0>        -0.1093
     16 S1          2.5677   -3.2837   -2.7072 S.3       1 <0>         0.0624
     17 C14         0.3775   -0.2637   -2.6225 C.ar      1 <0>         0.0079
     18 C15         0.4228    1.0334   -3.1477 C.ar      1 <0>        -0.1162
     19 C16         0.0845    1.2510   -4.4661 C.ar      1 <0>        -0.0206
     20 C17        -0.2993    0.1915   -5.2703 C.ar      1 <0>        -0.6487
     21 C18        -0.3472   -1.0940   -4.7590 C.ar      1 <0>        -0.0168
     22 C19        -0.0066   -1.3302   -3.4444 C.ar      1 <0>        -0.0988
     23 S2         -0.7296    0.4811   -6.9542 S.o2      1 <0>         2.4977
     24 O3         -1.6143   -0.5791   -7.2898 O.2       1 <0>        -0.9328
     25 O4         -1.1711    1.8313   -6.9887 O.2       1 <0>        -0.9338
     26 C20         0.8271    0.3091   -7.8695 C.3       1 <0>        -0.6498
     27 O5         -1.3338   -0.5115    0.0135 O.3       1 <0>        -0.5238
     28 H1          1.0039    1.9031    0.0027 H         1 <0>         0.0847
     29 H2         -0.5459    1.8868   -0.8726 H         1 <0>         0.0981
     30 H3         -0.5289    1.8773    0.9072 H         1 <0>         0.0915
     31 H4          4.5796   -0.8503   -1.1234 H         1 <0>         0.1415
     32 H5          6.9205   -1.6074   -2.3518 H         1 <0>         0.1282
     33 H6          7.9929   -3.1142   -3.9138 H         1 <0>         0.1309
     34 H7          6.7123   -4.8531   -5.0917 H         1 <0>         0.1376
     35 H8          4.2882   -5.0778   -4.6837 H         1 <0>         0.1342
     36 H9          0.7216    1.8611   -2.5216 H         1 <0>         0.1402
     37 H10         0.1185    2.2509   -4.8728 H         1 <0>         0.1508
     38 H11        -0.6480   -1.9149   -5.3931 H         1 <0>         0.1512
     39 H12        -0.0403   -2.3344   -3.0482 H         1 <0>         0.1365
     40 H13         1.2262   -0.6944   -7.7221 H         1 <0>         0.1327
     41 H14         0.6446    0.4753   -8.9312 H         1 <0>         0.1354
     42 H15         1.5458    1.0431   -7.5051 H         1 <0>         0.1323
     43 H16        -1.8535   -0.2336    0.7801 H         1 <0>         0.4009
@<TRIPOS>BOND
     1    1    2 1
     2    1   28 1
     3    1   29 1
     4    1   30 1
     5    2    7 1
     6    2    3 1
     7    2   27 1
     8    3    4 2
     9    3   17 1
    10    4    5 1
    11    4    8 1
    12    5    6 2
    13    5    7 1
    14    8   16 1
    15    8    9 2
    16    9   10 1
    17    9   31 1
    18   10   15 ar
    19   10   11 ar
    20   11   12 ar
    21   11   32 1
    22   12   13 ar
    23   12   33 1
    24   13   14 ar
    25   13   34 1
    26   14   15 ar
    27   14   35 1
    28   15   16 1
    29   17   22 ar
    30   17   18 ar
    31   18   19 ar
    32   18   36 1
    33   19   20 ar
    34   19   37 1
    35   20   21 ar
    36   20   23 1
    37   21   22 ar
    38   21   38 1
    39   22   39 1
    40   23   24 2
    41   23   25 2
    42   23   26 1
    43   26   40 1
    44   26   41 1
    45   26   42 1
    46   27   43 1
@<TRIPOS>MOLECULE
CHEMBL296370
   41    42     0     0     0
SMALL
USER_CHARGES

@<TRIPOS>ATOM
      1 C1         -0.0187    1.5258    0.0104 C.3       1 <0>        -0.1419
      2 C2          0.0021   -0.0041    0.0020 C.3       1 <0>        -0.0850
      3 H1         -1.0205   -0.3814    0.0098 H         1 <0>         0.1065
      4 C3          0.7421   -0.5109    1.2415 C.3       1 <0>         0.0954
      5 O1          0.1431    0.0444    2.4141 O.3       1 <0>        -0.5631
      6 S1          0.8511   -0.5891   -1.4904 S.3       1 <0>        -0.0229
      7 C4         -0.1893   -0.0568   -2.8091 C.ar      1 <0>         0.1636
      8 C5          0.1627   -0.3474   -4.1356 C.ar      1 <0>        -0.0940
      9 C6         -0.6750    0.0832   -5.1639 C.ar      1 <0>         0.0100
     10 C7         -1.8241    0.7830   -4.8290 C.ar      1 <0>        -0.2454
     11 C8         -2.1050    1.0319   -3.4995 C.ar      1 <0>         0.1799
     12 N1         -1.3009    0.6103   -2.5417 N.ar      1 <0>        -0.4794
     13 C9         -2.7590    1.2686   -5.9066 C.3       1 <0>         0.5190
     14 F1         -3.7183    0.2849   -6.1698 F         1 <0>        -0.1716
     15 F2         -3.3959    2.4385   -5.4790 F         1 <0>        -0.1717
     16 F3         -2.0306    1.5331   -7.0714 F         1 <0>        -0.1728
     17 C10         1.4042   -1.0992   -4.4391 C.ar      1 <0>         0.0039
     18 C11         2.6153   -0.7088   -3.8700 C.ar      1 <0>        -0.1161
     19 C12         3.7676   -1.4122   -4.1561 C.ar      1 <0>        -0.0172
     20 C13         3.7224   -2.5026   -5.0061 C.ar      1 <0>        -0.6532
     21 C14         2.5235   -2.8944   -5.5741 C.ar      1 <0>        -0.0194
     22 C15         1.3636   -2.2026   -5.2900 C.ar      1 <0>        -0.1194
     23 S2          5.1978   -3.3956   -5.3672 S.o2      1 <0>         2.4984
     24 O2          4.9653   -3.9799   -6.6415 O.2       1 <0>        -0.9351
     25 O3          6.2460   -2.4541   -5.1823 O.2       1 <0>        -0.9347
     26 C16         5.2852   -4.6856   -4.0949 C.3       1 <0>        -0.6498
     27 H2          1.0039    1.9031    0.0027 H         1 <0>         0.0596
     28 H3         -0.5459    1.8868   -0.8726 H         1 <0>         0.0718
     29 H4         -0.5289    1.8773    0.9072 H         1 <0>         0.0761
     30 H5          0.6803   -1.5984    1.2822 H         1 <0>         0.0563
     31 H6          1.7879   -0.2080    1.1895 H         1 <0>         0.0563
     32 H7          0.5623   -0.2345    3.2397 H         1 <0>         0.3872
     33 H8         -0.4342   -0.1230   -6.1963 H         1 <0>         0.1580
     34 H9         -3.0002    1.5770   -3.2392 H         1 <0>         0.1763
     35 H10         2.6518    0.1428   -3.2067 H         1 <0>         0.1422
     36 H11         4.7065   -1.1107   -3.7157 H         1 <0>         0.1486
     37 H12         2.4942   -3.7463   -6.2373 H         1 <0>         0.1481
     38 H13         0.4272   -2.5124   -5.7300 H         1 <0>         0.1366
     39 H14         4.4025   -5.3217   -4.1612 H         1 <0>         0.1322
     40 H15         6.1799   -5.2886   -4.2497 H         1 <0>         0.1344
     41 H16         5.3256   -4.2218   -3.1094 H         1 <0>         0.1324
@<TRIPOS>BOND
     1    1    2 1
     2    1   27 1
     3    1   28 1
     4    1   29 1
     5    2    3 1
     6    2    4 1
     7    2    6 1
     8    4    5 1
     9    4   30 1
    10    4   31 1
    11    5   32 1
    12    6    7 1
    13    7   12 ar
    14    7    8 ar
    15    8    9 ar
    16    8   17 1
    17    9   10 ar
    18    9   33 1
    19   10   11 ar
    20   10   13 1
    21   11   12 ar
    22   11   34 1
    23   13   14 1
    24   13   15 1
    25   13   16 1
    26   17   22 ar
    27   17   18 ar
    28   18   19 ar
    29   18   35 1
    30   19   20 ar
    31   19   36 1
    32   20   21 ar
    33   20   23 1
    34   21   22 ar
    35   21   37 1
    36   22   38 1
    37   23   24 2
    38   23   25 2
    39   23   26 1
    40   26   39 1
    41   26   40 1
    42   26   41 1
@<TRIPOS>MOLECULE
CHEMBL432463
   35    36     0     0     0
SMALL
USER_CHARGES

@<TRIPOS>ATOM
      1 C1          6.6280    3.3547   -2.2363 C.3       1 <0>        -0.1477
      2 S1          7.3323    1.7025   -2.4906 S.3       1 <0>        -0.1074
      3 C2          6.0263    0.7945   -3.2488 C.ar      1 <0>        -0.0536
      4 C3          4.8066    1.4163   -3.5083 C.ar      1 <0>        -0.1542
      5 C4          3.7924    0.7152   -4.0958 C.ar      1 <0>        -0.0418
      6 C5          3.9794   -0.6286   -4.4377 C.ar      1 <0>        -0.1775
      7 C6          5.2055   -1.2500   -4.1762 C.ar      1 <0>        -0.0290
      8 C7          6.2174   -0.5422   -3.5929 C.ar      1 <0>        -0.1099
      9 C8          2.8866   -1.3885   -5.0716 C.2       1 <0>         0.4609
     10 O1          1.7904   -0.8785   -5.2079 O.2       1 <0>        -0.4494
     11 C9          3.1220   -2.7658   -5.5402 C.ar      1 <0>        -0.2180
     12 C10         2.6295   -3.8514   -4.8093 C.ar      1 <0>        -0.0892
     13 C11         2.8530   -5.1374   -5.2539 C.ar      1 <0>         0.0375
     14 C12         3.5652   -5.3602   -6.4245 C.ar      1 <0>        -0.0905
     15 C13         4.0569   -4.2985   -7.1558 C.ar      1 <0>        -0.0662
     16 C14         3.8371   -2.9958   -6.7265 C.ar      1 <0>         0.2588
     17 N1          4.3272   -1.9253   -7.4648 N.pl3     1 <0>        -0.8589
     18 C15         4.8285   -4.5524   -8.4251 C.3       1 <0>        -0.1536
     19 C16         6.3047   -4.5620   -8.1221 C.2       1 <0>         0.4962
     20 O2          6.6941   -4.3797   -6.9812 O.co2     1 <0>        -0.6809
     21 O3          7.1097   -4.7522   -9.0179 O.co2     1 <0>        -0.7007
     22 F1          2.3772   -6.1855   -4.5466 F         1 <0>        -0.1497
     23 H1          6.3379    3.7780   -3.1980 H         1 <0>         0.0850
     24 H2          5.7515    3.2809   -1.5926 H         1 <0>         0.0845
     25 H3          7.3714    3.9981   -1.7656 H         1 <0>         0.1092
     26 H4          4.6629    2.4536   -3.2442 H         1 <0>         0.1270
     27 H5          2.8471    1.1975   -4.2961 H         1 <0>         0.1352
     28 H6          5.3528   -2.2872   -4.4390 H         1 <0>         0.1474
     29 H7          7.1654   -1.0201   -3.3945 H         1 <0>         0.1368
     30 H8          2.0752   -3.6829   -3.8978 H         1 <0>         0.1291
     31 H9          3.7357   -6.3709   -6.7648 H         1 <0>         0.1314
     32 H10         4.2381   -1.0209   -7.1257 H         1 <0>         0.3914
     33 H11         4.7584   -2.0826   -8.3194 H         1 <0>         0.4061
     34 H12         4.5367   -5.5167   -8.8410 H         1 <0>         0.0748
     35 H13         4.6108   -3.7647   -9.1463 H         1 <0>         0.0669
@<TRIPOS>BOND
     1    1    2 1
     2    1   23 1
     3    1   24 1
     4    1   25 1
     5    2    3 1
     6    3    8 ar
     7    3    4 ar
     8    4    5 ar
     9    4   26 1
    10    5    6 ar
    11    5   27 1
    12    6    7 ar
    13    6    9 1
    14    7    8 ar
    15    7   28 1
    16    8   29 1
    17    9   10 2
    18    9   11 1
    19   11   16 ar
    20   11   12 ar
    21   12   13 ar
    22   12   30 1
    23   13   14 ar
    24   13   22 1
    25   14   15 ar
    26   14   31 1
    27   15   16 ar
    28   15   18 1
    29   16   17 1
    30   17   32 1
    31   17   33 1
    32   18   19 1
    33   18   34 1
    34   18   35 1
    35   19   20 2
    36   19   21 1
@<TRIPOS>MOLECULE
CHEMBL277385
   50    53     0     0     0
SMALL
USER_CHARGES

@<TRIPOS>ATOM
      1 C1          0.8977   -1.2088    1.3515 C.3       1 <0>        -0.6502
      2 S1         -0.0075   -0.2932    0.0737 S.o2      1 <0>         2.4980
      3 O1         -1.3053   -0.8460   -0.0979 O.2       1 <0>        -0.9351
      4 O2          0.1656    1.1051    0.2582 O.2       1 <0>        -0.9346
      5 C2          0.8383   -0.6565   -1.4287 C.ar      1 <0>        -0.6548
      6 C3          1.8874    0.1466   -1.8399 C.ar      1 <0>        -0.0180
      7 C4          2.5539   -0.1320   -3.0150 C.ar      1 <0>        -0.1104
      8 C5          2.1677   -1.2276   -3.7902 C.ar      1 <0>         0.0546
      9 C6          1.1079   -2.0338   -3.3691 C.ar      1 <0>        -0.1241
     10 C7          0.4539   -1.7469   -2.1890 C.ar      1 <0>        -0.0180
     11 C8          2.8761   -1.5318   -5.0494 C.2       1 <0>        -0.1830
     12 C9          4.2431   -1.6111   -5.3053 C.2       1 <0>         0.1333
     13 N1          4.5814   -1.9070   -6.5499 N.2       1 <0>        -0.5016
     14 C10         3.6804   -2.1106   -7.4752 C.2       1 <0>         0.0620
     15 S2          2.2191   -1.9081   -6.6665 S.3       1 <0>         0.1535
     16 C11         3.8997   -2.4531   -8.9263 C.3       1 <0>        -0.0276
     17 C12         3.9532   -3.9735   -9.0890 C.3       1 <0>        -0.0734
     18 C13         4.1725   -4.3160  -10.5401 C.ar      1 <0>        -0.0867
     19 C14         3.0888   -4.4907  -11.3804 C.ar      1 <0>        -0.1155
     20 C15         3.2899   -4.8049  -12.7114 C.ar      1 <0>        -0.1179
     21 C16         4.5747   -4.9440  -13.2023 C.ar      1 <0>        -0.1207
     22 C17         5.6584   -4.7684  -12.3622 C.ar      1 <0>        -0.1176
     23 C18         5.4573   -4.4500  -11.0321 C.ar      1 <0>        -0.1133
     24 C19         5.2556   -1.3781   -4.2494 C.ar      1 <0>        -0.0355
     25 C20         5.0761   -1.9190   -2.9764 C.ar      1 <0>        -0.0659
     26 C21         6.0218   -1.6992   -1.9964 C.ar      1 <0>        -0.1534
     27 C22         7.1486   -0.9424   -2.2751 C.ar      1 <0>         0.1106
     28 C23         7.3315   -0.4030   -3.5382 C.ar      1 <0>        -0.1541
     29 C24         6.3943   -0.6219   -4.5266 C.ar      1 <0>        -0.0541
     30 F1          8.0718   -0.7295   -1.3120 F         1 <0>        -0.1357
     31 H1          0.8723   -2.2741    1.1219 H         1 <0>         0.1323
     32 H2          1.9326   -0.8676    1.3787 H         1 <0>         0.1324
     33 H3          0.4322   -1.0350    2.3216 H         1 <0>         0.1345
     34 H4          2.1848    0.9937   -1.2396 H         1 <0>         0.1483
     35 H5          3.3724    0.4958   -3.3349 H         1 <0>         0.1361
     36 H6          0.8041   -2.8826   -3.9638 H         1 <0>         0.1365
     37 H7         -0.3627   -2.3723   -1.8597 H         1 <0>         0.1486
     38 H8          3.0795   -2.0526   -9.5221 H         1 <0>         0.0954
     39 H9          4.8403   -2.0182   -9.2641 H         1 <0>         0.1029
     40 H10         4.7734   -4.3740   -8.4932 H         1 <0>         0.0814
     41 H11         3.0125   -4.4084   -8.7511 H         1 <0>         0.0769
     42 H12         2.0851   -4.3821  -10.9969 H         1 <0>         0.1223
     43 H13         2.4433   -4.9421  -13.3678 H         1 <0>         0.1230
     44 H14         4.7318   -5.1901  -14.2420 H         1 <0>         0.1222
     45 H15         6.6621   -4.8774  -12.7456 H         1 <0>         0.1229
     46 H16         6.3040   -4.3092  -10.3766 H         1 <0>         0.1228
     47 H17         4.1980   -2.5087   -2.7581 H         1 <0>         0.1324
     48 H18         5.8836   -2.1172   -1.0103 H         1 <0>         0.1403
     49 H19         8.2112    0.1865   -3.7505 H         1 <0>         0.1408
     50 H20         6.5401   -0.2051   -5.5122 H         1 <0>         0.1373
@<TRIPOS>BOND
     1    1    2 1
     2    1   31 1
     3    1   32 1
     4    1   33 1
     5    2    3 2
     6    2    4 2
     7    2    5 1
     8    5   10 ar
     9    5    6 ar
    10    6    7 ar
    11    6   34 1
    12    7    8 ar
    13    7   35 1
    14    8    9 ar
    15    8   11 1
    16    9   10 ar
    17    9   36 1
    18   10   37 1
    19   11   15 1
    20   11   12 2
    21   12   13 1
    22   12   24 1
    23   13   14 2
    24   14   15 1
    25   14   16 1
    26   16   17 1
    27   16   38 1
    28   16   39 1
    29   17   18 1
    30   17   40 1
    31   17   41 1
    32   18   23 ar
    33   18   19 ar
    34   19   20 ar
    35   19   42 1
    36   20   21 ar
    37   20   43 1
    38   21   22 ar
    39   21   44 1
    40   22   23 ar
    41   22   45 1
    42   23   46 1
    43   24   29 ar
    44   24   25 ar
    45   25   26 ar
    46   25   47 1
    47   26   27 ar
    48   26   48 1
    49   27   28 ar
    50   27   30 1
    51   28   29 ar
    52   28   49 1
    53   29   50 1
@<TRIPOS>MOLECULE
CHEMBL328521
   43    45     0     0     0
SMALL
USER_CHARGES

@<TRIPOS>ATOM
      1 C1         -0.0187    1.5258    0.0104 C.3       1 <0>        -0.1426
      2 C2          0.0021   -0.0041    0.0020 C.3       1 <0>        -0.0246
      3 C3         -1.3097   -0.6266    0.4858 C.3       1 <0>         0.1327
      4 C4         -0.4419   -1.1360    1.6083 C.2       1 <0>        -0.1115
      5 C5          0.7145   -0.5940    1.1924 C.2       1 <0>        -0.0902
      6 C6          2.1013   -0.5813    1.6916 C.ar      1 <0>         0.0403
      7 C7          2.6841    0.6161    2.1147 C.ar      1 <0>        -0.1240
      8 C8          3.9821    0.6202    2.5810 C.ar      1 <0>        -0.0214
      9 C9          4.7070   -0.5575    2.6300 C.ar      1 <0>        -0.6594
     10 C10         4.1364   -1.7470    2.2127 C.ar      1 <0>        -0.0208
     11 C11         2.8375   -1.7675    1.7494 C.ar      1 <0>        -0.1209
     12 S1          6.3650   -0.5422    3.2262 S.o2      1 <0>         2.4995
     13 O1          6.9859   -1.6564    2.5999 O.2       1 <0>        -0.9364
     14 O2          6.8273    0.7785    2.9784 O.2       1 <0>        -0.9365
     15 C12         6.2211   -0.8290    5.0116 C.3       1 <0>        -0.6504
     16 C13        -0.7604   -1.9639    2.7854 C.ar      1 <0>        -0.0412
     17 C14        -0.2031   -3.2383    2.9190 C.ar      1 <0>        -0.0999
     18 C15        -0.5058   -4.0073    4.0232 C.ar      1 <0>        -0.1185
     19 C16        -1.3591   -3.5197    4.9974 C.ar      1 <0>        -0.1162
     20 C17        -1.9150   -2.2587    4.8717 C.ar      1 <0>        -0.1187
     21 C18        -1.6166   -1.4759    3.7761 C.ar      1 <0>        -0.1054
     22 O3         -1.8251   -1.6492   -0.3689 O.3       1 <0>        -0.5363
     23 C19         0.4849   -0.5759   -1.3325 C.3       1 <0>        -0.1279
     24 H1          1.0039    1.9031    0.0027 H         1 <0>         0.0665
     25 H2         -0.5459    1.8868   -0.8726 H         1 <0>         0.0677
     26 H3         -0.5289    1.8773    0.9072 H         1 <0>         0.0603
     27 H4         -2.0626    0.0984    0.7950 H         1 <0>         0.0937
     28 H5          2.1198    1.5361    2.0764 H         1 <0>         0.1351
     29 H6          4.4339    1.5449    2.9084 H         1 <0>         0.1455
     30 H7          4.7083   -2.6623    2.2534 H         1 <0>         0.1453
     31 H8          2.3919   -2.6974    1.4282 H         1 <0>         0.1328
     32 H9          5.7383   -1.7903    5.1874 H         1 <0>         0.1315
     33 H10         7.2146   -0.8340    5.4600 H         1 <0>         0.1339
     34 H11         5.6240   -0.0351    5.4602 H         1 <0>         0.1316
     35 H12         0.4627   -3.6204    2.1593 H         1 <0>         0.1207
     36 H13        -0.0762   -4.9927    4.1276 H         1 <0>         0.1248
     37 H14        -1.5925   -4.1263    5.8599 H         1 <0>         0.1234
     38 H15        -2.5804   -1.8848    5.6358 H         1 <0>         0.1247
     39 H16        -2.0471   -0.4899    3.6818 H         1 <0>         0.1218
     40 H17        -2.6539   -2.0397   -0.0594 H         1 <0>         0.3834
     41 H18         1.5485   -0.3699   -1.4524 H         1 <0>         0.0561
     42 H19         0.3194   -1.6531   -1.3473 H         1 <0>         0.0682
     43 H20        -0.0693   -0.1119   -2.1483 H         1 <0>         0.0632
@<TRIPOS>BOND
     1    1    2 1
     2    1   24 1
     3    1   25 1
     4    1   26 1
     5    2    5 1
     6    2    3 1
     7    2   23 1
     8    3    4 1
     9    3   22 1
    10    3   27 1
    11    4    5 2
    12    4   16 1
    13    5    6 1
    14    6   11 ar
    15    6    7 ar
    16    7    8 ar
    17    7   28 1
    18    8    9 ar
    19    8   29 1
    20    9   10 ar
    21    9   12 1
    22   10   11 ar
    23   10   30 1
    24   11   31 1
    25   12   13 2
    26   12   14 2
    27   12   15 1
    28   15   32 1
    29   15   33 1
    30   15   34 1
    31   16   21 ar
    32   16   17 ar
    33   17   18 ar
    34   17   35 1
    35   18   19 ar
    36   18   36 1
    37   19   20 ar
    38   19   37 1
    39   20   21 ar
    40   20   38 1
    41   21   39 1
    42   22   40 1
    43   23   41 1
    44   23   42 1
    45   23   43 1
@<TRIPOS>MOLECULE
CHEMBL328521__1
   43    45     0     0     0
SMALL
USER_CHARGES

@<TRIPOS>ATOM
      1 C1         -0.0187    1.5258    0.0104 C.3       1 <0>        -0.1295
      2 C2          0.0021   -0.0041    0.0020 C.3       1 <0>        -0.0249
      3 C3         -1.3097   -0.6266    0.4858 C.3       1 <0>         0.1325
      4 C4         -0.4419   -1.1360    1.6083 C.2       1 <0>        -0.1109
      5 C5          0.7145   -0.5940    1.1924 C.2       1 <0>        -0.0900
      6 C6          2.1013   -0.5813    1.6916 C.ar      1 <0>         0.0401
      7 C7          2.6841    0.6161    2.1147 C.ar      1 <0>        -0.1216
      8 C8          3.9821    0.6202    2.5810 C.ar      1 <0>        -0.0211
      9 C9          4.7070   -0.5575    2.6300 C.ar      1 <0>        -0.6593
     10 C10         4.1364   -1.7470    2.2127 C.ar      1 <0>        -0.0212
     11 C11         2.8375   -1.7675    1.7494 C.ar      1 <0>        -0.1229
     12 S1          6.3650   -0.5422    3.2262 S.o2      1 <0>         2.4996
     13 O1          6.9859   -1.6564    2.5999 O.2       1 <0>        -0.9366
     14 O2          6.8273    0.7785    2.9784 O.2       1 <0>        -0.9363
     15 C12         6.2211   -0.8290    5.0116 C.3       1 <0>        -0.6504
     16 C13        -0.7604   -1.9639    2.7854 C.ar      1 <0>        -0.0421
     17 C14        -0.2031   -3.2383    2.9190 C.ar      1 <0>        -0.1039
     18 C15        -0.5058   -4.0073    4.0232 C.ar      1 <0>        -0.1188
     19 C16        -1.3591   -3.5197    4.9974 C.ar      1 <0>        -0.1165
     20 C17        -1.9150   -2.2587    4.8717 C.ar      1 <0>        -0.1189
     21 C18        -1.6166   -1.4759    3.7761 C.ar      1 <0>        -0.1025
     22 O3         -2.2968    0.3239    0.8912 O.3       1 <0>        -0.5371
     23 C19         0.4849   -0.5759   -1.3325 C.3       1 <0>        -0.1408
     24 H1          1.0039    1.9031    0.0027 H         1 <0>         0.0567
     25 H2         -0.5459    1.8868   -0.8726 H         1 <0>         0.0635
     26 H3         -0.5289    1.8773    0.9072 H         1 <0>         0.0686
     27 H4         -1.7029   -1.4066   -0.1661 H         1 <0>         0.0947
     28 H5          2.1198    1.5361    2.0764 H         1 <0>         0.1357
     29 H6          4.4339    1.5449    2.9084 H         1 <0>         0.1456
     30 H7          4.7083   -2.6623    2.2534 H         1 <0>         0.1451
     31 H8          2.3919   -2.6974    1.4282 H         1 <0>         0.1324
     32 H9          5.7383   -1.7903    5.1874 H         1 <0>         0.1315
     33 H10         7.2146   -0.8340    5.4600 H         1 <0>         0.1340
     34 H11         5.6240   -0.0351    5.4602 H         1 <0>         0.1317
     35 H12         0.4627   -3.6204    2.1593 H         1 <0>         0.1204
     36 H13        -0.0762   -4.9927    4.1276 H         1 <0>         0.1246
     37 H14        -1.5925   -4.1263    5.8599 H         1 <0>         0.1232
     38 H15        -2.5804   -1.8848    5.6358 H         1 <0>         0.1247
     39 H16        -2.0471   -0.4899    3.6818 H         1 <0>         0.1249
     40 H17        -3.1238   -0.0738    1.1961 H         1 <0>         0.3827
     41 H18         1.5485   -0.3699   -1.4524 H         1 <0>         0.0658
     42 H19         0.3194   -1.6531   -1.3473 H         1 <0>         0.0600
     43 H20        -0.0693   -0.1119   -2.1483 H         1 <0>         0.0672
@<TRIPOS>BOND
     1    1    2 1
     2    1   24 1
     3    1   25 1
     4    1   26 1
     5    2    5 1
     6    2    3 1
     7    2   23 1
     8    3    4 1
     9    3   22 1
    10    3   27 1
    11    4    5 2
    12    4   16 1
    13    5    6 1
    14    6   11 ar
    15    6    7 ar
    16    7    8 ar
    17    7   28 1
    18    8    9 ar
    19    8   29 1
    20    9   10 ar
    21    9   12 1
    22   10   11 ar
    23   10   30 1
    24   11   31 1
    25   12   13 2
    26   12   14 2
    27   12   15 1
    28   15   32 1
    29   15   33 1
    30   15   34 1
    31   16   21 ar
    32   16   17 ar
    33   17   18 ar
    34   17   35 1
    35   18   19 ar
    36   18   36 1
    37   19   20 ar
    38   19   37 1
    39   20   21 ar
    40   20   38 1
    41   21   39 1
    42   22   40 1
    43   23   41 1
    44   23   42 1
    45   23   43 1
@<TRIPOS>MOLECULE
CHEMBL325894
   40    43     0     0     0
SMALL
USER_CHARGES

@<TRIPOS>ATOM
      1 C1         -0.0225    1.8097    0.0120 C.3       1 <0>        -0.6494
      2 S1          0.0021   -0.0041    0.0020 S.o2      1 <0>         2.4991
      3 O1          0.8352   -0.4880    1.0465 O.2       1 <0>        -0.9319
      4 O2         -1.3147   -0.5105   -0.1678 O.2       1 <0>        -0.9321
      5 C2          0.8454   -0.4373   -1.4831 C.ar      1 <0>        -0.6556
      6 C3          0.1330   -0.6124   -2.6553 C.ar      1 <0>        -0.0043
      7 C4          0.7913   -0.9520   -3.8210 C.ar      1 <0>        -0.1339
      8 C5          2.1697   -1.1176   -3.8152 C.ar      1 <0>         0.1713
      9 C6          2.8823   -0.9412   -2.6368 C.ar      1 <0>        -0.1243
     10 C7          2.2190   -0.5961   -1.4754 C.ar      1 <0>        -0.0036
     11 N1          2.8405   -1.4627   -4.9965 N.pl3     1 <0>        -0.4168
     12 C8          2.5152   -2.4722   -5.8460 C.2       1 <0>         0.2231
     13 N2          3.3693   -2.4847   -6.8341 N.2       1 <0>        -0.4671
     14 C9          4.2644   -1.5035   -6.6679 C.2       1 <0>         0.0721
     15 C10         3.9532   -0.8385   -5.5213 C.2       1 <0>         0.0536
     16 C11         4.6691    0.3218   -4.9492 C.ar      1 <0>        -0.0597
     17 C12         3.9556    1.4178   -4.4609 C.ar      1 <0>        -0.0622
     18 C13         4.6234    2.4955   -3.9248 C.ar      1 <0>        -0.1353
     19 C14         6.0164    2.5045   -3.8648 C.ar      1 <0>         0.1222
     20 C15         6.7218    1.4134   -4.3594 C.ar      1 <0>        -0.1697
     21 C16         6.0643    0.3276   -4.8878 C.ar      1 <0>        -0.0356
     22 C17         8.1965    1.7202   -4.1815 C.3       1 <0>        -0.1115
     23 C18         8.1761    3.2429   -3.9097 C.3       1 <0>         0.0507
     24 O3          6.8601    3.4525   -3.3703 O.3       1 <0>        -0.3015
     25 Cl1         5.5867   -1.1384   -7.7319 Cl        1 <0>         0.0037
     26 H1          1.0001    2.1870    0.0043 H         1 <0>         0.1332
     27 H2         -0.5497    2.1708   -0.8711 H         1 <0>         0.1331
     28 H3         -0.5327    2.1613    0.9088 H         1 <0>         0.1364
     29 H4         -0.9393   -0.4837   -2.6591 H         1 <0>         0.1558
     30 H5          0.2343   -1.0889   -4.7361 H         1 <0>         0.1455
     31 H6          3.9546   -1.0694   -2.6292 H         1 <0>         0.1414
     32 H7          2.7733   -0.4544   -0.5594 H         1 <0>         0.1543
     33 H8          1.6857   -3.1530   -5.7241 H         1 <0>         0.2233
     34 H9          2.8765    1.4204   -4.5043 H         1 <0>         0.1275
     35 H10         4.0648    3.3397   -3.5485 H         1 <0>         0.1342
     36 H11         6.6258   -0.5173   -5.2582 H         1 <0>         0.1318
     37 H12         8.6071    1.1779   -3.3298 H         1 <0>         0.0945
     38 H13         8.7537    1.4942   -5.0907 H         1 <0>         0.0960
     39 H14         8.9398    3.5153   -3.1812 H         1 <0>         0.1107
     40 H15         8.3074    3.8023   -4.8359 H         1 <0>         0.0810
@<TRIPOS>BOND
     1    1    2 1
     2    1   26 1
     3    1   27 1
     4    1   28 1
     5    2    3 2
     6    2    4 2
     7    2    5 1
     8    5   10 ar
     9    5    6 ar
    10    6    7 ar
    11    6   29 1
    12    7    8 ar
    13    7   30 1
    14    8    9 ar
    15    8   11 1
    16    9   10 ar
    17    9   31 1
    18   10   32 1
    19   11   15 1
    20   11   12 1
    21   12   13 2
    22   12   33 1
    23   13   14 1
    24   14   15 2
    25   14   25 1
    26   15   16 1
    27   16   21 ar
    28   16   17 ar
    29   17   18 ar
    30   17   34 1
    31   18   19 ar
    32   18   35 1
    33   19   24 1
    34   19   20 ar
    35   20   21 ar
    36   20   22 1
    37   21   36 1
    38   22   23 1
    39   22   37 1
    40   22   38 1
    41   23   24 1
    42   23   39 1
    43   23   40 1
@<TRIPOS>MOLECULE
CHEMBL143523
   37    40     0     0     0
SMALL
USER_CHARGES

@<TRIPOS>ATOM
      1 C1         -0.0167    1.3790    0.0096 C.ar      1 <0>        -0.1272
      2 C2          1.1687    2.0919    0.0021 C.ar      1 <0>        -0.1180
      3 C3          2.3774    1.4258   -0.0129 C.ar      1 <0>        -0.1113
      4 C4          2.4021    0.0327   -0.0206 C.ar      1 <0>        -0.0023
      5 C5          1.2051   -0.6804   -0.0130 C.ar      1 <0>        -0.1134
      6 C6          0.0021   -0.0041    0.0020 C.ar      1 <0>        -0.1183
      7 C7          3.6989   -0.6891   -0.0373 C.2       1 <0>        -0.1176
      8 C8          4.7796   -0.4480   -0.9148 C.2       1 <0>        -0.1493
      9 C9          5.7656   -1.3243   -0.5903 C.2       1 <0>         0.0697
     10 N1          5.3276   -2.0982    0.4620 N.pl3     1 <0>        -0.4582
     11 C10         4.0699   -1.7044    0.7960 C.2       1 <0>         0.0303
     12 C11         3.5575   -2.5370    1.9535 C.3       1 <0>        -0.0614
     13 C12         4.5053   -3.7565    1.9937 C.3       1 <0>        -0.1317
     14 C13         5.7792   -3.1960    1.3339 C.3       1 <0>         0.1000
     15 C14         7.0834   -1.4295   -1.2531 C.ar      1 <0>        -0.0121
     16 C15         7.9682   -2.4479   -0.8958 C.ar      1 <0>        -0.1283
     17 C16         9.1961   -2.5404   -1.5180 C.ar      1 <0>        -0.1124
     18 C17         9.5510   -1.6264   -2.4941 C.ar      1 <0>        -0.1242
     19 C18         8.6787   -0.6141   -2.8525 C.ar      1 <0>        -0.1107
     20 C19         7.4452   -0.5142   -2.2425 C.ar      1 <0>        -0.1061
     21 H1         -0.9602    1.9042    0.0260 H         1 <0>         0.1197
     22 H2          1.1483    3.1717    0.0077 H         1 <0>         0.1213
     23 H3          3.3023    1.9833   -0.0191 H         1 <0>         0.1212
     24 H4          1.2186   -1.7603   -0.0193 H         1 <0>         0.1184
     25 H5         -0.9264   -0.5558    0.0082 H         1 <0>         0.1208
     26 H6          4.8151    0.2946   -1.6982 H         1 <0>         0.1454
     27 H7          3.6202   -1.9745    2.8850 H         1 <0>         0.0889
     28 H8          2.5321   -2.8570    1.7685 H         1 <0>         0.0901
     29 H9          4.6977   -4.0666    3.0208 H         1 <0>         0.0984
     30 H10         4.1021   -4.5827    1.4080 H         1 <0>         0.0849
     31 H11         6.2776   -3.9650    0.7437 H         1 <0>         0.0891
     32 H12         6.4521   -2.8145    2.1019 H         1 <0>         0.0862
     33 H13         7.6924   -3.1617   -0.1338 H         1 <0>         0.1162
     34 H14         9.8819   -3.3279   -1.2422 H         1 <0>         0.1235
     35 H15        10.5135   -1.7032   -2.9781 H         1 <0>         0.1237
     36 H16         8.9620    0.0966   -3.6147 H         1 <0>         0.1270
     37 H17         6.7632    0.2735   -2.5265 H         1 <0>         0.1279
@<TRIPOS>BOND
     1    1    6 ar
     2    1    2 ar
     3    1   21 1
     4    2    3 ar
     5    2   22 1
     6    3    4 ar
     7    3   23 1
     8    4    5 ar
     9    4    7 1
    10    5    6 ar
    11    5   24 1
    12    6   25 1
    13    7   11 2
    14    7    8 1
    15    8    9 2
    16    8   26 1
    17    9   10 1
    18    9   15 1
    19   10   14 1
    20   10   11 1
    21   11   12 1
    22   12   13 1
    23   12   27 1
    24   12   28 1
    25   13   14 1
    26   13   29 1
    27   13   30 1
    28   14   31 1
    29   14   32 1
    30   15   20 ar
    31   15   16 ar
    32   16   17 ar
    33   16   33 1
    34   17   18 ar
    35   17   34 1
    36   18   19 ar
    37   18   35 1
    38   19   20 ar
    39   19   36 1
    40   20   37 1
@<TRIPOS>MOLECULE
CHEMBL143653
   35    38     0     0     0
SMALL
USER_CHARGES

@<TRIPOS>ATOM
      1 C1         -0.0109    1.3852    0.1254 C.ar      1 <0>        -0.1118
      2 C2          1.0264    1.7780    0.9534 C.ar      1 <0>        -0.1156
      3 C3          2.2332    1.1123    0.9158 C.ar      1 <0>        -0.1035
      4 C4          2.4076    0.0374    0.0380 C.ar      1 <0>        -0.0074
      5 C5          1.3546   -0.3534   -0.7954 C.ar      1 <0>        -0.0963
      6 C6          0.1539    0.3225   -0.7461 C.ar      1 <0>        -0.1163
      7 C7          3.6936   -0.6788   -0.0088 C.2       1 <0>        -0.1430
      8 C8          3.9151   -2.0741    0.0020 C.ar      1 <0>        -0.0685
      9 C9          2.8987   -3.0725    0.0617 C.ar      1 <0>        -0.0933
     10 C10         3.2232   -4.3846    0.0667 C.ar      1 <0>        -0.1151
     11 C11         4.5536   -4.8027    0.0136 C.ar      1 <0>        -0.1152
     12 C12         5.5681   -3.9115   -0.0449 C.ar      1 <0>        -0.0932
     13 C13         5.3031   -2.5104   -0.0534 C.ar      1 <0>        -0.0685
     14 C14         6.2805   -1.4919   -0.1121 C.2       1 <0>        -0.1429
     15 S1          5.3297    0.0099   -0.0998 S.3       1 <0>         0.1807
     16 C15         7.7444   -1.6400   -0.1753 C.ar      1 <0>        -0.0074
     17 C16         8.3217   -2.5396   -1.0773 C.ar      1 <0>        -0.0963
     18 C17         9.6930   -2.6725   -1.1304 C.ar      1 <0>        -0.1163
     19 C18        10.4979   -1.9186   -0.2939 C.ar      1 <0>        -0.1118
     20 C19         9.9342   -1.0265    0.6018 C.ar      1 <0>        -0.1156
     21 C20         8.5648   -0.8776    0.6625 C.ar      1 <0>        -0.1035
     22 H1         -0.9553    1.9078    0.1626 H         1 <0>         0.1258
     23 H2          0.8902    2.6084    1.6304 H         1 <0>         0.1277
     24 H3          3.0417    1.4201    1.5622 H         1 <0>         0.1244
     25 H4          1.4818   -1.1821   -1.4761 H         1 <0>         0.1268
     26 H5         -0.6602    0.0220   -1.3891 H         1 <0>         0.1281
     27 H6          1.8605   -2.7776    0.1036 H         1 <0>         0.1243
     28 H7          2.4374   -5.1240    0.1131 H         1 <0>         0.1234
     29 H8          4.7770   -5.8593    0.0197 H         1 <0>         0.1234
     30 H9          6.5883   -4.2636   -0.0852 H         1 <0>         0.1242
     31 H10         7.6950   -3.1288   -1.7303 H         1 <0>         0.1268
     32 H11        10.1403   -3.3670   -1.8261 H         1 <0>         0.1281
     33 H12        11.5715   -2.0272   -0.3402 H         1 <0>         0.1259
     34 H13        10.5688   -0.4422    1.2516 H         1 <0>         0.1278
     35 H14         8.1266   -0.1776    1.3585 H         1 <0>         0.1244
@<TRIPOS>BOND
     1    1    6 ar
     2    1    2 ar
     3    1   22 1
     4    2    3 ar
     5    2   23 1
     6    3    4 ar
     7    3   24 1
     8    4    5 ar
     9    4    7 1
    10    5    6 ar
    11    5   25 1
    12    6   26 1
    13    7   15 1
    14    7    8 2
    15    8   13 ar
    16    8    9 ar
    17    9   10 ar
    18    9   27 1
    19   10   11 ar
    20   10   28 1
    21   11   12 ar
    22   11   29 1
    23   12   13 ar
    24   12   30 1
    25   13   14 2
    26   14   15 1
    27   14   16 1
    28   16   21 ar
    29   16   17 ar
    30   17   18 ar
    31   17   31 1
    32   18   19 ar
    33   18   32 1
    34   19   20 ar
    35   19   33 1
    36   20   21 ar
    37   20   34 1
    38   21   35 1
@<TRIPOS>MOLECULE
CHEMBL115241
   49    54     0     0     0
SMALL
USER_CHARGES

@<TRIPOS>ATOM
      1 C1          0.1942    1.6670   -0.4784 C.ar      1 <0>        -0.1128
      2 C2          1.4493    2.2455   -0.5474 C.ar      1 <0>        -0.1194
      3 C3          2.5660    1.4590   -0.3839 C.ar      1 <0>        -0.1139
      4 C4          2.4445    0.0808   -0.1500 C.ar      1 <0>        -0.0355
      5 C5          1.1911   -0.4990   -0.0824 C.ar      1 <0>        -0.0974
      6 C6          0.0700    0.3154   -0.2487 C.ar      1 <0>        -0.1199
      7 C7          0.8918   -1.9558    0.1539 C.3       1 <0>         0.1153
      8 O1          1.9889   -2.7253    0.5741 O.3       1 <0>        -0.3234
      9 C8          3.0005   -3.0032   -0.2696 C.ar      1 <0>         0.1008
     10 C9          3.1588   -4.2831   -0.7927 C.ar      1 <0>        -0.1460
     11 C10         4.1859   -4.5412   -1.6733 C.ar      1 <0>        -0.0653
     12 C11         5.0735   -3.5258   -2.0487 C.ar      1 <0>        -0.1340
     13 C12         4.9231   -2.2396   -1.5177 C.ar      1 <0>        -0.0508
     14 C13         3.8923   -1.9979   -0.6258 C.ar      1 <0>        -0.1075
     15 C14         3.7088   -0.6740    0.0132 C.2       1 <0>         0.0017
     16 C15         4.6988   -0.1524    0.7477 C.2       1 <0>        -0.1737
     17 C16         4.4626    1.1023    1.5482 C.3       1 <0>         0.1368
     18 N1          4.8525    0.8732    2.9416 N.pl3     1 <0>        -0.4776
     19 C17         4.0300    0.4946    3.9578 C.2       1 <0>         0.2750
     20 N2          4.7072    0.3829    5.0629 N.2       1 <0>        -0.4917
     21 C18         6.0121    0.6825    4.8319 C.ar      1 <0>         0.0587
     22 C19         6.1251    0.9956    3.4673 C.ar      1 <0>         0.0603
     23 C20         7.3589    1.3403    2.9333 C.ar      1 <0>        -0.0921
     24 C21         8.4772    1.3718    3.7447 C.ar      1 <0>         0.0539
     25 C22         8.3710    1.0574    5.1025 C.ar      1 <0>         0.0275
     26 C23         7.1481    0.7215    5.6454 C.ar      1 <0>        -0.0515
     27 O2          9.6092    1.1631    5.6705 O.3       1 <0>        -0.3073
     28 C24        10.5394    1.1435    4.5720 C.3       1 <0>         0.2135
     29 O3          9.7807    1.6730    3.4692 O.3       1 <0>        -0.3048
     30 C25         6.1621   -3.8101   -2.9989 C.2       1 <0>         0.5206
     31 O4          6.2919   -4.9351   -3.4615 O.co2     1 <0>        -0.6838
     32 O5          6.9366   -2.9212   -3.3255 O.co2     1 <0>        -0.6844
     33 H1         -0.6886    2.2770   -0.6003 H         1 <0>         0.1248
     34 H2          1.5514    3.3053   -0.7284 H         1 <0>         0.1274
     35 H3          3.5472    1.9072   -0.4365 H         1 <0>         0.1273
     36 H4         -0.9152   -0.1238   -0.1965 H         1 <0>         0.1245
     37 H5          0.1111   -2.0279    0.9111 H         1 <0>         0.1130
     38 H6          0.5072   -2.3825   -0.7724 H         1 <0>         0.0641
     39 H7          2.4782   -5.0720   -0.5086 H         1 <0>         0.1267
     40 H8          4.3077   -5.5353   -2.0773 H         1 <0>         0.1348
     41 H9          5.6008   -1.4475   -1.7997 H         1 <0>         0.1339
     42 H10         5.6668   -0.6308    0.7665 H         1 <0>         0.1298
     43 H11         5.0581    1.9155    1.1333 H         1 <0>         0.0992
     44 H12         3.4061    1.3672    1.5053 H         1 <0>         0.1124
     45 H13         2.9697    0.3136    3.8609 H         1 <0>         0.2139
     46 H14         7.4451    1.5834    1.8845 H         1 <0>         0.1369
     47 H15         7.0708    0.4774    6.6946 H         1 <0>         0.1419
     48 H16        11.3982    1.7797    4.7863 H         1 <0>         0.1320
     49 H17        10.8607    0.1235    4.3608 H         1 <0>         0.0863
@<TRIPOS>BOND
     1    1    6 ar
     2    1    2 ar
     3    1   33 1
     4    2    3 ar
     5    2   34 1
     6    3    4 ar
     7    3   35 1
     8    4   15 1
     9    4    5 ar
    10    5    6 ar
    11    5    7 1
    12    6   36 1
    13    7    8 1
    14    7   37 1
    15    7   38 1
    16    8    9 1
    17    9   14 ar
    18    9   10 ar
    19   10   11 ar
    20   10   39 1
    21   11   12 ar
    22   11   40 1
    23   12   13 ar
    24   12   30 1
    25   13   14 ar
    26   13   41 1
    27   14   15 1
    28   15   16 2
    29   16   17 1
    30   16   42 1
    31   17   18 1
    32   17   43 1
    33   17   44 1
    34   18   22 1
    35   18   19 1
    36   19   20 2
    37   19   45 1
    38   20   21 1
    39   21   26 ar
    40   21   22 ar
    41   22   23 ar
    42   23   24 ar
    43   23   46 1
    44   24   29 1
    45   24   25 ar
    46   25   26 ar
    47   25   27 1
    48   26   47 1
    49   27   28 1
    50   28   29 1
    51   28   48 1
    52   28   49 1
    53   30   31 2
    54   30   32 1
@<TRIPOS>MOLECULE
CHEMBL115241__1
   50    55     0     0     0
SMALL
USER_CHARGES

@<TRIPOS>ATOM
      1 C1          0.1942    1.6670   -0.4784 C.ar      1 <0>        -0.1033
      2 C2          1.4493    2.2455   -0.5474 C.ar      1 <0>        -0.1167
      3 C3          2.5660    1.4590   -0.3839 C.ar      1 <0>        -0.1182
      4 C4          2.4445    0.0808   -0.1500 C.ar      1 <0>        -0.0583
      5 C5          1.1911   -0.4990   -0.0824 C.ar      1 <0>        -0.0895
      6 C6          0.0700    0.3154   -0.2487 C.ar      1 <0>        -0.1177
      7 C7          0.8918   -1.9558    0.1539 C.3       1 <0>         0.1096
      8 O1          1.9889   -2.7253    0.5741 O.3       1 <0>        -0.3256
      9 C8          3.0005   -3.0032   -0.2696 C.ar      1 <0>         0.0994
     10 C9          3.1588   -4.2831   -0.7927 C.ar      1 <0>        -0.1425
     11 C10         4.1859   -4.5412   -1.6733 C.ar      1 <0>        -0.0584
     12 C11         5.0735   -3.5258   -2.0487 C.ar      1 <0>        -0.1285
     13 C12         4.9231   -2.2396   -1.5177 C.ar      1 <0>        -0.0484
     14 C13         3.8923   -1.9979   -0.6258 C.ar      1 <0>        -0.1243
     15 C14         3.7088   -0.6740    0.0132 C.2       1 <0>         0.0528
     16 C15         4.6988   -0.1524    0.7477 C.2       1 <0>        -0.2199
     17 C16         4.4626    1.1023    1.5482 C.3       1 <0>         0.1262
     18 N1          4.8525    0.8732    2.9416 N.pl3     1 <0>        -0.4133
     19 C17         4.0300    0.4946    3.9578 C.cat     1 <0>         0.3759
     20 N2          4.7072    0.3829    5.0629 N.pl3     1 <0>        -0.4864
     21 C18         6.0121    0.6825    4.8319 C.ar      1 <0>         0.0582
     22 C19         6.1251    0.9956    3.4673 C.ar      1 <0>         0.0949
     23 C20         7.3589    1.3403    2.9333 C.ar      1 <0>        -0.0802
     24 C21         8.4772    1.3718    3.7447 C.ar      1 <0>         0.0950
     25 C22         8.3710    1.0574    5.1025 C.ar      1 <0>         0.0826
     26 C23         7.1481    0.7215    5.6454 C.ar      1 <0>        -0.0759
     27 O2          9.6092    1.1631    5.6705 O.3       1 <0>        -0.2906
     28 C24        10.5394    1.1435    4.5720 C.3       1 <0>         0.2094
     29 O3          9.7807    1.6730    3.4692 O.3       1 <0>        -0.2868
     30 C25         6.1621   -3.8101   -2.9989 C.2       1 <0>         0.5175
     31 O4          6.2919   -4.9351   -3.4615 O.co2     1 <0>        -0.6766
     32 O5          6.9366   -2.9212   -3.3255 O.co2     1 <0>        -0.6825
     33 H1         -0.6886    2.2770   -0.6003 H         1 <0>         0.1300
     34 H2          1.5514    3.3053   -0.7284 H         1 <0>         0.1317
     35 H3          3.5472    1.9072   -0.4365 H         1 <0>         0.1279
     36 H4         -0.9152   -0.1238   -0.1965 H         1 <0>         0.1294
     37 H5          0.1111   -2.0279    0.9111 H         1 <0>         0.1164
     38 H6          0.5072   -2.3825   -0.7724 H         1 <0>         0.0699
     39 H7          2.4782   -5.0720   -0.5086 H         1 <0>         0.1301
     40 H8          4.3077   -5.5353   -2.0773 H         1 <0>         0.1389
     41 H9          5.6008   -1.4475   -1.7997 H         1 <0>         0.1358
     42 H10         5.6668   -0.6308    0.7665 H         1 <0>         0.1388
     43 H11         5.0581    1.9155    1.1333 H         1 <0>         0.1262
     44 H12         3.4061    1.3672    1.5053 H         1 <0>         0.1330
     45 H13         2.9697    0.3136    3.8609 H         1 <0>         0.2654
     46 H14         7.4451    1.5834    1.8845 H         1 <0>         0.1660
     47 H15         7.0708    0.4774    6.6946 H         1 <0>         0.1644
     48 H16        11.3982    1.7797    4.7863 H         1 <0>         0.1503
     49 H17        10.8607    0.1235    4.3608 H         1 <0>         0.1051
     50 H18         4.3366    0.1254    5.9215 H         1 <0>         0.4632
@<TRIPOS>BOND
     1    1    6 ar
     2    1    2 ar
     3    1   33 1
     4    2    3 ar
     5    2   34 1
     6    3    4 ar
     7    3   35 1
     8    4   15 1
     9    4    5 ar
    10    5    6 ar
    11    5    7 1
    12    6   36 1
    13    7    8 1
    14    7   37 1
    15    7   38 1
    16    8    9 1
    17    9   14 ar
    18    9   10 ar
    19   10   11 ar
    20   10   39 1
    21   11   12 ar
    22   11   40 1
    23   12   13 ar
    24   12   30 1
    25   13   14 ar
    26   13   41 1
    27   14   15 1
    28   15   16 2
    29   16   17 1
    30   16   42 1
    31   17   18 1
    32   17   43 1
    33   17   44 1
    34   18   22 1
    35   18   19 1
    36   19   20 2
    37   19   45 1
    38   20   21 1
    39   20   50 1
    40   21   26 ar
    41   21   22 ar
    42   22   23 ar
    43   23   24 ar
    44   23   46 1
    45   24   29 1
    46   24   25 ar
    47   25   26 ar
    48   25   27 1
    49   26   47 1
    50   27   28 1
    51   28   29 1
    52   28   48 1
    53   28   49 1
    54   30   31 2
    55   30   32 1
@<TRIPOS>MOLECULE
CHEMBL48568
   46    47     0     0     0
SMALL
USER_CHARGES

@<TRIPOS>ATOM
      1 C1          0.0259    1.5244    0.0357 C.3       1 <0>        -0.1468
      2 C2          0.0276   -0.0055    0.0160 C.3       1 <0>        -0.0219
      3 C3          0.7719   -0.5306    1.2453 C.3       1 <0>        -0.1421
      4 C4         -1.4142   -0.5173    0.0356 C.3       1 <0>        -0.1424
      5 C5          0.7161   -0.4911   -1.2335 C.ar      1 <0>        -0.0981
      6 C6          1.2263    0.4168   -2.1338 C.ar      1 <0>        -0.0807
      7 C7          1.8658   -0.0357   -3.2943 C.ar      1 <0>        -0.1029
      8 C8          1.9826   -1.4105   -3.5324 C.ar      1 <0>        -0.0748
      9 C9          1.4688   -2.3097   -2.6254 C.ar      1 <0>        -0.1004
     10 C10         0.8399   -1.8550   -1.4720 C.ar      1 <0>         0.1448
     11 O1          0.3398   -2.7460   -0.5782 O.3       1 <0>        -0.4837
     12 C11         1.5934   -3.7897   -2.8805 C.3       1 <0>        -0.0208
     13 C12         2.3255   -4.0192   -4.2042 C.3       1 <0>        -0.1486
     14 C13         2.3827   -4.4389   -1.7419 C.3       1 <0>        -0.1431
     15 C14         0.1983   -4.4137   -2.9544 C.3       1 <0>        -0.1430
     16 C15         2.4117    0.9284   -4.2587 C.2       1 <0>         0.0326
     17 C16         2.1909    2.2549   -4.0898 C.2       1 <0>        -0.0710
     18 C17         2.5630    3.3399   -5.0083 C.2       1 <0>         0.5435
     19 O2          3.1331    3.2315   -6.0782 O.2       1 <0>        -0.4489
     20 N1          2.1429    4.4813   -4.4232 N.am      1 <0>        -0.6795
     21 C18         1.5596    4.1812   -3.2509 C.2       1 <0>         0.6491
     22 O3          1.0796    4.9982   -2.4901 O.2       1 <0>        -0.4574
     23 O4          1.5731    2.8575   -3.0369 O.3       1 <0>        -0.2398
     24 H1          1.0530    1.8890    0.0218 H         1 <0>         0.0591
     25 H2         -0.5043    1.8984   -0.8401 H         1 <0>         0.0589
     26 H3         -0.4721    1.8756    0.9394 H         1 <0>         0.0613
     27 H4          0.2739   -0.1794    2.1491 H         1 <0>         0.0561
     28 H5          0.7730   -1.6205    1.2313 H         1 <0>         0.0747
     29 H6          1.7990   -0.1659    1.2314 H         1 <0>         0.0515
     30 H7         -1.9444   -0.1433   -0.8402 H         1 <0>         0.0547
     31 H8         -1.4130   -1.6072    0.0215 H         1 <0>         0.0575
     32 H9         -1.9122   -0.1661    0.9393 H         1 <0>         0.0627
     33 H10         1.1332    1.4762   -1.9455 H         1 <0>         0.1545
     34 H11         2.4746   -1.7649   -4.4261 H         1 <0>         0.1389
     35 H12        -0.5780   -2.9995   -0.7470 H         1 <0>         0.3863
     36 H13         3.3193   -3.5747   -4.1516 H         1 <0>         0.0598
     37 H14         2.4156   -5.0897   -4.3888 H         1 <0>         0.0615
     38 H15         1.7631   -3.5568   -5.0154 H         1 <0>         0.0590
     39 H16         1.8611   -4.2754   -0.7989 H         1 <0>         0.0753
     40 H17         2.4728   -5.5094   -1.9264 H         1 <0>         0.0557
     41 H18         3.3766   -3.9944   -1.6893 H         1 <0>         0.0519
     42 H19        -0.3640   -3.9512   -3.7656 H         1 <0>         0.0552
     43 H20         0.2884   -5.4842   -3.1390 H         1 <0>         0.0624
     44 H21        -0.3233   -4.2502   -2.0114 H         1 <0>         0.0577
     45 H22         2.9891    0.5802   -5.1024 H         1 <0>         0.1726
     46 H23         2.2459    5.3736   -4.7894 H         1 <0>         0.4488
@<TRIPOS>BOND
     1    1    2 1
     2    1   24 1
     3    1   25 1
     4    1   26 1
     5    2    3 1
     6    2    4 1
     7    2    5 1
     8    3   27 1
     9    3   28 1
    10    3   29 1
    11    4   30 1
    12    4   31 1
    13    4   32 1
    14    5   10 ar
    15    5    6 ar
    16    6    7 ar
    17    6   33 1
    18    7    8 ar
    19    7   16 1
    20    8    9 ar
    21    8   34 1
    22    9   10 ar
    23    9   12 1
    24   10   11 1
    25   11   35 1
    26   12   13 1
    27   12   14 1
    28   12   15 1
    29   13   36 1
    30   13   37 1
    31   13   38 1
    32   14   39 1
    33   14   40 1
    34   14   41 1
    35   15   42 1
    36   15   43 1
    37   15   44 1
    38   16   17 2
    39   16   45 1
    40   17   23 1
    41   17   18 1
    42   18   19 2
    43   18   20 am
    44   20   21 am
    45   20   46 1
    46   21   22 2
    47   21   23 1
@<TRIPOS>MOLECULE
CHEMBL298476
   40    42     0     0     0
SMALL
USER_CHARGES

@<TRIPOS>ATOM
      1 C1         -1.2476    1.3539    0.5148 C.3       1 <0>        -0.1262
      2 C2         -0.9594   -0.1204    0.3955 C.ar      1 <0>        -0.0535
      3 C3         -0.8380   -0.8932    1.5367 C.ar      1 <0>        -0.1057
      4 C4         -0.5742   -2.2434    1.4345 C.ar      1 <0>        -0.0960
      5 C5         -0.4296   -2.8304    0.1765 C.ar      1 <0>        -0.0221
      6 C6         -0.5530   -2.0466   -0.9711 C.ar      1 <0>        -0.0568
      7 C7         -0.8228   -0.6971   -0.8557 C.ar      1 <0>        -0.0380
      8 Cl1        -0.9844    0.2792   -2.2821 Cl        1 <0>        -0.0512
      9 C8         -0.1463   -4.2771    0.0605 C.2       1 <0>         0.2773
     10 N1         -0.4234   -5.0352   -0.9773 N.2       1 <0>        -0.4245
     11 C9         -0.0259   -6.2883   -0.7284 C.2       1 <0>        -0.0814
     12 C10         0.5198   -6.3259    0.5044 C.2       1 <0>         0.0393
     13 N2          0.4538   -5.0540    1.0112 N.pl3     1 <0>        -0.4129
     14 C11         0.9112   -4.6316    2.2667 C.ar      1 <0>         0.1634
     15 C12         1.8310   -3.5956    2.3595 C.ar      1 <0>        -0.1225
     16 C13         2.2796   -3.1812    3.5982 C.ar      1 <0>        -0.0029
     17 C14         1.8137   -3.7969    4.7454 C.ar      1 <0>        -0.6691
     18 C15         0.8980   -4.8292    4.6562 C.ar      1 <0>         0.0031
     19 C16         0.4413   -5.2443    3.4206 C.ar      1 <0>        -0.1297
     20 S1          2.3884   -3.2653    6.3239 S.o2      1 <0>         2.7021
     21 O1          2.2154   -4.3628    7.2098 O.2       1 <0>        -0.9549
     22 O2          3.6516   -2.6505    6.1103 O.2       1 <0>        -0.9519
     23 N3          1.3631   -2.0726    6.8421 N.pl3     1 <0>        -1.2457
     24 C17        -0.1648   -7.4595   -1.6665 C.3       1 <0>         0.5561
     25 F1         -0.6727   -7.0171   -2.8927 F         1 <0>        -0.1618
     26 F2          1.0884   -8.0484   -1.8660 F         1 <0>        -0.1707
     27 F3         -1.0391   -8.4003   -1.1117 F         1 <0>        -0.1709
     28 H1         -2.3258    1.5138    0.5236 H         1 <0>         0.0821
     29 H2         -0.8163    1.7347    1.4406 H         1 <0>         0.0758
     30 H3         -0.8092    1.8796   -0.3334 H         1 <0>         0.0782
     31 H4         -0.9497   -0.4382    2.5098 H         1 <0>         0.1408
     32 H5         -0.4794   -2.8450    2.3264 H         1 <0>         0.1289
     33 H6         -0.4418   -2.4949   -1.9473 H         1 <0>         0.1485
     34 H7          0.9345   -7.1929    0.9971 H         1 <0>         0.1996
     35 H8          2.1955   -3.1146    1.4638 H         1 <0>         0.1459
     36 H9          2.9953   -2.3757    3.6710 H         1 <0>         0.1586
     37 H10         0.5364   -5.3086    5.5539 H         1 <0>         0.1585
     38 H11        -0.2775   -6.0474    3.3518 H         1 <0>         0.1477
     39 H12         1.2084   -1.9445    7.7911 H         1 <0>         0.4249
     40 H13         0.9172   -1.5021    6.1967 H         1 <0>         0.4178
@<TRIPOS>BOND
     1    1    2 1
     2    1   28 1
     3    1   29 1
     4    1   30 1
     5    2    7 ar
     6    2    3 ar
     7    3    4 ar
     8    3   31 1
     9    4    5 ar
    10    4   32 1
    11    5    6 ar
    12    5    9 1
    13    6    7 ar
    14    6   33 1
    15    7    8 1
    16    9   13 1
    17    9   10 2
    18   10   11 1
    19   11   12 2
    20   11   24 1
    21   12   13 1
    22   12   34 1
    23   13   14 1
    24   14   19 ar
    25   14   15 ar
    26   15   16 ar
    27   15   35 1
    28   16   17 ar
    29   16   36 1
    30   17   18 ar
    31   17   20 1
    32   18   19 ar
    33   18   37 1
    34   19   38 1
    35   20   21 2
    36   20   22 2
    37   20   23 1
    38   23   39 1
    39   23   40 1
    40   24   25 1
    41   24   26 1
    42   24   27 1
@<TRIPOS>MOLECULE
CHEMBL60496
   57    59     0     0     0
SMALL
USER_CHARGES

@<TRIPOS>ATOM
      1 C1         -1.4227    1.0099   -1.1326 C.3       1 <0>        -0.1491
      2 C2         -1.2057   -0.5046   -1.1468 C.3       1 <0>        -0.0214
      3 C3         -0.8923   -0.9882    0.2705 C.3       1 <0>        -0.1424
      4 C4         -2.4728   -1.1965   -1.6533 C.3       1 <0>        -0.1428
      5 C5         -0.0527   -0.8383   -2.0580 C.ar      1 <0>        -0.0963
      6 C6          0.6210    0.1701   -2.7133 C.ar      1 <0>        -0.0812
      7 C7          1.6888   -0.1400   -3.5570 C.ar      1 <0>        -0.0963
      8 C8          2.0702   -1.4710   -3.7337 C.ar      1 <0>        -0.1021
      9 C9          1.3915   -2.4739   -3.0748 C.ar      1 <0>        -0.0983
     10 C10         0.3333   -2.1608   -2.2319 C.ar      1 <0>         0.1387
     11 O1         -0.3296   -3.1515   -1.5800 O.3       1 <0>        -0.4844
     12 C11         1.8020   -3.9113   -3.2652 C.3       1 <0>        -0.0210
     13 C12         2.9872   -3.9796   -4.2304 C.3       1 <0>        -0.1509
     14 C13         2.2077   -4.5088   -1.9164 C.3       1 <0>        -0.1426
     15 C14         0.6281   -4.7049   -3.8422 C.3       1 <0>        -0.1432
     16 C15         2.4134    0.9379   -4.2618 C.2       1 <0>         0.0861
     17 C16         3.5387    0.6674   -4.9089 C.2       1 <0>        -0.6895
     18 C17         4.3707   -0.6085   -4.8948 C.3       1 <0>        -0.1082
     19 C18         5.8300   -0.2157   -5.1333 C.3       1 <0>         0.0795
     20 N1          5.9452    0.9137   -6.0646 N.pl3     1 <0>        -0.9641
     21 S1          4.4663    1.6986   -6.0268 S.o2      1 <0>         2.6575
     22 O2          3.8785    1.5671   -7.3138 O.2       1 <0>        -0.9510
     23 O3          4.6668    2.9500   -5.3841 O.2       1 <0>        -0.9543
     24 C19         7.1149    1.2774   -6.8681 C.3       1 <0>         0.1134
     25 C20         8.2865    0.2938   -6.8959 C.3       1 <0>        -0.1782
     26 C21         8.4092    1.6081   -6.1223 C.3       1 <0>        -0.1914
     27 H1         -0.5200    1.5029   -0.7718 H         1 <0>         0.0596
     28 H2         -1.6460    1.3545   -2.1423 H         1 <0>         0.0590
     29 H3         -2.2566    1.2513   -0.4736 H         1 <0>         0.0617
     30 H4         -1.7263   -0.7468    0.9295 H         1 <0>         0.0559
     31 H5         -0.7378   -2.0671    0.2603 H         1 <0>         0.0749
     32 H6          0.0104   -0.4952    0.6313 H         1 <0>         0.0515
     33 H7         -2.6961   -0.8520   -2.6630 H         1 <0>         0.0551
     34 H8         -2.3183   -2.2755   -1.6634 H         1 <0>         0.0579
     35 H9         -3.3068   -0.9551   -0.9943 H         1 <0>         0.0624
     36 H10         0.3228    1.1988   -2.5744 H         1 <0>         0.1375
     37 H11         2.8957   -1.7150   -4.3860 H         1 <0>         0.1536
     38 H12        -1.0804   -3.5119   -2.0714 H         1 <0>         0.3854
     39 H13         3.8236   -3.4142   -3.8194 H         1 <0>         0.0579
     40 H14         3.2842   -5.0193   -4.3681 H         1 <0>         0.0635
     41 H15         2.6982   -3.5540   -5.1914 H         1 <0>         0.0587
     42 H16         1.3634   -4.4601   -1.2288 H         1 <0>         0.0758
     43 H17         2.5047   -5.5485   -2.0541 H         1 <0>         0.0560
     44 H18         3.0441   -3.9434   -1.5054 H         1 <0>         0.0512
     45 H19         0.3391   -4.2792   -4.8031 H         1 <0>         0.0553
     46 H20         0.9250   -5.7446   -3.9799 H         1 <0>         0.0627
     47 H21        -0.2163   -4.6562   -3.1545 H         1 <0>         0.0581
     48 H22         2.0264    1.9461   -4.2498 H         1 <0>         0.1421
     49 H23         4.2743   -1.1017   -3.9276 H         1 <0>         0.1183
     50 H24         4.0342   -1.2776   -5.6867 H         1 <0>         0.1012
     51 H25         6.2837    0.0608   -4.1816 H         1 <0>         0.0773
     52 H26         6.3657   -1.0714   -5.5445 H         1 <0>         0.0943
     53 H27         6.9035    1.8347   -7.7807 H         1 <0>         0.1352
     54 H28         8.1870   -0.6239   -6.3163 H         1 <0>         0.0996
     55 H29         8.8461    0.2037   -7.8269 H         1 <0>         0.1065
     56 H30         9.0495    2.3827   -6.5444 H         1 <0>         0.1055
     57 H31         8.3904    1.5551   -5.0337 H         1 <0>         0.1001
@<TRIPOS>BOND
     1    1    2 1
     2    1   27 1
     3    1   28 1
     4    1   29 1
     5    2    3 1
     6    2    4 1
     7    2    5 1
     8    3   30 1
     9    3   31 1
    10    3   32 1
    11    4   33 1
    12    4   34 1
    13    4   35 1
    14    5   10 ar
    15    5    6 ar
    16    6    7 ar
    17    6   36 1
    18    7    8 ar
    19    7   16 1
    20    8    9 ar
    21    8   37 1
    22    9   10 ar
    23    9   12 1
    24   10   11 1
    25   11   38 1
    26   12   13 1
    27   12   14 1
    28   12   15 1
    29   13   39 1
    30   13   40 1
    31   13   41 1
    32   14   42 1
    33   14   43 1
    34   14   44 1
    35   15   45 1
    36   15   46 1
    37   15   47 1
    38   16   17 2
    39   16   48 1
    40   17   21 1
    41   17   18 1
    42   18   19 1
    43   18   49 1
    44   18   50 1
    45   19   20 1
    46   19   51 1
    47   19   52 1
    48   20   21 1
    49   20   24 1
    50   21   22 2
    51   21   23 2
    52   24   26 1
    53   24   25 1
    54   24   53 1
    55   25   26 1
    56   25   54 1
    57   25   55 1
    58   26   56 1
    59   26   57 1
@<TRIPOS>MOLECULE
CHEMBL134342
   25    25     0     0     0
SMALL
USER_CHARGES

@<TRIPOS>ATOM
      1 C1         -0.0186    1.5216    0.0104 C.3       1 <0>        -0.1431
      2 C2          1.2815    2.3325    0.0023 C.3       1 <0>        -0.0514
      3 S1          2.5388    1.2528    0.8324 S.3       1 <0>        -0.2169
      4 S2          1.7599   -0.5564    0.1294 S.3       1 <0>        -0.1609
      5 C3          0.0021   -0.0041    0.0020 C.3       1 <0>        -0.0264
      6 H1         -0.5658   -0.3846    0.8510 H         1 <0>         0.1110
      7 C4         -0.6091   -0.5219   -1.3015 C.3       1 <0>        -0.1052
      8 C5         -0.6997   -2.0484   -1.2512 C.3       1 <0>        -0.1224
      9 C6         -1.3109   -2.5663   -2.5547 C.3       1 <0>        -0.0906
     10 C7         -1.4015   -4.0928   -2.5044 C.3       1 <0>        -0.1841
     11 C8         -2.0035   -4.6029   -3.7883 C.2       1 <0>         0.4878
     12 O1         -2.3298   -3.8182   -4.6625 O.co2     1 <0>        -0.7002
     13 O2         -2.1642   -5.8002   -3.9528 O.co2     1 <0>        -0.7085
     14 H2         -0.5824    1.8293    0.8911 H         1 <0>         0.0829
     15 H3         -0.5991    1.8387   -0.8560 H         1 <0>         0.0968
     16 H4          1.5859    2.5478   -1.0219 H         1 <0>         0.1009
     17 H5          1.1519    3.2593    0.5612 H         1 <0>         0.1206
     18 H6         -1.6074   -0.1026   -1.4265 H         1 <0>         0.0826
     19 H7          0.0184   -0.2227   -2.1410 H         1 <0>         0.0785
     20 H8          0.2986   -2.4677   -1.1262 H         1 <0>         0.0609
     21 H9         -1.3272   -2.3477   -0.4116 H         1 <0>         0.0588
     22 H10        -2.3092   -2.1470   -2.6796 H         1 <0>         0.0592
     23 H11        -0.6834   -2.2671   -3.3942 H         1 <0>         0.0599
     24 H12        -0.4031   -4.5121   -2.3794 H         1 <0>         0.0552
     25 H13        -2.0289   -4.3920   -1.6648 H         1 <0>         0.0546
@<TRIPOS>BOND
     1    1    5 1
     2    1    2 1
     3    1   14 1
     4    1   15 1
     5    2    3 1
     6    2   16 1
     7    2   17 1
     8    3    4 1
     9    4    5 1
    10    5    6 1
    11    5    7 1
    12    7    8 1
    13    7   18 1
    14    7   19 1
    15    8    9 1
    16    8   20 1
    17    8   21 1
    18    9   10 1
    19    9   22 1
    20    9   23 1
    21   10   11 1
    22   10   24 1
    23   10   25 1
    24   11   12 2
    25   11   13 1
@<TRIPOS>MOLECULE
CHEMBL17218
   47    48     0     0     0
SMALL
USER_CHARGES

@<TRIPOS>ATOM
      1 C1         -0.0187    1.5258    0.0104 C.3       1 <0>        -0.1407
      2 C2          0.0021   -0.0041    0.0020 C.3       1 <0>        -0.1161
      3 S1          0.8511   -0.5891   -1.4904 S.3       1 <0>         0.0517
      4 C3          0.7923   -2.3448   -1.3538 C.2       1 <0>        -0.0450
      5 N1          0.2551   -3.0886   -0.4008 N.2       1 <0>        -0.2997
      6 N2          0.2915   -4.3511   -0.4400 N.2       1 <0>        -0.1926
      7 C4          0.8863   -4.9436   -1.4678 C.2       1 <0>         0.0543
      8 S2          1.3995   -3.5124   -2.4073 S.3       1 <0>         0.2308
      9 C5          1.0675   -6.3801   -1.7568 C.ar      1 <0>         0.3952
     10 N3          1.7104   -6.7424   -2.8610 N.ar      1 <0>        -0.4857
     11 C6          1.8908   -8.0187   -3.1503 C.ar      1 <0>         0.1764
     12 C7          1.3973   -8.9875   -2.2809 C.ar      1 <0>         0.0302
     13 C8          0.7286   -8.5711   -1.1330 C.ar      1 <0>         0.1749
     14 N4          0.5884   -7.2778   -0.9033 N.ar      1 <0>        -0.4608
     15 C9          0.1767   -9.5829   -0.1620 C.3       1 <0>        -0.0155
     16 C10         1.3177  -10.4489    0.3757 C.3       1 <0>        -0.1424
     17 C11        -0.5034   -8.8563    1.0001 C.3       1 <0>        -0.1310
     18 C12        -0.8446  -10.4707   -0.8760 C.3       1 <0>        -0.1425
     19 O1          1.5642  -10.3100   -2.5469 O.3       1 <0>        -0.4676
     20 C13         2.6210   -8.4208   -4.4058 C.3       1 <0>        -0.0151
     21 C14         3.0502   -7.1667   -5.1700 C.3       1 <0>        -0.1320
     22 C15         3.8585   -9.2408   -4.0355 C.3       1 <0>        -0.1429
     23 C16         1.6958   -9.2630   -5.2864 C.3       1 <0>        -0.1430
     24 H1          1.0039    1.9031    0.0027 H         1 <0>         0.0689
     25 H2         -0.5459    1.8868   -0.8726 H         1 <0>         0.0689
     26 H3         -0.5289    1.8773    0.9072 H         1 <0>         0.0843
     27 H4          0.5293   -0.3651    0.8851 H         1 <0>         0.0997
     28 H5         -1.0205   -0.3814    0.0098 H         1 <0>         0.0997
     29 H6          2.0452   -9.8164    0.8843 H         1 <0>         0.0575
     30 H7          0.9185  -11.1807    1.0780 H         1 <0>         0.0737
     31 H8          1.8021  -10.9665   -0.4522 H         1 <0>         0.0596
     32 H9         -1.3162   -8.2393    0.6170 H         1 <0>         0.0627
     33 H10        -0.9025   -9.5880    1.7024 H         1 <0>         0.0588
     34 H11         0.2242   -8.2238    1.5087 H         1 <0>         0.0623
     35 H12        -0.3601  -10.9883   -1.7039 H         1 <0>         0.0762
     36 H13        -1.2438  -11.2024   -0.1737 H         1 <0>         0.0676
     37 H14        -1.6574   -9.8537   -1.2591 H         1 <0>         0.0544
     38 H15         2.3771  -10.6851   -2.1815 H         1 <0>         0.3903
     39 H16         3.7093   -6.5667   -4.5426 H         1 <0>         0.0613
     40 H17         3.5784   -7.4575   -6.0780 H         1 <0>         0.0605
     41 H18         2.1686   -6.5824   -5.4337 H         1 <0>         0.0620
     42 H19         3.5527  -10.1343   -3.4911 H         1 <0>         0.0601
     43 H20         4.3866   -9.5317   -4.9436 H         1 <0>         0.0739
     44 H21         4.5176   -8.6408   -3.4081 H         1 <0>         0.0577
     45 H22         0.8142   -8.6787   -5.5501 H         1 <0>         0.0546
     46 H23         2.2240   -9.5538   -6.1944 H         1 <0>         0.0677
     47 H24         1.3900  -10.1564   -4.7420 H         1 <0>         0.0767
@<TRIPOS>BOND
     1    1    2 1
     2    1   24 1
     3    1   25 1
     4    1   26 1
     5    2    3 1
     6    2   27 1
     7    2   28 1
     8    3    4 1
     9    4    8 1
    10    4    5 2
    11    5    6 1
    12    6    7 2
    13    7    8 1
    14    7    9 1
    15    9   14 ar
    16    9   10 ar
    17   10   11 ar
    18   11   12 ar
    19   11   20 1
    20   12   13 ar
    21   12   19 1
    22   13   14 ar
    23   13   15 1
    24   15   16 1
    25   15   17 1
    26   15   18 1
    27   16   29 1
    28   16   30 1
    29   16   31 1
    30   17   32 1
    31   17   33 1
    32   17   34 1
    33   18   35 1
    34   18   36 1
    35   18   37 1
    36   19   38 1
    37   20   21 1
    38   20   22 1
    39   20   23 1
    40   21   39 1
    41   21   40 1
    42   21   41 1
    43   22   42 1
    44   22   43 1
    45   22   44 1
    46   23   45 1
    47   23   46 1
    48   23   47 1
@<TRIPOS>MOLECULE
CHEMBL349370
   55    58     0     0     0
SMALL
USER_CHARGES

@<TRIPOS>ATOM
      1 C1         -0.5044   -2.8000   -1.5523 C.3       1 <0>         0.0198
      2 O1          0.7906   -2.2172   -1.7121 O.3       1 <0>        -0.3685
      3 C2          0.7835   -0.7890   -1.7587 C.3       1 <0>         0.1625
      4 C3          0.0810   -0.2392   -0.5135 C.3       1 <0>        -0.1841
      5 C4          0.8724   -0.6479    0.7317 C.3       1 <0>         0.0655
      6 O2          2.2114   -0.1604    0.6247 O.3       1 <0>        -0.3814
      7 C5          2.9330   -0.6777   -0.4950 C.3       1 <0>         0.0635
      8 C6          2.2244   -0.2702   -1.7894 C.3       1 <0>        -0.1372
      9 C7          0.0554   -0.3285   -2.9951 C.ar      1 <0>        -0.0480
     10 C8         -0.5446    0.9160   -3.0194 C.ar      1 <0>        -0.1536
     11 C9         -1.2146    1.3408   -4.1574 C.ar      1 <0>         0.1724
     12 C10        -1.2812    0.5149   -5.2698 C.ar      1 <0>        -0.2451
     13 C11        -0.6793   -0.7304   -5.2417 C.ar      1 <0>         0.1422
     14 C12        -0.0066   -1.1491   -4.1055 C.ar      1 <0>        -0.1783
     15 F1         -0.7431   -1.5361   -6.3243 F         1 <0>        -0.1346
     16 O3         -1.8055    2.5644   -4.1821 O.3       1 <0>        -0.2977
     17 C13        -2.4778    2.9359   -5.3871 C.3       1 <0>         0.1462
     18 C14        -3.0668    4.3140   -5.2292 C.2       1 <0>         0.0578
     19 C15        -2.9714    5.1146   -4.0908 C.2       1 <0>        -0.2101
     20 C16        -3.6322    6.2834   -4.3442 C.2       1 <0>         0.1291
     21 N1         -4.1245    6.2045   -5.6126 N.pl3     1 <0>        -0.6702
     22 N2         -3.7485    4.9622   -6.1394 N.2       1 <0>        -0.1948
     23 S1         -5.0049    7.3701   -6.3928 S.o2      1 <0>         2.6560
     24 O4         -6.3573    7.1922   -5.9946 O.2       1 <0>        -1.0496
     25 O5         -4.3108    8.5960   -6.2065 O.2       1 <0>        -1.0403
     26 N3         -4.9398    7.0308   -8.0123 N.2       1 <0>        -1.3143
     27 C17        -3.7850    7.4237   -3.4137 C.ar      1 <0>        -0.0298
     28 C18        -4.8538    8.3084   -3.5599 C.ar      1 <0>        -0.0853
     29 C19        -4.9912    9.3698   -2.6895 C.ar      1 <0>        -0.0979
     30 C20        -4.0707    9.5583   -1.6725 C.ar      1 <0>        -0.0263
     31 C21        -3.0077    8.6837   -1.5229 C.ar      1 <0>        -0.1120
     32 C22        -2.8640    7.6150   -2.3834 C.ar      1 <0>        -0.0737
     33 Cl1        -4.2496   10.8965   -0.5813 Cl        1 <0>        -0.0727
     34 H1         -0.9027   -2.5369   -0.5724 H         1 <0>         0.0457
     35 H2         -1.1706   -2.4233   -2.3284 H         1 <0>         0.0500
     36 H3         -0.4275   -3.8842   -1.6342 H         1 <0>         0.0876
     37 H4          0.0319    0.8481   -0.5732 H         1 <0>         0.0913
     38 H5         -0.9278   -0.6476   -0.4542 H         1 <0>         0.0836
     39 H6          0.4007   -0.2233    1.6178 H         1 <0>         0.0958
     40 H7          0.8867   -1.7348    0.8127 H         1 <0>         0.0553
     41 H8          3.9458   -0.2746   -0.4926 H         1 <0>         0.0963
     42 H9          2.9743   -1.7650   -0.4300 H         1 <0>         0.0599
     43 H10         2.7485   -0.7008   -2.6427 H         1 <0>         0.0857
     44 H11         2.2186    0.8165   -1.8749 H         1 <0>         0.0908
     45 H12        -0.4922    1.5577   -2.1523 H         1 <0>         0.1417
     46 H13        -1.8026    0.8434   -6.1567 H         1 <0>         0.1465
     47 H14         0.4666   -2.1197   -4.0858 H         1 <0>         0.1409
     48 H15        -1.7676    2.9368   -6.2139 H         1 <0>         0.0909
     49 H16        -3.2748    2.2216   -5.5935 H         1 <0>         0.0896
     50 H17        -2.4655    4.8563   -3.1723 H         1 <0>         0.1567
     51 H18        -5.3984    7.6036   -8.6467 H         1 <0>         0.3319
     52 H19        -5.5720    8.1627   -4.3532 H         1 <0>         0.1276
     53 H20        -5.8182   10.0553   -2.8018 H         1 <0>         0.1395
     54 H21        -2.2923    8.8359   -0.7283 H         1 <0>         0.1403
     55 H22        -2.0373    6.9306   -2.2628 H         1 <0>         0.1428
@<TRIPOS>BOND
     1    1    2 1
     2    1   34 1
     3    1   35 1
     4    1   36 1
     5    2    3 1
     6    3    8 1
     7    3    4 1
     8    3    9 1
     9    4    5 1
    10    4   37 1
    11    4   38 1
    12    5    6 1
    13    5   39 1
    14    5   40 1
    15    6    7 1
    16    7    8 1
    17    7   41 1
    18    7   42 1
    19    8   43 1
    20    8   44 1
    21    9   14 ar
    22    9   10 ar
    23   10   11 ar
    24   10   45 1
    25   11   12 ar
    26   11   16 1
    27   12   13 ar
    28   12   46 1
    29   13   14 ar
    30   13   15 1
    31   14   47 1
    32   16   17 1
    33   17   18 1
    34   17   48 1
    35   17   49 1
    36   18   22 2
    37   18   19 1
    38   19   20 2
    39   19   50 1
    40   20   21 1
    41   20   27 1
    42   21   22 1
    43   21   23 1
    44   23   24 2
    45   23   25 2
    46   23   26 1
    47   26   51 1
    48   27   32 ar
    49   27   28 ar
    50   28   29 ar
    51   28   52 1
    52   29   30 ar
    53   29   53 1
    54   30   31 ar
    55   30   33 1
    56   31   32 ar
    57   31   54 1
    58   32   55 1
@<TRIPOS>MOLECULE
CHEMBL349370__1
   56    59     0     0     0
SMALL
USER_CHARGES

@<TRIPOS>ATOM
      1 C1         -3.7405   -2.6458   -0.0353 C.3       1 <0>         0.0171
      2 O1         -2.3229   -2.4728   -0.0859 O.3       1 <0>        -0.3658
      3 C2         -1.9098   -1.1245   -0.3168 C.3       1 <0>         0.1586
      4 C3         -2.5366   -0.2086    0.7389 C.3       1 <0>        -0.1822
      5 C4         -2.0200   -0.6099    2.1230 C.3       1 <0>         0.0639
      6 O2         -0.5932   -0.5312    2.1387 O.3       1 <0>        -0.3794
      7 C5          0.0493   -1.4012    1.2047 C.3       1 <0>         0.0620
      8 C6         -0.3841   -1.0317   -0.2163 C.3       1 <0>        -0.1370
      9 C7         -2.3520   -0.6900   -1.6904 C.ar      1 <0>        -0.0403
     10 C8         -2.4652    0.6551   -1.9855 C.ar      1 <0>        -0.1422
     11 C9         -2.8717    1.0559   -3.2499 C.ar      1 <0>         0.1568
     12 C10        -3.1640    0.1049   -4.2164 C.ar      1 <0>        -0.2448
     13 C11        -3.0494   -1.2409   -3.9171 C.ar      1 <0>         0.1458
     14 C12        -2.6382   -1.6373   -2.6551 C.ar      1 <0>        -0.1664
     15 F1         -3.3337   -2.1685   -4.8572 F         1 <0>        -0.1292
     16 O3         -2.9839    2.3786   -3.5410 O.3       1 <0>        -0.2920
     17 C13        -3.4077    2.7183   -4.8628 C.3       1 <0>         0.1053
     18 C14        -3.4735    4.2176   -4.9995 C.2       1 <0>         0.2336
     19 C15        -3.1650    5.1405   -3.9999 C.2       1 <0>        -0.2199
     20 C16        -3.3486    6.3927   -4.5149 C.2       1 <0>         0.3076
     21 N1         -3.7618    6.2442   -5.8052 N.pl3     1 <0>        -0.6319
     22 N2         -3.8244    4.8716   -6.0776 N.pl3     1 <0>        -0.3518
     23 S1         -4.1205    7.4671   -6.8626 S.o2      1 <0>         2.5954
     24 O4         -3.1382    8.4750   -6.6663 O.2       1 <0>        -0.9835
     25 O5         -4.3451    6.8582   -8.1267 O.2       1 <0>        -1.0091
     26 N3         -5.5673    8.1173   -6.3867 N.2       1 <0>        -1.2823
     27 C17        -3.1379    7.6729   -3.8035 C.ar      1 <0>        -0.1094
     28 C18        -3.7392    8.8414   -4.2718 C.ar      1 <0>        -0.0480
     29 C19        -3.5392   10.0321   -3.6045 C.ar      1 <0>        -0.1139
     30 C20        -2.7430   10.0691   -2.4723 C.ar      1 <0>         0.0099
     31 C21        -2.1433    8.9126   -2.0033 C.ar      1 <0>        -0.1310
     32 C22        -2.3417    7.7149   -2.6587 C.ar      1 <0>        -0.0434
     33 Cl1        -2.4953   11.5712   -1.6381 Cl        1 <0>        -0.0532
     34 H1         -4.1370   -2.1406    0.8454 H         1 <0>         0.0483
     35 H2         -4.1907   -2.2199   -0.9319 H         1 <0>         0.0485
     36 H3         -3.9751   -3.7089    0.0193 H         1 <0>         0.0915
     37 H4         -2.2615    0.8259    0.5333 H         1 <0>         0.0896
     38 H5         -3.6215   -0.3103    0.7115 H         1 <0>         0.0838
     39 H6         -2.4296    0.0658    2.8739 H         1 <0>         0.0980
     40 H7         -2.3303   -1.6310    2.3448 H         1 <0>         0.0574
     41 H8          1.1305   -1.2955    1.2939 H         1 <0>         0.0987
     42 H9         -0.2338   -2.4327    1.4144 H         1 <0>         0.0621
     43 H10         0.0703   -1.7220   -0.9269 H         1 <0>         0.0865
     44 H11        -0.0655   -0.0138   -0.4413 H         1 <0>         0.0901
     45 H12        -2.2376    1.3944   -1.2318 H         1 <0>         0.1464
     46 H13        -3.4810    0.4146   -5.2012 H         1 <0>         0.1432
     47 H14        -2.5450   -2.6881   -2.4236 H         1 <0>         0.1480
     48 H15        -2.6971    2.3183   -5.5862 H         1 <0>         0.1193
     49 H16        -4.3938    2.2928   -5.0488 H         1 <0>         0.1205
     50 H17        -2.8392    4.9068   -2.9971 H         1 <0>         0.2049
     51 H18        -5.9543    8.8550   -6.8835 H         1 <0>         0.3589
     52 H19        -4.3599    8.8139   -5.1552 H         1 <0>         0.1866
     53 H20        -4.0043   10.9373   -3.9661 H         1 <0>         0.1470
     54 H21        -1.5226    8.9473   -1.1201 H         1 <0>         0.1477
     55 H22        -1.8773    6.8126   -2.2892 H         1 <0>         0.1457
     56 H23        -4.0859    4.4730   -6.9223 H         1 <0>         0.4779
@<TRIPOS>BOND
     1    1    2 1
     2    1   34 1
     3    1   35 1
     4    1   36 1
     5    2    3 1
     6    3    8 1
     7    3    4 1
     8    3    9 1
     9    4    5 1
    10    4   37 1
    11    4   38 1
    12    5    6 1
    13    5   39 1
    14    5   40 1
    15    6    7 1
    16    7    8 1
    17    7   41 1
    18    7   42 1
    19    8   43 1
    20    8   44 1
    21    9   14 ar
    22    9   10 ar
    23   10   11 ar
    24   10   45 1
    25   11   12 ar
    26   11   16 1
    27   12   13 ar
    28   12   46 1
    29   13   14 ar
    30   13   15 1
    31   14   47 1
    32   16   17 1
    33   17   18 1
    34   17   48 1
    35   17   49 1
    36   18   22 2
    37   18   19 1
    38   19   20 2
    39   19   50 1
    40   20   21 1
    41   20   27 1
    42   21   22 1
    43   21   23 1
    44   22   56 1
    45   23   24 2
    46   23   25 2
    47   23   26 1
    48   26   51 1
    49   27   32 ar
    50   27   28 ar
    51   28   29 ar
    52   28   52 1
    53   29   30 ar
    54   29   53 1
    55   30   31 ar
    56   30   33 1
    57   31   32 ar
    58   31   54 1
    59   32   55 1
@<TRIPOS>MOLECULE
CHEMBL361055
   37    39     0     0     0
SMALL
USER_CHARGES

@<TRIPOS>ATOM
      1 C1          0.2601    1.5038   -0.0290 C.3       1 <0>        -0.1084
      2 C2          0.1234    0.0031   -0.0128 C.2       1 <0>         0.1571
      3 C3         -0.0891   -0.7787   -1.1127 C.2       1 <0>        -0.2608
      4 C4         -0.1561   -2.1701   -0.6287 C.ar      1 <0>        -0.0218
      5 C5         -0.3498   -3.4017   -1.2489 C.ar      1 <0>        -0.0940
      6 C6         -0.3604   -4.5526   -0.4916 C.ar      1 <0>        -0.0500
      7 C7         -0.1797   -4.4879    0.8825 C.ar      1 <0>        -0.6424
      8 C8          0.0124   -3.2759    1.5089 C.ar      1 <0>        -0.0116
      9 C9          0.0273   -2.1028    0.7615 C.ar      1 <0>         0.0686
     10 N1          0.1984   -0.7741    1.0931 N.pl3     1 <0>        -0.5741
     11 H1          0.3485   -0.4434    1.9925 H         1 <0>         0.4241
     12 S1         -0.1967   -5.9698    1.8356 S.o2      1 <0>         2.5030
     13 O1         -0.6039   -5.5610    3.1342 O.2       1 <0>        -0.9387
     14 O2         -0.9876   -6.8774    1.0806 O.2       1 <0>        -0.9334
     15 C10         1.5305   -6.5233    1.8677 C.3       1 <0>        -0.6501
     16 C11        -0.2241   -0.3237   -2.5017 C.2       1 <0>         0.4811
     17 O3         -1.3244   -0.0654   -2.9532 O.2       1 <0>        -0.4351
     18 C12         0.9759   -0.1794   -3.3518 C.ar      1 <0>        -0.1753
     19 C13         2.2248   -0.5852   -2.8760 C.ar      1 <0>        -0.0330
     20 C14         3.3408   -0.4487   -3.6733 C.ar      1 <0>        -0.1681
     21 C15         3.2253    0.0906   -4.9456 C.ar      1 <0>         0.1335
     22 C16         1.9879    0.4954   -5.4228 C.ar      1 <0>        -0.1662
     23 C17         0.8644    0.3578   -4.6363 C.ar      1 <0>        -0.0310
     24 F1          4.3224    0.2225   -5.7228 F         1 <0>        -0.1319
     25 H2          1.3129    1.7718   -0.1174 H         1 <0>         0.0916
     26 H3         -0.2906    1.9097   -0.8775 H         1 <0>         0.0906
     27 H4         -0.1432    1.9153    0.8963 H         1 <0>         0.0828
     28 H5         -0.4913   -3.4545   -2.3183 H         1 <0>         0.1331
     29 H6         -0.5103   -5.5094   -0.9696 H         1 <0>         0.1463
     30 H7          0.1514   -3.2366    2.5792 H         1 <0>         0.1443
     31 H8          2.1499   -5.7542    2.3291 H         1 <0>         0.1306
     32 H9          1.6059   -7.4451    2.4444 H         1 <0>         0.1336
     33 H10         1.8733   -6.7031    0.8487 H         1 <0>         0.1329
     34 H11         2.3160   -1.0047   -1.8850 H         1 <0>         0.1399
     35 H12         4.3070   -0.7621   -3.3064 H         1 <0>         0.1425
     36 H13         1.9036    0.9152   -6.4144 H         1 <0>         0.1445
     37 H14        -0.0996    0.6690   -5.0108 H         1 <0>         0.1458
@<TRIPOS>BOND
     1    1    2 1
     2    1   25 1
     3    1   26 1
     4    1   27 1
     5    2   10 1
     6    2    3 2
     7    3    4 1
     8    3   16 1
     9    4    9 ar
    10    4    5 ar
    11    5    6 ar
    12    5   28 1
    13    6    7 ar
    14    6   29 1
    15    7    8 ar
    16    7   12 1
    17    8    9 ar
    18    8   30 1
    19    9   10 1
    20   10   11 1
    21   12   13 2
    22   12   14 2
    23   12   15 1
    24   15   31 1
    25   15   32 1
    26   15   33 1
    27   16   17 2
    28   16   18 1
    29   18   23 ar
    30   18   19 ar
    31   19   20 ar
    32   19   34 1
    33   20   21 ar
    34   20   35 1
    35   21   22 ar
    36   21   24 1
    37   22   23 ar
    38   22   36 1
    39   23   37 1
@<TRIPOS>MOLECULE
CHEMBL117306
   33    35     0     0     0
SMALL
USER_CHARGES

@<TRIPOS>ATOM
      1 C1         -0.0168    1.3841    0.0097 C.ar      1 <0>        -0.1327
      2 C2          1.1707    2.0895    0.0021 C.ar      1 <0>         0.0039
      3 C3          2.3774    1.4145   -0.0130 C.ar      1 <0>        -0.6698
      4 C4          2.3994    0.0319   -0.0211 C.ar      1 <0>         0.0045
      5 C5          1.2152   -0.6790   -0.0137 C.ar      1 <0>        -0.1301
      6 C6          0.0021   -0.0041    0.0020 C.ar      1 <0>         0.1713
      7 N1         -1.2013   -0.7227    0.0096 N.pl3     1 <0>        -0.4151
      8 C7         -2.2495   -0.5355    0.8531 C.2       1 <0>         0.2325
      9 N2         -3.1898   -1.3920    0.5555 N.2       1 <0>        -0.4656
     10 C8         -2.7963   -2.1535   -0.4723 C.2       1 <0>         0.0847
     11 C9         -1.5491   -1.7510   -0.8419 C.2       1 <0>         0.0406
     12 C10        -0.7279   -2.3084   -1.9378 C.ar      1 <0>        -0.0788
     13 C11        -0.6191   -3.6935   -2.1118 C.ar      1 <0>        -0.0323
     14 C12         0.1608   -4.1645   -3.1522 C.ar      1 <0>        -0.1467
     15 C13         0.8034   -3.2597   -3.9811 C.ar      1 <0>         0.1836
     16 N3          0.6826   -1.9589   -3.7924 N.ar      1 <0>        -0.4681
     17 C14        -0.0535   -1.4630   -2.8189 C.ar      1 <0>         0.1428
     18 Cl1         1.7836   -3.8458   -5.2885 Cl        1 <0>        -0.0172
     19 Cl2        -3.7175   -3.4268   -1.2097 Cl        1 <0>         0.0092
     20 S1          3.8902    2.3179   -0.0226 S.o2      1 <0>         2.7016
     21 O1          4.8720    1.4600   -0.5875 O.2       1 <0>        -0.9550
     22 O2          3.5951    3.5983   -0.5638 O.2       1 <0>        -0.9554
     23 N4          4.3256    2.5605    1.5566 N.pl3     1 <0>        -1.2484
     24 H1         -0.9589    1.9119    0.0260 H         1 <0>         0.1490
     25 H2          1.1567    3.1694    0.0077 H         1 <0>         0.1588
     26 H3          3.3434   -0.4925   -0.0337 H         1 <0>         0.1562
     27 H4          1.2330   -1.7588   -0.0203 H         1 <0>         0.1410
     28 H5         -2.2975    0.2012    1.6414 H         1 <0>         0.2265
     29 H6         -1.1310   -4.3766   -1.4502 H         1 <0>         0.1520
     30 H7          0.2680   -5.2265   -3.3165 H         1 <0>         0.1561
     31 H8         -0.1320   -0.3925   -2.6993 H         1 <0>         0.1599
     32 H9          3.7666    2.2187    2.2718 H         1 <0>         0.4172
     33 H10         5.1398    3.0443    1.7663 H         1 <0>         0.4239
@<TRIPOS>BOND
     1    1    6 ar
     2    1    2 ar
     3    1   24 1
     4    2    3 ar
     5    2   25 1
     6    3    4 ar
     7    3   20 1
     8    4    5 ar
     9    4   26 1
    10    5    6 ar
    11    5   27 1
    12    6    7 1
    13    7   11 1
    14    7    8 1
    15    8    9 2
    16    8   28 1
    17    9   10 1
    18   10   11 2
    19   10   19 1
    20   11   12 1
    21   12   17 ar
    22   12   13 ar
    23   13   14 ar
    24   13   29 1
    25   14   15 ar
    26   14   30 1
    27   15   16 ar
    28   15   18 1
    29   16   17 ar
    30   17   31 1
    31   20   21 2
    32   20   22 2
    33   20   23 1
    34   23   32 1
    35   23   33 1
@<TRIPOS>MOLECULE
CHEMBL139
   29    30     0     0     0
SMALL
USER_CHARGES

@<TRIPOS>ATOM
      1 C1         -0.1806    1.0357    0.2000 C.ar      1 <0>        -0.1222
      2 C2          0.9245    1.8481    0.0217 C.ar      1 <0>        -0.1361
      3 C3          2.1862    1.2928   -0.0570 C.ar      1 <0>        -0.1180
      4 C4          2.3450   -0.0840    0.0433 C.ar      1 <0>         0.1573
      5 C5          1.2329   -0.8970    0.2224 C.ar      1 <0>        -0.0156
      6 C6         -0.0262   -0.3347    0.3002 C.ar      1 <0>        -0.1119
      7 C7          1.4001   -2.3907    0.3312 C.3       1 <0>        -0.1565
      8 C8          1.7182   -2.7580    1.7577 C.2       1 <0>         0.5052
      9 O1          1.8014   -1.8875    2.6073 O.co2     1 <0>        -0.6883
     10 O2          1.8923   -3.9257    2.0622 O.co2     1 <0>        -0.7010
     11 N1          3.6199   -0.6493   -0.0363 N.pl3     1 <0>        -0.6799
     12 C9          3.9705   -1.4310   -1.1417 C.ar      1 <0>         0.2371
     13 C10         3.3529   -1.2194   -2.3686 C.ar      1 <0>        -0.0923
     14 C11         3.7019   -1.9940   -3.4588 C.ar      1 <0>        -0.0712
     15 C12         4.6640   -2.9789   -3.3298 C.ar      1 <0>        -0.1540
     16 C13         5.2803   -3.1928   -2.1105 C.ar      1 <0>        -0.0674
     17 C14         4.9413   -2.4177   -1.0174 C.ar      1 <0>        -0.0897
     18 Cl1         5.7217   -2.6815    0.5107 Cl        1 <0>        -0.0512
     19 Cl2         2.1442    0.0160   -2.5315 Cl        1 <0>        -0.0473
     20 H1         -1.1659    1.4731    0.2657 H         1 <0>         0.1132
     21 H2          0.8003    2.9181   -0.0565 H         1 <0>         0.1137
     22 H3          3.0486    1.9277   -0.1966 H         1 <0>         0.1147
     23 H4         -0.8913   -0.9662    0.4394 H         1 <0>         0.1149
     24 H5          0.4765   -2.8828    0.0266 H         1 <0>         0.0630
     25 H6          2.2146   -2.7133   -0.3173 H         1 <0>         0.0663
     26 H7          4.2621   -0.4997    0.6751 H         1 <0>         0.4125
     27 H8          3.2224   -1.8301   -4.4125 H         1 <0>         0.1341
     28 H9          4.9344   -3.5828   -4.1833 H         1 <0>         0.1345
     29 H10         6.0307   -3.9634   -2.0133 H         1 <0>         0.1361
@<TRIPOS>BOND
     1    1    6 ar
     2    1    2 ar
     3    1   20 1
     4    2    3 ar
     5    2   21 1
     6    3    4 ar
     7    3   22 1
     8    4    5 ar
     9    4   11 1
    10    5    6 ar
    11    5    7 1
    12    6   23 1
    13    7    8 1
    14    7   24 1
    15    7   25 1
    16    8    9 2
    17    8   10 1
    18   11   12 1
    19   11   26 1
    20   12   17 ar
    21   12   13 ar
    22   13   14 ar
    23   13   19 1
    24   14   15 ar
    25   14   27 1
    26   15   16 ar
    27   15   28 1
    28   16   17 ar
    29   16   29 1
    30   17   18 1
@<TRIPOS>MOLECULE
CHEMBL1204023
   36    37     0     0     0
SMALL
USER_CHARGES

@<TRIPOS>ATOM
      1 C1         -0.0168    1.3877    0.0097 C.ar      1 <0>        -0.2791
      2 C2          1.1800    2.0765    0.0019 C.ar      1 <0>         0.0865
      3 N1          2.3325    1.4350   -0.0129 N.ar      1 <0>        -0.5160
      4 C3          2.3979    0.1162   -0.0207 C.ar      1 <0>         0.0246
      5 C4          1.2446   -0.6497   -0.0138 C.ar      1 <0>         0.1273
      6 C5          0.0021   -0.0041    0.0020 C.ar      1 <0>         0.2512
      7 N2         -1.1852   -0.7363    0.0099 N.2       1 <0>        -1.0589
      8 S1         -2.6427    0.0497    0.0286 S.o2      1 <0>         2.5117
      9 O1         -2.6634    0.7458    1.2672 O.2       1 <0>        -0.9564
     10 O2         -2.6879    0.7591   -1.2019 O.2       1 <0>        -0.9563
     11 C6         -3.8851   -1.2720    0.0338 C.3       1 <0>        -0.0082
     12 F1         -3.7127   -2.0696    1.1702 F         1 <0>        -0.1652
     13 F2         -5.1655   -0.7083    0.0495 F         1 <0>        -0.1842
     14 F3         -3.7354   -2.0573   -1.1142 F         1 <0>        -0.1652
     15 N3          1.3194   -2.0483   -0.0225 N.pl3     1 <0>        -0.7332
     16 C7          2.6254   -2.7119   -0.0390 C.3       1 <0>         0.1586
     17 C8          3.1230   -2.8226   -1.4816 C.3       1 <0>        -0.1365
     18 C9          4.4869   -3.5156   -1.4989 C.3       1 <0>        -0.1168
     19 C10         4.3553   -4.9156   -0.8959 C.3       1 <0>        -0.1200
     20 C11         3.8577   -4.8049    0.5467 C.3       1 <0>        -0.1142
     21 C12         2.4938   -4.1119    0.5639 C.3       1 <0>        -0.1257
     22 H1         -0.9553    1.9219    0.0260 H         1 <0>         0.1078
     23 H2          1.1723    3.1565    0.0078 H         1 <0>         0.1341
     24 H3          3.3620   -0.3705   -0.0329 H         1 <0>         0.1360
     25 H4          0.5065   -2.5775   -0.0176 H         1 <0>         0.4063
     26 H5          3.3364   -2.1293    0.5468 H         1 <0>         0.0708
     27 H6          2.4120   -3.4051   -2.0675 H         1 <0>         0.0622
     28 H7          3.2168   -1.8252   -1.9112 H         1 <0>         0.0663
     29 H8          4.8414   -3.5945   -2.5266 H         1 <0>         0.0588
     30 H9          5.1979   -2.9331   -0.9130 H         1 <0>         0.0613
     31 H10         3.6443   -5.4982   -1.4818 H         1 <0>         0.0602
     32 H11         5.3270   -5.4094   -0.9082 H         1 <0>         0.0575
     33 H12         3.7639   -5.8023    0.9762 H         1 <0>         0.0606
     34 H13         4.5687   -4.2224    1.1325 H         1 <0>         0.0624
     35 H14         2.1393   -4.0330    1.5917 H         1 <0>         0.0670
     36 H15         1.7828   -4.6944   -0.0219 H         1 <0>         0.0648
@<TRIPOS>BOND
     1    1    6 ar
     2    1    2 ar
     3    1   22 1
     4    2    3 ar
     5    2   23 1
     6    3    4 ar
     7    4    5 ar
     8    4   24 1
     9    5    6 ar
    10    5   15 1
    11    6    7 1
    12    7    8 1
    13    8    9 2
    14    8   10 2
    15    8   11 1
    16   11   12 1
    17   11   13 1
    18   11   14 1
    19   15   16 1
    20   15   25 1
    21   16   21 1
    22   16   17 1
    23   16   26 1
    24   17   18 1
    25   17   27 1
    26   17   28 1
    27   18   19 1
    28   18   29 1
    29   18   30 1
    30   19   20 1
    31   19   31 1
    32   19   32 1
    33   20   21 1
    34   20   33 1
    35   20   34 1
    36   21   35 1
    37   21   36 1
@<TRIPOS>MOLECULE
CHEMBL1204023__1
   36    37     0     0     0
SMALL
USER_CHARGES

@<TRIPOS>ATOM
      1 C1         -0.0172    1.4181    0.0098 C.2       1 <0>        -0.3349
      2 C2          1.1487    2.0917    0.0023 C.2       1 <0>         0.1149
      3 N1          2.3417    1.4432   -0.0130 N.2       1 <0>        -0.5538
      4 C3          2.4277    0.0805   -0.0212 C.2       1 <0>         0.0240
      5 C4          1.3090   -0.6786   -0.0141 C.2       1 <0>         0.0999
      6 C5          0.0021   -0.0041    0.0020 C.2       1 <0>         0.3082
      7 N2         -1.1230   -0.7000    0.0095 N.2       1 <0>        -1.0435
      8 S1         -2.5815    0.0840    0.0281 S.o2      1 <0>         2.5259
      9 O1         -2.6031    0.7801    1.2668 O.2       1 <0>        -0.9446
     10 O2         -2.6277    0.7933   -1.2023 O.2       1 <0>        -0.9444
     11 C6         -3.8221   -1.2394    0.0334 C.3       1 <0>        -0.0095
     12 F1         -3.6487   -2.0367    1.1697 F         1 <0>        -0.1636
     13 F2         -5.1033   -0.6775    0.0491 F         1 <0>        -0.1813
     14 F3         -3.6713   -2.0245   -1.1147 F         1 <0>        -0.1637
     15 N3          1.3929   -2.0794   -0.0229 N.pl3     1 <0>        -0.7404
     16 C7          2.7031   -2.7347   -0.0399 C.3       1 <0>         0.1623
     17 C8          3.2008   -2.8422   -1.4827 C.3       1 <0>        -0.1367
     18 C9          4.5692   -3.5265   -1.5005 C.3       1 <0>        -0.1169
     19 C10         4.4466   -4.9274   -0.8975 C.3       1 <0>        -0.1197
     20 C11         3.9489   -4.8199    0.5452 C.3       1 <0>        -0.1143
     21 C12         2.5806   -4.1355    0.5630 C.3       1 <0>        -0.1254
     22 H1         -0.9561    1.9515    0.0261 H         1 <0>         0.1056
     23 H2          1.1348    3.1716    0.0083 H         1 <0>         0.1292
     24 H3          3.3974   -0.3948   -0.0337 H         1 <0>         0.1332
     25 H4          0.5834   -2.6138   -0.0178 H         1 <0>         0.4016
     26 H5          3.4105   -2.1477    0.5457 H         1 <0>         0.0699
     27 H6          2.4934   -3.4292   -2.0684 H         1 <0>         0.0612
     28 H7          3.2881   -1.8442   -1.9123 H         1 <0>         0.0664
     29 H8          4.9238   -3.6031   -2.5283 H         1 <0>         0.0585
     30 H9          5.2766   -2.9395   -0.9148 H         1 <0>         0.0612
     31 H10         3.7392   -5.5144   -1.4832 H         1 <0>         0.0599
     32 H11         5.4215   -5.4149   -0.9102 H         1 <0>         0.0573
     33 H12         3.8616   -5.8178    0.9748 H         1 <0>         0.0603
     34 H13         4.6563   -4.2328    1.1309 H         1 <0>         0.0624
     35 H14         2.2259   -4.0589    1.5909 H         1 <0>         0.0665
     36 H15         1.8731   -4.7226   -0.0226 H         1 <0>         0.0640
@<TRIPOS>BOND
     1    1    6 1
     2    1    2 2
     3    1   22 1
     4    2    3 1
     5    2   23 1
     6    3    4 1
     7    4    5 2
     8    4   24 1
     9    5    6 1
    10    5   15 1
    11    6    7 2
    12    7    8 1
    13    8    9 2
    14    8   10 2
    15    8   11 1
    16   11   12 1
    17   11   13 1
    18   11   14 1
    19   15   16 1
    20   15   25 1
    21   16   21 1
    22   16   17 1
    23   16   26 1
    24   17   18 1
    25   17   27 1
    26   17   28 1
    27   18   19 1
    28   18   29 1
    29   18   30 1
    30   19   20 1
    31   19   31 1
    32   19   32 1
    33   20   21 1
    34   20   33 1
    35   20   34 1
    36   21   35 1
    37   21   36 1
@<TRIPOS>MOLECULE
CHEMBL1204023__2
   37    38     0     0     0
SMALL
USER_CHARGES

@<TRIPOS>ATOM
      1 C1         -0.0172    1.4181    0.0098 C.2       1 <0>        -0.3158
      2 C2          1.1487    2.0917    0.0023 C.2       1 <0>         0.1878
      3 N1          2.3417    1.4432   -0.0130 N.pl3     1 <0>        -0.5514
      4 C3          2.4277    0.0805   -0.0216 C.2       1 <0>        -0.0062
      5 C4          1.3090   -0.6786   -0.0146 C.2       1 <0>         0.1665
      6 C5          0.0021   -0.0041    0.0020 C.2       1 <0>         0.3819
      7 N2         -1.1230   -0.7000    0.0095 N.2       1 <0>        -1.0015
      8 S1         -2.5815    0.0840    0.0281 S.o2      1 <0>         2.5487
      9 O1         -2.6031    0.7801    1.2668 O.2       1 <0>        -0.9165
     10 O2         -2.6277    0.7933   -1.2023 O.2       1 <0>        -0.9164
     11 C6         -3.8221   -1.2394    0.0334 C.3       1 <0>        -0.0028
     12 F1         -3.6487   -2.0367    1.1697 F         1 <0>        -0.1569
     13 F2         -5.1033   -0.6775    0.0491 F         1 <0>        -0.1662
     14 F3         -3.6713   -2.0245   -1.1147 F         1 <0>        -0.1569
     15 N3          1.3929   -2.0794   -0.0239 N.pl3     1 <0>        -0.7184
     16 C7          2.7031   -2.7347   -0.0413 C.3       1 <0>         0.1505
     17 C8          3.2005   -2.8417   -1.4842 C.3       1 <0>        -0.1377
     18 C9          4.5688   -3.5261   -1.5025 C.3       1 <0>        -0.1178
     19 C10         4.4465   -4.9271   -0.9000 C.3       1 <0>        -0.1244
     20 C11         3.9490   -4.8200    0.5429 C.3       1 <0>        -0.1157
     21 C12         2.5807   -4.1357    0.5612 C.3       1 <0>        -0.1277
     22 H1         -0.9561    1.9515    0.0261 H         1 <0>         0.1502
     23 H2          1.1348    3.1716    0.0083 H         1 <0>         0.1804
     24 H3          3.3974   -0.3948   -0.0345 H         1 <0>         0.1749
     25 H4          0.5834   -2.6138   -0.0187 H         1 <0>         0.4174
     26 H5          3.4106   -2.1478    0.5443 H         1 <0>         0.0781
     27 H6          2.4930   -3.4286   -2.0699 H         1 <0>         0.0701
     28 H7          3.2877   -1.8436   -1.9135 H         1 <0>         0.0651
     29 H8          4.9233   -3.6023   -2.5304 H         1 <0>         0.0658
     30 H9          5.2764   -2.9392   -0.9168 H         1 <0>         0.0625
     31 H10         3.7389   -5.5139   -1.4856 H         1 <0>         0.0639
     32 H11         5.4213   -5.4146   -0.9130 H         1 <0>         0.0644
     33 H12         3.8618   -5.8182    0.9722 H         1 <0>         0.0682
     34 H13         4.6566   -4.2332    1.1286 H         1 <0>         0.0645
     35 H14         2.2263   -4.0595    1.5891 H         1 <0>         0.0717
     36 H15         1.8731   -4.7226   -0.0245 H         1 <0>         0.0709
     37 H16         3.1594    1.9650   -0.0183 H         1 <0>         0.4288
@<TRIPOS>BOND
     1    1    6 1
     2    1    2 2
     3    1   22 1
     4    2    3 1
     5    2   23 1
     6    3    4 1
     7    3   37 1
     8    4    5 2
     9    4   24 1
    10    5    6 1
    11    5   15 1
    12    6    7 2
    13    7    8 1
    14    8    9 2
    15    8   10 2
    16    8   11 1
    17   11   12 1
    18   11   13 1
    19   11   14 1
    20   15   16 1
    21   15   25 1
    22   16   21 1
    23   16   17 1
    24   16   26 1
    25   17   18 1
    26   17   27 1
    27   17   28 1
    28   18   19 1
    29   18   29 1
    30   18   30 1
    31   19   20 1
    32   19   31 1
    33   19   32 1
    34   20   21 1
    35   20   33 1
    36   20   34 1
    37   21   35 1
    38   21   36 1
@<TRIPOS>MOLECULE
CHEMBL70411
   55    57     0     0     0
SMALL
USER_CHARGES

@<TRIPOS>ATOM
      1 C1         -0.1934    1.1826    0.8683 C.3       1 <0>        -0.1281
      2 C2         -0.0607   -0.2905    0.5793 C.ar      1 <0>        -0.0009
      3 C3          1.0099   -0.7543   -0.1475 C.ar      1 <0>        -0.1357
      4 C4          1.1323   -2.1139   -0.4136 C.ar      1 <0>         0.1605
      5 C5          0.1734   -3.0041    0.0544 C.ar      1 <0>        -0.1018
      6 C6         -0.8968   -2.5527    0.7791 C.ar      1 <0>        -0.0213
      7 C7         -1.0288   -1.1903    1.0580 C.ar      1 <0>        -0.2054
      8 C8         -2.2409   -0.9381    1.8492 C.2       1 <0>         0.4093
      9 O1         -2.6235    0.1449    2.2391 O.2       1 <0>        -0.4478
     10 C9         -2.9274   -2.2599    2.0930 C.3       1 <0>        -0.1720
     11 C10        -2.0542   -3.3075    1.3887 C.3       1 <0>        -0.0846
     12 C11         0.3122   -4.4759   -0.2382 C.3       1 <0>        -0.0028
     13 C12         1.6764   -4.7424   -0.8776 C.3       1 <0>        -0.1028
     14 C13         1.8805   -6.2507   -1.0339 C.3       1 <0>        -0.1251
     15 C14         3.2447   -6.5172   -1.6733 C.3       1 <0>        -0.1165
     16 C15         3.4488   -8.0254   -1.8296 C.3       1 <0>        -0.0927
     17 C16         4.8130   -8.2919   -2.4690 C.3       1 <0>        -0.1832
     18 C17         5.0140   -9.7775   -2.6229 C.2       1 <0>         0.4868
     19 O2          4.1465  -10.5513   -2.2553 O.co2     1 <0>        -0.6999
     20 O3          6.0441  -10.2055   -3.1151 O.co2     1 <0>        -0.7102
     21 C18        -0.7788   -4.9049   -1.1852 C.ar      1 <0>        -0.0743
     22 C19        -0.9373   -4.2561   -2.3956 C.ar      1 <0>        -0.0767
     23 C20        -1.9371   -4.6489   -3.2650 C.ar      1 <0>        -0.1518
     24 C21        -2.7804   -5.6927   -2.9234 C.ar      1 <0>         0.0927
     25 C22        -2.6207   -6.3417   -1.7108 C.ar      1 <0>        -0.1510
     26 C23        -1.6168   -5.9505   -0.8452 C.ar      1 <0>        -0.0865
     27 F1         -3.7584   -6.0772   -3.7723 F         1 <0>        -0.1426
     28 O4          2.1888   -2.5714   -1.1313 O.3       1 <0>        -0.4822
     29 C24         2.0503    0.2100   -0.6561 C.3       1 <0>        -0.1143
     30 H1          0.3152    1.4166    1.8035 H         1 <0>         0.0764
     31 H2          0.2571    1.7541    0.0568 H         1 <0>         0.0732
     32 H3         -1.2485    1.4425    0.9536 H         1 <0>         0.0798
     33 H4         -2.9851   -2.4639    3.1621 H         1 <0>         0.1090
     34 H5         -3.9254   -2.2535    1.6547 H         1 <0>         0.1073
     35 H6         -2.6207   -3.8174    0.6096 H         1 <0>         0.0954
     36 H7         -1.6877   -4.0289    2.1191 H         1 <0>         0.0928
     37 H8          0.2298   -5.0403    0.6906 H         1 <0>         0.0896
     38 H9          1.7175   -4.2667   -1.8575 H         1 <0>         0.0915
     39 H10         2.4617   -4.3334   -0.2419 H         1 <0>         0.0611
     40 H11         1.8393   -6.7263   -0.0540 H         1 <0>         0.0563
     41 H12         1.0951   -6.6596   -1.6696 H         1 <0>         0.0606
     42 H13         3.2858   -6.0415   -2.6531 H         1 <0>         0.0543
     43 H14         4.0300   -6.1082   -1.0376 H         1 <0>         0.0524
     44 H15         3.4076   -8.5011   -0.8497 H         1 <0>         0.0560
     45 H16         2.6635   -8.4344   -2.4653 H         1 <0>         0.0562
     46 H17         4.8542   -7.8162   -3.4488 H         1 <0>         0.0536
     47 H18         5.5983   -7.8829   -1.8333 H         1 <0>         0.0533
     48 H19        -0.2797   -3.4418   -2.6618 H         1 <0>         0.1302
     49 H20        -2.0610   -4.1418   -4.2105 H         1 <0>         0.1322
     50 H21        -3.2780   -7.1557   -1.4431 H         1 <0>         0.1345
     51 H22        -1.4892   -6.4595    0.0987 H         1 <0>         0.1327
     52 H23         2.9868   -2.7195   -0.6056 H         1 <0>         0.3956
     53 H24         2.8378    0.3213    0.0893 H         1 <0>         0.0699
     54 H25         2.4784   -0.1727   -1.5826 H         1 <0>         0.0755
     55 H26         1.5872    1.1789   -0.8428 H         1 <0>         0.0717
@<TRIPOS>BOND
     1    1    2 1
     2    1   30 1
     3    1   31 1
     4    1   32 1
     5    2    7 ar
     6    2    3 ar
     7    3    4 ar
     8    3   29 1
     9    4    5 ar
    10    4   28 1
    11    5    6 ar
    12    5   12 1
    13    6   11 1
    14    6    7 ar
    15    7    8 1
    16    8    9 2
    17    8   10 1
    18   10   11 1
    19   10   33 1
    20   10   34 1
    21   11   35 1
    22   11   36 1
    23   12   13 1
    24   12   21 1
    25   12   37 1
    26   13   14 1
    27   13   38 1
    28   13   39 1
    29   14   15 1
    30   14   40 1
    31   14   41 1
    32   15   16 1
    33   15   42 1
    34   15   43 1
    35   16   17 1
    36   16   44 1
    37   16   45 1
    38   17   18 1
    39   17   46 1
    40   17   47 1
    41   18   19 2
    42   18   20 1
    43   21   26 ar
    44   21   22 ar
    45   22   23 ar
    46   22   48 1
    47   23   24 ar
    48   23   49 1
    49   24   25 ar
    50   24   27 1
    51   25   26 ar
    52   25   50 1
    53   26   51 1
    54   28   52 1
    55   29   53 1
    56   29   54 1
    57   29   55 1
@<TRIPOS>MOLECULE
CHEMBL70411__1
   55    57     0     0     0
SMALL
USER_CHARGES

@<TRIPOS>ATOM
      1 C1         -0.0891    1.5020    0.0509 C.3       1 <0>        -0.1280
      2 C2         -0.0788   -0.0047    0.0237 C.ar      1 <0>        -0.0009
      3 C3         -0.4038   -0.6732   -1.1326 C.ar      1 <0>        -0.1334
      4 C4         -0.3938   -2.0637   -1.1576 C.ar      1 <0>         0.1575
      5 C5         -0.0555   -2.7782   -0.0147 C.ar      1 <0>        -0.0966
      6 C6          0.2699   -2.1222    1.1422 C.ar      1 <0>        -0.0249
      7 C7          0.2688   -0.7258    1.1791 C.ar      1 <0>        -0.2033
      8 C8          0.6530   -0.2421    2.5123 C.2       1 <0>         0.4093
      9 O1          0.7375    0.9196    2.8506 O.2       1 <0>        -0.4469
     10 C9          0.9242   -1.4412    3.3879 C.3       1 <0>        -0.1716
     11 C10         0.6666   -2.6630    2.4953 C.3       1 <0>        -0.0848
     12 C11        -0.0471   -4.2848   -0.0488 C.3       1 <0>        -0.0039
     13 C12        -1.1678   -4.7804   -0.9649 C.3       1 <0>        -0.1189
     14 C13        -1.2396   -6.3074   -0.9026 C.3       1 <0>        -0.1190
     15 C14        -2.3603   -6.8031   -1.8188 C.3       1 <0>        -0.1172
     16 C15        -2.4322   -8.3301   -1.7565 C.3       1 <0>        -0.0922
     17 C16        -3.5529   -8.8257   -2.6726 C.3       1 <0>        -0.1836
     18 C17        -3.6236  -10.3298   -2.6113 C.2       1 <0>         0.4873
     19 O2         -2.8494  -10.9480   -1.9007 O.co2     1 <0>        -0.7002
     20 O3         -4.4550  -10.9284   -3.2723 O.co2     1 <0>        -0.7103
     21 C18         1.2807   -4.7680   -0.5727 C.ar      1 <0>        -0.0682
     22 C19         1.7530   -4.3072   -1.7875 C.ar      1 <0>        -0.0909
     23 C20         2.9707   -4.7493   -2.2687 C.ar      1 <0>        -0.1494
     24 C21         3.7177   -5.6541   -1.5337 C.ar      1 <0>         0.0917
     25 C22         3.2437   -6.1150   -0.3171 C.ar      1 <0>        -0.1458
     26 C23         2.0281   -5.6675    0.1645 C.ar      1 <0>        -0.0858
     27 F1          4.9081   -6.0874   -2.0034 F         1 <0>        -0.1417
     28 O4         -0.7150   -2.7233   -2.2987 O.3       1 <0>        -0.4748
     29 C24        -0.7714    0.1003   -2.3727 C.3       1 <0>        -0.1155
     30 H1          0.8944    1.8773   -0.2317 H         1 <0>         0.0764
     31 H2         -0.8352    1.8730   -0.6518 H         1 <0>         0.0736
     32 H3         -0.3341    1.8456    1.0559 H         1 <0>         0.0804
     33 H4          1.9577   -1.4297    3.7344 H         1 <0>         0.1090
     34 H5          0.2407   -1.4512    4.2369 H         1 <0>         0.1088
     35 H6         -0.1378   -3.2740    2.9049 H         1 <0>         0.0961
     36 H7          1.5793   -3.2527    2.4100 H         1 <0>         0.0934
     37 H8         -0.2030   -4.6718    0.9582 H         1 <0>         0.0889
     38 H9         -2.1180   -4.3583   -0.6377 H         1 <0>         0.0630
     39 H10        -0.9648   -4.4676   -1.9892 H         1 <0>         0.0996
     40 H11        -0.2894   -6.7295   -1.2299 H         1 <0>         0.0600
     41 H12        -1.4426   -6.6202    0.1216 H         1 <0>         0.0560
     42 H13        -3.3105   -6.3810   -1.4915 H         1 <0>         0.0530
     43 H14        -2.1574   -6.4903   -2.8430 H         1 <0>         0.0540
     44 H15        -1.4820   -8.7522   -2.0837 H         1 <0>         0.0561
     45 H16        -2.6351   -8.6428   -0.7322 H         1 <0>         0.0560
     46 H17        -4.5030   -8.4037   -2.3454 H         1 <0>         0.0536
     47 H18        -3.3499   -8.5130   -3.6969 H         1 <0>         0.0536
     48 H19         1.1700   -3.6016   -2.3608 H         1 <0>         0.1215
     49 H20         3.3393   -4.3894   -3.2179 H         1 <0>         0.1338
     50 H21         3.8254   -6.8211    0.2569 H         1 <0>         0.1357
     51 H22         1.6602   -6.0234    1.1155 H         1 <0>         0.1339
     52 H23         0.0164   -2.8024   -2.9264 H         1 <0>         0.3864
     53 H24         0.1273    0.2994   -2.9564 H         1 <0>         0.0699
     54 H25        -1.4713   -0.4832   -2.9708 H         1 <0>         0.0762
     55 H26        -1.2360    1.0442   -2.0877 H         1 <0>         0.0732
@<TRIPOS>BOND
     1    1    2 1
     2    1   30 1
     3    1   31 1
     4    1   32 1
     5    2    7 ar
     6    2    3 ar
     7    3    4 ar
     8    3   29 1
     9    4    5 ar
    10    4   28 1
    11    5    6 ar
    12    5   12 1
    13    6   11 1
    14    6    7 ar
    15    7    8 1
    16    8    9 2
    17    8   10 1
    18   10   11 1
    19   10   33 1
    20   10   34 1
    21   11   35 1
    22   11   36 1
    23   12   13 1
    24   12   21 1
    25   12   37 1
    26   13   14 1
    27   13   38 1
    28   13   39 1
    29   14   15 1
    30   14   40 1
    31   14   41 1
    32   15   16 1
    33   15   42 1
    34   15   43 1
    35   16   17 1
    36   16   44 1
    37   16   45 1
    38   17   18 1
    39   17   46 1
    40   17   47 1
    41   18   19 2
    42   18   20 1
    43   21   26 ar
    44   21   22 ar
    45   22   23 ar
    46   22   48 1
    47   23   24 ar
    48   23   49 1
    49   24   25 ar
    50   24   27 1
    51   25   26 ar
    52   25   50 1
    53   26   51 1
    54   28   52 1
    55   29   53 1
    56   29   54 1
    57   29   55 1
@<TRIPOS>MOLECULE
CHEMBL332028
   45    48     0     0     0
SMALL
USER_CHARGES

@<TRIPOS>ATOM
      1 C1         -0.0187    1.5258    0.0104 C.3       1 <0>        -0.1354
      2 C2          0.0021   -0.0041    0.0020 C.3       1 <0>        -0.0511
      3 C3         -1.4210   -0.5774    0.2005 C.3       1 <0>         0.0554
      4 O1         -1.4943   -0.7627    1.6241 O.3       1 <0>        -0.2953
      5 C4         -0.2419   -0.9740    2.1156 C.ar      1 <0>         0.1233
      6 C5          0.7293   -0.5431    1.2190 C.ar      1 <0>        -0.1613
      7 C6          2.0665   -0.6502    1.5207 C.ar      1 <0>        -0.0385
      8 C7          2.4620   -1.2051    2.7379 C.ar      1 <0>        -0.0372
      9 C8          1.4939   -1.6463    3.6379 C.ar      1 <0>        -0.0727
     10 C9          0.1564   -1.5321    3.3288 C.ar      1 <0>        -0.0878
     11 C10        -0.8825   -2.0122    4.3092 C.3       1 <0>        -0.0210
     12 C11        -0.1895   -2.5772    5.5508 C.3       1 <0>        -0.1466
     13 C12        -1.7805   -0.8417    4.7147 C.3       1 <0>        -0.1405
     14 C13        -1.7322   -3.1051    3.6577 C.3       1 <0>        -0.1407
     15 C14         3.9026   -1.3242    3.0719 C.2       1 <0>         0.0917
     16 C15         4.4143   -1.8467    4.2126 C.2       1 <0>        -0.0323
     17 N1          5.8004   -1.7696    4.1259 N.pl3     1 <0>        -0.4346
     18 C16         6.8960   -2.1013    4.8932 C.2       1 <0>         0.0284
     19 C17         8.1319   -1.8638    4.4568 C.2       1 <0>        -0.1752
     20 S1          7.8241   -1.1223    2.8614 S.3       1 <0>         0.1286
     21 C18         6.0482   -1.1910    2.9083 C.2       1 <0>         0.1789
     22 N2          4.9317   -0.9366    2.2905 N.2       1 <0>        -0.4344
     23 C19         0.6303   -0.5327   -1.2890 C.3       1 <0>        -0.1370
     24 H1          1.0039    1.9031    0.0027 H         1 <0>         0.0637
     25 H2         -0.5459    1.8868   -0.8726 H         1 <0>         0.0642
     26 H3         -0.5289    1.8773    0.9072 H         1 <0>         0.0601
     27 H4         -2.1745    0.1348   -0.1354 H         1 <0>         0.1067
     28 H5         -1.5294   -1.5296   -0.3188 H         1 <0>         0.0785
     29 H6          2.8093   -0.3057    0.8164 H         1 <0>         0.1323
     30 H7          1.7932   -2.0799    4.5807 H         1 <0>         0.1356
     31 H8          0.4159   -1.7986    6.0150 H         1 <0>         0.0584
     32 H9         -0.9409   -2.9244    6.2599 H         1 <0>         0.0605
     33 H10         0.4503   -3.4111    5.2619 H         1 <0>         0.0582
     34 H11        -2.2742   -0.4392    3.8302 H         1 <0>         0.0651
     35 H12        -2.5319   -1.1889    5.4239 H         1 <0>         0.0573
     36 H13        -1.1751   -0.0631    5.1789 H         1 <0>         0.0533
     37 H14        -1.0924   -3.9389    3.3688 H         1 <0>         0.0531
     38 H15        -2.4836   -3.4523    4.3668 H         1 <0>         0.0576
     39 H16        -2.2259   -2.7025    2.7732 H         1 <0>         0.0641
     40 H17         3.8484   -2.2495    5.0396 H         1 <0>         0.1840
     41 H18         6.7507   -2.5591    5.8605 H         1 <0>         0.1755
     42 H19         9.0752   -2.0664    4.9421 H         1 <0>         0.2184
     43 H20         1.6580   -0.1775   -1.3650 H         1 <0>         0.0650
     44 H21         0.6225   -1.6226   -1.2772 H         1 <0>         0.0601
     45 H22         0.0579   -0.1745   -2.1448 H         1 <0>         0.0635
@<TRIPOS>BOND
     1    1    2 1
     2    1   24 1
     3    1   25 1
     4    1   26 1
     5    2    6 1
     6    2    3 1
     7    2   23 1
     8    3    4 1
     9    3   27 1
    10    3   28 1
    11    4    5 1
    12    5   10 ar
    13    5    6 ar
    14    6    7 ar
    15    7    8 ar
    16    7   29 1
    17    8    9 ar
    18    8   15 1
    19    9   10 ar
    20    9   30 1
    21   10   11 1
    22   11   12 1
    23   11   13 1
    24   11   14 1
    25   12   31 1
    26   12   32 1
    27   12   33 1
    28   13   34 1
    29   13   35 1
    30   13   36 1
    31   14   37 1
    32   14   38 1
    33   14   39 1
    34   15   22 1
    35   15   16 2
    36   16   17 1
    37   16   40 1
    38   17   21 1
    39   17   18 1
    40   18   19 2
    41   18   41 1
    42   19   20 1
    43   19   42 1
    44   20   21 1
    45   21   22 2
    46   23   43 1
    47   23   44 1
    48   23   45 1
@<TRIPOS>MOLECULE
CHEMBL88549
   46    50     0     0     0
SMALL
USER_CHARGES

@<TRIPOS>ATOM
      1 C1         -0.0225    1.8097    0.0120 C.3       1 <0>        -0.6507
      2 S1          0.0021   -0.0041    0.0020 S.o2      1 <0>         2.4987
      3 O1          0.8352   -0.4880    1.0465 O.2       1 <0>        -0.9373
      4 O2         -1.3147   -0.5105   -0.1678 O.2       1 <0>        -0.9371
      5 C2          0.8454   -0.4373   -1.4831 C.ar      1 <0>        -0.6604
      6 C3          0.1305   -0.6120   -2.6550 C.ar      1 <0>        -0.0208
      7 C4          0.7837   -0.9512   -3.8213 C.ar      1 <0>        -0.1221
      8 C5          2.1711   -1.1184   -3.8177 C.ar      1 <0>         0.0237
      9 C6          2.8864   -0.9403   -2.6305 C.ar      1 <0>        -0.1277
     10 C7          2.2201   -0.5957   -1.4731 C.ar      1 <0>        -0.0211
     11 C8          2.8765   -1.4812   -5.0598 C.2       1 <0>        -0.0905
     12 C9          2.9586   -0.7007   -6.1471 C.2       1 <0>        -0.0680
     13 C10         3.7566   -1.3865   -7.2355 C.3       1 <0>        -0.0476
     14 C11         4.4866   -2.5299   -6.5178 C.3       1 <0>        -0.1346
     15 C12         3.6143   -2.7842   -5.2830 C.3       1 <0>        -0.0468
     16 C13         6.0011   -2.6270   -6.4730 C.3       1 <0>        -0.1633
     17 C14         5.1834   -3.6498   -7.2691 C.3       1 <0>        -0.1617
     18 C15         2.3555    0.6383   -6.2661 C.ar      1 <0>        -0.0289
     19 C16         1.3277    0.8649   -7.1856 C.ar      1 <0>        -0.0937
     20 C17         0.7651    2.1187   -7.2949 C.ar      1 <0>        -0.0977
     21 C18         1.2155    3.1590   -6.4946 C.ar      1 <0>         0.0345
     22 C19         2.2409    2.9401   -5.5749 C.ar      1 <0>         0.0342
     23 C20         2.8057    1.6842   -5.4558 C.ar      1 <0>        -0.0832
     24 O3          2.4952    4.1104   -4.9192 O.3       1 <0>        -0.3083
     25 C21         1.9013    5.1417   -5.7294 C.3       1 <0>         0.2127
     26 O4          0.8295    4.4658   -6.4128 O.3       1 <0>        -0.3076
     27 H1          1.0001    2.1870    0.0043 H         1 <0>         0.1315
     28 H2         -0.5497    2.1708   -0.8711 H         1 <0>         0.1311
     29 H3         -0.5327    2.1613    0.9088 H         1 <0>         0.1336
     30 H4         -0.9418   -0.4828   -2.6562 H         1 <0>         0.1431
     31 H5          0.2244   -1.0875   -4.7351 H         1 <0>         0.1329
     32 H6          3.9588   -1.0679   -2.6203 H         1 <0>         0.1342
     33 H7          2.7721   -0.4531   -0.5559 H         1 <0>         0.1437
     34 H8          3.0912   -1.7826   -8.0026 H         1 <0>         0.0879
     35 H9          4.4744   -0.6936   -7.6746 H         1 <0>         0.0783
     36 H10         4.2356   -3.0219   -4.4195 H         1 <0>         0.0780
     37 H11         2.9089   -3.5918   -5.4788 H         1 <0>         0.0871
     38 H12         6.5702   -1.8881   -7.0371 H         1 <0>         0.0971
     39 H13         6.4572   -2.9618   -5.5414 H         1 <0>         0.0971
     40 H14         5.1019   -4.6572   -6.8609 H         1 <0>         0.0982
     41 H15         5.2150   -3.5835   -8.3567 H         1 <0>         0.0985
     42 H16         0.9745    0.0580   -7.8106 H         1 <0>         0.1407
     43 H17        -0.0289    2.2920   -8.0063 H         1 <0>         0.1390
     44 H18         3.5964    1.5124   -4.7405 H         1 <0>         0.1338
     45 H19         1.5106    5.9435   -5.1028 H         1 <0>         0.1335
     46 H20         2.6257    5.5316   -6.4445 H         1 <0>         0.0861
@<TRIPOS>BOND
     1    1    2 1
     2    1   27 1
     3    1   28 1
     4    1   29 1
     5    2    3 2
     6    2    4 2
     7    2    5 1
     8    5   10 ar
     9    5    6 ar
    10    6    7 ar
    11    6   30 1
    12    7    8 ar
    13    7   31 1
    14    8    9 ar
    15    8   11 1
    16    9   10 ar
    17    9   32 1
    18   10   33 1
    19   11   15 1
    20   11   12 2
    21   12   13 1
    22   12   18 1
    23   13   14 1
    24   13   34 1
    25   13   35 1
    26   14   17 1
    27   14   15 1
    28   14   16 1
    29   15   36 1
    30   15   37 1
    31   16   17 1
    32   16   38 1
    33   16   39 1
    34   17   40 1
    35   17   41 1
    36   18   23 ar
    37   18   19 ar
    38   19   20 ar
    39   19   42 1
    40   20   21 ar
    41   20   43 1
    42   21   26 1
    43   21   22 ar
    44   22   23 ar
    45   22   24 1
    46   23   44 1
    47   24   25 1
    48   25   26 1
    49   25   45 1
    50   25   46 1
@<TRIPOS>MOLECULE
CHEMBL329292
   62    66     0     0     0
SMALL
USER_CHARGES

@<TRIPOS>ATOM
      1 C1         -0.1855    1.9652   -0.2566 C.3       1 <0>        -0.1045
      2 C2         -0.0814    0.4752   -0.0565 C.2       1 <0>         0.1211
      3 C3         -0.0163   -0.4310   -1.0420 C.2       1 <0>        -0.1446
      4 C4          0.0762   -1.7518   -0.4101 C.ar      1 <0>        -0.0353
      5 C5          0.1683   -3.0546   -0.9020 C.ar      1 <0>        -0.1112
      6 C6          0.2417   -4.1142   -0.0186 C.ar      1 <0>         0.1132
      7 C7          0.2239   -3.8850    1.3542 C.ar      1 <0>        -0.1752
      8 C8          0.1328   -2.6024    1.8496 C.ar      1 <0>        -0.0827
      9 C9          0.0585   -1.5241    0.9765 C.ar      1 <0>         0.0770
     10 N1         -0.0331   -0.1556    1.1629 N.am      1 <0>        -0.5040
     11 C10        -0.0724    0.4639    2.3592 C.2       1 <0>         0.6025
     12 O1         -1.1418    0.7509    2.8600 O.2       1 <0>        -0.4280
     13 C11         1.1839    0.7939    3.0614 C.ar      1 <0>        -0.1662
     14 C12         2.4144    0.5710    2.4392 C.ar      1 <0>        -0.0420
     15 C13         3.5840    0.8812    3.1001 C.ar      1 <0>        -0.1205
     16 C14         3.5405    1.4128    4.3785 C.ar      1 <0>         0.0042
     17 C15         2.3233    1.6358    5.0011 C.ar      1 <0>        -0.1233
     18 C16         1.1466    1.3356    4.3483 C.ar      1 <0>        -0.0381
     19 Cl1         5.0176    1.8007    5.2040 Cl        1 <0>        -0.0519
     20 O2          0.3311   -5.3858   -0.4919 O.3       1 <0>        -0.3165
     21 C17         0.4037   -6.4346    0.4759 C.3       1 <0>         0.0270
     22 C18        -0.0351   -0.1466   -2.5217 C.3       1 <0>        -0.0636
     23 C19         1.3759    0.0481   -3.0138 C.2       1 <0>         0.5127
     24 O3          2.3054   -0.0359   -2.2391 O.2       1 <0>        -0.5032
     25 N2          1.6051    0.3156   -4.3148 N.am      1 <0>        -0.6775
     26 C20         2.9170    0.3900   -4.7927 C.ar      1 <0>         0.1515
     27 C21         3.9029   -0.4205   -4.2427 C.ar      1 <0>        -0.1172
     28 C22         5.1972   -0.3485   -4.7120 C.ar      1 <0>        -0.0892
     29 C23         5.5166    0.5379   -5.7393 C.ar      1 <0>        -0.0627
     30 C24         4.5260    1.3497   -6.2898 C.ar      1 <0>        -0.0897
     31 C25         3.2320    1.2705   -5.8208 C.ar      1 <0>        -0.1441
     32 C26         6.9087    0.6176   -6.2457 C.ar      1 <0>        -0.0417
     33 C27         7.8991   -0.1970   -5.7001 C.ar      1 <0>        -0.1130
     34 C28         9.1924   -0.1189   -6.1754 C.ar      1 <0>        -0.1165
     35 C29         9.5066    0.7660   -7.1910 C.ar      1 <0>        -0.1210
     36 C30         8.5277    1.5773   -7.7360 C.ar      1 <0>        -0.1170
     37 C31         7.2297    1.5033   -7.2727 C.ar      1 <0>        -0.1135
     38 H1          0.8145    2.3957   -0.3082 H         1 <0>         0.0862
     39 H2         -0.7179    2.1708   -1.1853 H         1 <0>         0.0920
     40 H3         -0.7286    2.4069    0.5789 H         1 <0>         0.0708
     41 H4          0.1818   -3.2334   -1.9670 H         1 <0>         0.1323
     42 H5          0.2817   -4.7197    2.0371 H         1 <0>         0.1355
     43 H6          0.1190   -2.4353    2.9165 H         1 <0>         0.1225
     44 H7          2.4496    0.1562    1.4426 H         1 <0>         0.1444
     45 H8          4.5361    0.7090    2.6202 H         1 <0>         0.1451
     46 H9          2.2959    2.0502    5.9981 H         1 <0>         0.1465
     47 H10         0.1981    1.5143    4.8329 H         1 <0>         0.1476
     48 H11         0.4714   -7.3956   -0.0341 H         1 <0>         0.1007
     49 H12         1.2853   -6.2920    1.1008 H         1 <0>         0.0553
     50 H13        -0.4903   -6.4163    1.0992 H         1 <0>         0.0553
     51 H14        -0.4907   -0.9858   -3.0473 H         1 <0>         0.1100
     52 H15        -0.6137    0.7577   -2.7106 H         1 <0>         0.1062
     53 H16         0.8599    0.4564   -4.9195 H         1 <0>         0.4116
     54 H17         3.6549   -1.1072   -3.4468 H         1 <0>         0.1372
     55 H18         5.9631   -0.9781   -4.2838 H         1 <0>         0.1280
     56 H19         4.7712    2.0372   -7.0858 H         1 <0>         0.1291
     57 H20         2.4633    1.8960   -6.2500 H         1 <0>         0.1279
     58 H21         7.6551   -0.8878   -4.9066 H         1 <0>         0.1250
     59 H22         9.9608   -0.7498   -5.7533 H         1 <0>         0.1240
     60 H23        10.5200    0.8241   -7.5597 H         1 <0>         0.1224
     61 H24         8.7786    2.2667   -8.5285 H         1 <0>         0.1239
     62 H25         6.4652    2.1340   -7.7019 H         1 <0>         0.1248
@<TRIPOS>BOND
     1    1    2 1
     2    1   38 1
     3    1   39 1
     4    1   40 1
     5    2   10 1
     6    2    3 2
     7    3    4 1
     8    3   22 1
     9    4    9 ar
    10    4    5 ar
    11    5    6 ar
    12    5   41 1
    13    6    7 ar
    14    6   20 1
    15    7    8 ar
    16    7   42 1
    17    8    9 ar
    18    8   43 1
    19    9   10 1
    20   10   11 am
    21   11   12 2
    22   11   13 1
    23   13   18 ar
    24   13   14 ar
    25   14   15 ar
    26   14   44 1
    27   15   16 ar
    28   15   45 1
    29   16   17 ar
    30   16   19 1
    31   17   18 ar
    32   17   46 1
    33   18   47 1
    34   20   21 1
    35   21   48 1
    36   21   49 1
    37   21   50 1
    38   22   23 1
    39   22   51 1
    40   22   52 1
    41   23   24 2
    42   23   25 am
    43   25   26 1
    44   25   53 1
    45   26   31 ar
    46   26   27 ar
    47   27   28 ar
    48   27   54 1
    49   28   29 ar
    50   28   55 1
    51   29   30 ar
    52   29   32 1
    53   30   31 ar
    54   30   56 1
    55   31   57 1
    56   32   37 ar
    57   32   33 ar
    58   33   34 ar
    59   33   58 1
    60   34   35 ar
    61   34   59 1
    62   35   36 ar
    63   35   60 1
    64   36   37 ar
    65   36   61 1
    66   37   62 1
@<TRIPOS>MOLECULE
CHEMBL551418
   43    45     0     0     0
SMALL
USER_CHARGES

@<TRIPOS>ATOM
      1 C1         -0.0225    1.8097    0.0120 C.3       1 <0>        -0.6491
      2 S1          0.0021   -0.0041    0.0020 S.o2      1 <0>         2.4983
      3 O1          0.8352   -0.4880    1.0465 O.2       1 <0>        -0.9329
      4 O2         -1.3147   -0.5105   -0.1678 O.2       1 <0>        -0.9325
      5 C2          0.8454   -0.4373   -1.4831 C.ar      1 <0>        -0.6400
      6 C3          0.1315   -0.6121   -2.6550 C.ar      1 <0>        -0.0286
      7 C4          0.7867   -0.9519   -3.8211 C.ar      1 <0>        -0.0848
      8 C5          2.1705   -1.1185   -3.8166 C.ar      1 <0>        -0.0141
      9 C6          2.8847   -0.9407   -2.6330 C.ar      1 <0>        -0.1056
     10 C7          2.2196   -0.5958   -1.4740 C.ar      1 <0>        -0.0270
     11 C8          2.8802   -1.4841   -5.0665 C.ar      1 <0>         0.2640
     12 C9          4.2667   -1.6589   -5.0701 C.ar      1 <0>        -0.2115
     13 C10         4.8839   -2.0002   -6.2600 C.ar      1 <0>         0.1375
     14 N1          4.1486   -2.1498   -7.3509 N.ar      1 <0>        -0.5319
     15 C11         2.8369   -1.9778   -7.3175 C.ar      1 <0>         0.5255
     16 N2          2.2059   -1.6564   -6.2012 N.ar      1 <0>        -0.4948
     17 O3          2.1214   -2.1400   -8.4562 O.3       1 <0>        -0.2706
     18 C12         2.8487   -2.4920   -9.6348 C.3       1 <0>         0.0839
     19 C13         3.2326   -1.2200  -10.4186 C.3       1 <0>        -0.1422
     20 C14         3.0907   -1.6323  -11.9049 C.3       1 <0>        -0.1227
     21 C15         1.8383   -2.5434  -11.8888 C.3       1 <0>        -0.1235
     22 C16         1.9621   -3.3335  -10.5696 C.3       1 <0>        -0.1243
     23 C17         6.3767   -2.1990   -6.3143 C.3       1 <0>         0.5261
     24 F1          6.6788   -3.5387   -6.0475 F         1 <0>        -0.1614
     25 F2          6.8464   -1.8598   -7.5877 F         1 <0>        -0.1568
     26 F3          6.9909   -1.3831   -5.3581 F         1 <0>        -0.1622
     27 H1          1.0001    2.1870    0.0043 H         1 <0>         0.1328
     28 H2         -0.5497    2.1708   -0.8711 H         1 <0>         0.1329
     29 H3         -0.5327    2.1613    0.9088 H         1 <0>         0.1355
     30 H4         -0.9407   -0.4828   -2.6573 H         1 <0>         0.1516
     31 H5          0.2282   -1.0889   -4.7353 H         1 <0>         0.1508
     32 H6          3.9571   -1.0684   -2.6238 H         1 <0>         0.1426
     33 H7          2.7724   -0.4538   -0.5572 H         1 <0>         0.1527
     34 H8          4.8426   -1.5303   -4.1656 H         1 <0>         0.1699
     35 H9          3.7451   -3.0513   -9.3670 H         1 <0>         0.0990
     36 H10         2.5486   -0.4050  -10.1819 H         1 <0>         0.0777
     37 H11         4.2608   -0.9324  -10.1990 H         1 <0>         0.0766
     38 H12         2.9243   -0.7580  -12.5341 H         1 <0>         0.0746
     39 H13         3.9680   -2.1874  -12.2372 H         1 <0>         0.0731
     40 H14         0.9291   -1.9422  -11.8894 H         1 <0>         0.0716
     41 H15         1.8489   -3.2216  -12.7421 H         1 <0>         0.0740
     42 H16         2.4288   -4.3008  -10.7561 H         1 <0>         0.0826
     43 H17         0.9771   -3.4733  -10.1242 H         1 <0>         0.0832
@<TRIPOS>BOND
     1    1    2 1
     2    1   27 1
     3    1   28 1
     4    1   29 1
     5    2    3 2
     6    2    4 2
     7    2    5 1
     8    5   10 ar
     9    5    6 ar
    10    6    7 ar
    11    6   30 1
    12    7    8 ar
    13    7   31 1
    14    8    9 ar
    15    8   11 1
    16    9   10 ar
    17    9   32 1
    18   10   33 1
    19   11   16 ar
    20   11   12 ar
    21   12   13 ar
    22   12   34 1
    23   13   14 ar
    24   13   23 1
    25   14   15 ar
    26   15   16 ar
    27   15   17 1
    28   17   18 1
    29   18   22 1
    30   18   19 1
    31   18   35 1
    32   19   20 1
    33   19   36 1
    34   19   37 1
    35   20   21 1
    36   20   38 1
    37   20   39 1
    38   21   22 1
    39   21   40 1
    40   21   41 1
    41   22   42 1
    42   22   43 1
    43   23   24 1
    44   23   25 1
    45   23   26 1
@<TRIPOS>MOLECULE
CHEMBL551419
   46    48     0     0     0
SMALL
USER_CHARGES

@<TRIPOS>ATOM
      1 C1         -0.0225    1.8097    0.0120 C.3       1 <0>        -0.6492
      2 S1          0.0021   -0.0041    0.0020 S.o2      1 <0>         2.4982
      3 O1          0.8352   -0.4880    1.0465 O.2       1 <0>        -0.9329
      4 O2         -1.3147   -0.5105   -0.1678 O.2       1 <0>        -0.9324
      5 C2          0.8454   -0.4373   -1.4831 C.ar      1 <0>        -0.6400
      6 C3          0.1315   -0.6121   -2.6550 C.ar      1 <0>        -0.0286
      7 C4          0.7867   -0.9519   -3.8211 C.ar      1 <0>        -0.0847
      8 C5          2.1705   -1.1185   -3.8166 C.ar      1 <0>        -0.0141
      9 C6          2.8847   -0.9407   -2.6330 C.ar      1 <0>        -0.1056
     10 C7          2.2196   -0.5958   -1.4740 C.ar      1 <0>        -0.0270
     11 C8          2.8802   -1.4841   -5.0665 C.ar      1 <0>         0.2640
     12 C9          4.2667   -1.6589   -5.0701 C.ar      1 <0>        -0.2106
     13 C10         4.8839   -2.0002   -6.2600 C.ar      1 <0>         0.1370
     14 N1          4.1486   -2.1498   -7.3509 N.ar      1 <0>        -0.5324
     15 C11         2.8369   -1.9778   -7.3175 C.ar      1 <0>         0.5250
     16 N2          2.2059   -1.6564   -6.2012 N.ar      1 <0>        -0.4937
     17 O3          2.1214   -2.1400   -8.4562 O.3       1 <0>        -0.2744
     18 C12         2.8487   -2.4920   -9.6348 C.3       1 <0>         0.0772
     19 C13         1.8790   -2.6305  -10.8102 C.3       1 <0>        -0.0930
     20 C14         0.9631   -3.8536  -10.5984 C.3       1 <0>        -0.1189
     21 C15         0.7882   -4.4476  -12.0182 C.3       1 <0>        -0.1271
     22 C16         2.1920   -4.2561  -12.6441 C.3       1 <0>        -0.1260
     23 C17         2.6604   -2.8863  -12.1109 C.3       1 <0>        -0.1166
     24 C18         6.3767   -2.1990   -6.3143 C.3       1 <0>         0.5262
     25 F1          6.6788   -3.5387   -6.0475 F         1 <0>        -0.1613
     26 F2          6.8464   -1.8598   -7.5877 F         1 <0>        -0.1568
     27 F3          6.9909   -1.3831   -5.3581 F         1 <0>        -0.1621
     28 H1          1.0001    2.1870    0.0043 H         1 <0>         0.1328
     29 H2         -0.5497    2.1708   -0.8711 H         1 <0>         0.1329
     30 H3         -0.5327    2.1613    0.9088 H         1 <0>         0.1356
     31 H4         -0.9407   -0.4828   -2.6573 H         1 <0>         0.1516
     32 H5          0.2282   -1.0889   -4.7353 H         1 <0>         0.1509
     33 H6          3.9571   -1.0684   -2.6238 H         1 <0>         0.1427
     34 H7          2.7724   -0.4538   -0.5572 H         1 <0>         0.1528
     35 H8          4.8426   -1.5303   -4.1656 H         1 <0>         0.1701
     36 H9          3.5797   -1.7145   -9.8565 H         1 <0>         0.0753
     37 H10         3.3632   -3.4395   -9.4748 H         1 <0>         0.0760
     38 H11         1.2786   -1.7259  -10.9071 H         1 <0>         0.0863
     39 H12         1.4403   -4.5777   -9.9381 H         1 <0>         0.0665
     40 H13        -0.0001   -3.5434  -10.1934 H         1 <0>         0.0708
     41 H14         0.5299   -5.5052  -11.9654 H         1 <0>         0.0683
     42 H15         0.0362   -3.8926  -12.5791 H         1 <0>         0.0690
     43 H16         2.8677   -5.0452  -12.3141 H         1 <0>         0.0669
     44 H17         2.1257   -4.2395  -13.7319 H         1 <0>         0.0689
     45 H18         2.4385   -2.1064  -12.8393 H         1 <0>         0.0732
     46 H19         3.7304   -2.9119  -11.9047 H         1 <0>         0.0692
@<TRIPOS>BOND
     1    1    2 1
     2    1   28 1
     3    1   29 1
     4    1   30 1
     5    2    3 2
     6    2    4 2
     7    2    5 1
     8    5   10 ar
     9    5    6 ar
    10    6    7 ar
    11    6   31 1
    12    7    8 ar
    13    7   32 1
    14    8    9 ar
    15    8   11 1
    16    9   10 ar
    17    9   33 1
    18   10   34 1
    19   11   16 ar
    20   11   12 ar
    21   12   13 ar
    22   12   35 1
    23   13   14 ar
    24   13   24 1
    25   14   15 ar
    26   15   16 ar
    27   15   17 1
    28   17   18 1
    29   18   19 1
    30   18   36 1
    31   18   37 1
    32   19   23 1
    33   19   20 1
    34   19   38 1
    35   20   21 1
    36   20   39 1
    37   20   40 1
    38   21   22 1
    39   21   41 1
    40   21   42 1
    41   22   23 1
    42   22   43 1
    43   22   44 1
    44   23   45 1
    45   23   46 1
    46   24   25 1
    47   24   26 1
    48   24   27 1
@<TRIPOS>MOLECULE
CHEMBL364966
   42    44     0     0     0
SMALL
USER_CHARGES

@<TRIPOS>ATOM
      1 C1          0.0179    1.8107    0.0361 C.3       1 <0>        -0.6495
      2 S1          0.0065   -0.0030    0.0062 S.o2      1 <0>         2.4973
      3 O1          0.8246   -0.5148    1.0492 O.2       1 <0>        -0.9332
      4 O2         -1.3192   -0.4812   -0.1756 O.2       1 <0>        -0.9337
      5 C2          0.8485   -0.4366   -1.4796 C.ar      1 <0>        -0.6505
      6 C3          0.1369   -0.5842   -2.6568 C.ar      1 <0>        -0.0188
      7 C4          0.7907   -0.9237   -3.8236 C.ar      1 <0>        -0.1159
      8 C5          2.1717   -1.1180   -3.8145 C.ar      1 <0>        -0.0096
      9 C6          2.8835   -0.9677   -2.6247 C.ar      1 <0>        -0.1204
     10 C7          2.2193   -0.6225   -1.4655 C.ar      1 <0>        -0.0152
     11 C8          2.8796   -1.4831   -5.0637 C.ar      1 <0>        -0.0814
     12 C9          2.4993   -2.6141   -5.7928 C.ar      1 <0>        -0.0031
     13 C10         3.1912   -2.9120   -6.9524 C.ar      1 <0>        -0.2252
     14 C11         4.2332   -2.0892   -7.3571 C.ar      1 <0>         0.1668
     15 N1          4.5757   -1.0306   -6.6576 N.ar      1 <0>        -0.4441
     16 C12         3.9411   -0.6959   -5.5402 C.ar      1 <0>         0.1221
     17 C13         4.3580    0.5076   -4.7904 C.2       1 <0>         0.4607
     18 O3          5.2718    0.4399   -3.9917 O.2       1 <0>        -0.4166
     19 C14         3.6643    1.7928   -5.0116 C.ar      1 <0>        -0.1625
     20 C15         2.5450    1.8516   -5.8457 C.ar      1 <0>        -0.0650
     21 C16         1.9023    3.0550   -6.0477 C.ar      1 <0>        -0.1293
     22 C17         2.3635    4.2025   -5.4265 C.ar      1 <0>        -0.0797
     23 C18         3.4720    4.1517   -4.5994 C.ar      1 <0>        -0.1298
     24 C19         4.1209    2.9541   -4.3833 C.ar      1 <0>        -0.0538
     25 C20         2.8171   -4.1211   -7.7704 C.3       1 <0>         0.5177
     26 F1          1.8524   -3.7627   -8.7181 F         1 <0>        -0.1691
     27 F2          3.9527   -4.6119   -8.4235 F         1 <0>        -0.1689
     28 F3          2.2987   -5.1112   -6.9288 F         1 <0>        -0.1708
     29 H1          1.0478    2.1677    0.0375 H         1 <0>         0.1326
     30 H2         -0.4976    2.1919   -0.8454 H         1 <0>         0.1324
     31 H3         -0.4897    2.1625    0.9343 H         1 <0>         0.1355
     32 H4         -0.9326   -0.4339   -2.6625 H         1 <0>         0.1499
     33 H5          0.2341   -1.0390   -4.7418 H         1 <0>         0.1389
     34 H6          3.9530   -1.1172   -2.6115 H         1 <0>         0.1392
     35 H7          2.7702   -0.5012   -0.5445 H         1 <0>         0.1496
     36 H8          1.6853   -3.2401   -5.4582 H         1 <0>         0.1619
     37 H9          4.7724   -2.3233   -8.2631 H         1 <0>         0.1825
     38 H10         2.1842    0.9570   -6.3313 H         1 <0>         0.1230
     39 H11         1.0371    3.1021   -6.6924 H         1 <0>         0.1324
     40 H12         1.8563    5.1422   -5.5883 H         1 <0>         0.1318
     41 H13         3.8267    5.0511   -4.1182 H         1 <0>         0.1343
     42 H14         4.9826    2.9149   -3.7335 H         1 <0>         0.1375
@<TRIPOS>BOND
     1    1    2 1
     2    1   29 1
     3    1   30 1
     4    1   31 1
     5    2    3 2
     6    2    4 2
     7    2    5 1
     8    5   10 ar
     9    5    6 ar
    10    6    7 ar
    11    6   32 1
    12    7    8 ar
    13    7   33 1
    14    8    9 ar
    15    8   11 1
    16    9   10 ar
    17    9   34 1
    18   10   35 1
    19   11   16 ar
    20   11   12 ar
    21   12   13 ar
    22   12   36 1
    23   13   14 ar
    24   13   25 1
    25   14   15 ar
    26   14   37 1
    27   15   16 ar
    28   16   17 1
    29   17   18 2
    30   17   19 1
    31   19   24 ar
    32   19   20 ar
    33   20   21 ar
    34   20   38 1
    35   21   22 ar
    36   21   39 1
    37   22   23 ar
    38   22   40 1
    39   23   24 ar
    40   23   41 1
    41   24   42 1
    42   25   26 1
    43   25   27 1
    44   25   28 1
@<TRIPOS>MOLECULE
CHEMBL162776
   51    54     0     0     0
SMALL
USER_CHARGES

@<TRIPOS>ATOM
      1 C1          1.5900    0.2983    0.7184 C.3       1 <0>        -0.0982
      2 C2          1.7051   -1.0947    0.1551 C.2       1 <0>         0.0922
      3 C3          1.2061   -1.4919   -1.0262 C.2       1 <0>        -0.1462
      4 C4          1.5431   -2.9093   -1.1794 C.ar      1 <0>        -0.0525
      5 C5          1.3040   -3.8604   -2.1739 C.ar      1 <0>        -0.1031
      6 C6          1.7683   -5.1500   -2.0099 C.ar      1 <0>         0.0899
      7 C7          2.4707   -5.5023   -0.8601 C.ar      1 <0>        -0.1841
      8 C8          2.7122   -4.5729    0.1266 C.ar      1 <0>        -0.0944
      9 C9          2.2531   -3.2681   -0.0198 C.ar      1 <0>         0.0739
     10 N1          2.3386   -2.1402    0.7691 N.pl3     1 <0>        -0.4795
     11 C10         3.0058   -2.0725    2.0716 C.3       1 <0>         0.1512
     12 C11         2.0190   -2.4092    3.1596 C.ar      1 <0>        -0.0930
     13 C12         1.2677   -1.4074    3.7453 C.ar      1 <0>        -0.0947
     14 C13         0.3622   -1.7158    4.7429 C.ar      1 <0>        -0.0893
     15 C14         0.2077   -3.0271    5.1553 C.ar      1 <0>        -0.0845
     16 C15         0.9596   -4.0292    4.5689 C.ar      1 <0>        -0.0923
     17 C16         1.8612   -3.7206    3.5677 C.ar      1 <0>        -0.0938
     18 Br1        -1.0306   -3.4496    6.5206 Br        1 <0>        -0.0526
     19 O1          1.5385   -6.0803   -2.9747 O.3       1 <0>        -0.3205
     20 C17         2.0462   -7.3956   -2.7419 C.3       1 <0>         0.0314
     21 C18         0.4432   -0.6409   -2.0085 C.3       1 <0>        -0.0028
     22 C19         1.4236    0.0210   -2.9788 C.3       1 <0>        -0.0631
     23 C20         1.1842   -0.1858   -4.4758 C.3       1 <0>        -0.1646
     24 C21         2.3493   -0.8947   -3.7823 C.3       1 <0>        -0.1947
     25 C22         1.9818    1.3739   -2.5325 C.3       1 <0>        -0.1505
     26 C23         0.8526    2.3623   -2.3944 C.2       1 <0>         0.4941
     27 O2         -0.2792    2.0439   -2.7172 O.co2     1 <0>        -0.6874
     28 O3          1.0708    3.4804   -1.9599 O.co2     1 <0>        -0.7126
     29 H1          2.4417    0.8943    0.3906 H         1 <0>         0.0813
     30 H2          0.6671    0.7581    0.3648 H         1 <0>         0.0932
     31 H3          1.5779    0.2500    1.8073 H         1 <0>         0.0600
     32 H4          0.7588   -3.5886   -3.0656 H         1 <0>         0.1285
     33 H5          2.8291   -6.5142   -0.7411 H         1 <0>         0.1251
     34 H6          3.2579   -4.8570    1.0142 H         1 <0>         0.1148
     35 H7          3.8299   -2.7855    2.0951 H         1 <0>         0.0944
     36 H8          3.3919   -1.0656    2.2301 H         1 <0>         0.0998
     37 H9          1.3887   -0.3836    3.4235 H         1 <0>         0.1370
     38 H10        -0.2244   -0.9330    5.2007 H         1 <0>         0.1356
     39 H11         0.8393   -5.0532    4.8905 H         1 <0>         0.1328
     40 H12         2.4453   -4.5034    3.1070 H         1 <0>         0.1297
     41 H13         1.6021   -7.8008   -1.8326 H         1 <0>         0.0503
     42 H14         1.7943   -8.0371   -3.5863 H         1 <0>         0.0943
     43 H15         3.1295   -7.3522   -2.6290 H         1 <0>         0.0506
     44 H16        -0.2537   -1.2663   -2.5665 H         1 <0>         0.0596
     45 H17        -0.1100    0.1283   -1.4698 H         1 <0>         0.0912
     46 H18         0.3283   -0.7934   -4.7693 H         1 <0>         0.0840
     47 H19         1.4242    0.6421   -5.1429 H         1 <0>         0.0826
     48 H20         3.3557   -0.5332   -3.9932 H         1 <0>         0.0781
     49 H21         2.2598   -1.9688   -3.6196 H         1 <0>         0.0883
     50 H22         2.4848    1.2604   -1.5722 H         1 <0>         0.0589
     51 H23         2.6931    1.7362   -3.2747 H         1 <0>         0.0515
@<TRIPOS>BOND
     1    1    2 1
     2    1   29 1
     3    1   30 1
     4    1   31 1
     5    2   10 1
     6    2    3 2
     7    3    4 1
     8    3   21 1
     9    4    9 ar
    10    4    5 ar
    11    5    6 ar
    12    5   32 1
    13    6    7 ar
    14    6   19 1
    15    7    8 ar
    16    7   33 1
    17    8    9 ar
    18    8   34 1
    19    9   10 1
    20   10   11 1
    21   11   12 1
    22   11   35 1
    23   11   36 1
    24   12   17 ar
    25   12   13 ar
    26   13   14 ar
    27   13   37 1
    28   14   15 ar
    29   14   38 1
    30   15   16 ar
    31   15   18 1
    32   16   17 ar
    33   16   39 1
    34   17   40 1
    35   19   20 1
    36   20   41 1
    37   20   42 1
    38   20   43 1
    39   21   22 1
    40   21   44 1
    41   21   45 1
    42   22   24 1
    43   22   23 1
    44   22   25 1
    45   23   24 1
    46   23   46 1
    47   23   47 1
    48   24   48 1
    49   24   49 1
    50   25   26 1
    51   25   50 1
    52   25   51 1
    53   26   27 2
    54   26   28 1
@<TRIPOS>MOLECULE
CHEMBL318410
   57    60     0     0     0
SMALL
USER_CHARGES

@<TRIPOS>ATOM
      1 C1         -0.0182    1.5027    0.0102 C.3       1 <0>        -0.1066
      2 C2          0.0021   -0.0042    0.0020 C.2       1 <0>         0.1251
      3 C3          0.0074   -0.7679   -1.0995 C.2       1 <0>        -0.1529
      4 C4          0.0293   -2.1662   -0.6567 C.ar      1 <0>        -0.0353
      5 C5          0.0428   -3.3917   -1.3243 C.ar      1 <0>        -0.1118
      6 C6          0.0625   -4.5656   -0.5961 C.ar      1 <0>         0.1143
      7 C7          0.0688   -4.5275    0.7953 C.ar      1 <0>        -0.1747
      8 C8          0.0551   -3.3226    1.4635 C.ar      1 <0>        -0.0821
      9 C9          0.0357   -2.1316    0.7482 C.ar      1 <0>         0.0767
     10 N1          0.0240   -0.7990    1.1223 N.am      1 <0>        -0.5036
     11 C10         0.0297   -0.3494    2.3928 C.2       1 <0>         0.6020
     12 O1         -1.0174   -0.0751    2.9450 O.2       1 <0>        -0.4267
     13 C11         1.3084   -0.1902    3.1139 C.ar      1 <0>        -0.1659
     14 C12         2.5190   -0.3985    2.4491 C.ar      1 <0>        -0.0428
     15 C13         3.7097   -0.2483    3.1279 C.ar      1 <0>        -0.1207
     16 C14         3.7070    0.1084    4.4664 C.ar      1 <0>         0.0042
     17 C15         2.5096    0.3160    5.1314 C.ar      1 <0>        -0.1230
     18 C16         1.3125    0.1750    4.4621 C.ar      1 <0>        -0.0377
     19 Cl1         5.2103    0.2955    5.3141 Cl        1 <0>        -0.0516
     20 O2          0.0753   -5.7626   -1.2410 O.3       1 <0>        -0.3161
     21 C17         0.0954   -6.9375   -0.4278 C.3       1 <0>         0.0269
     22 C18        -0.0069   -0.2812   -2.5257 C.3       1 <0>        -0.0366
     23 C19         1.4090   -0.0991   -3.0085 C.2       1 <0>         0.4590
     24 O3          2.3347   -0.3399   -2.2703 O.2       1 <0>        -0.4942
     25 O4          1.6417    0.3305   -4.2587 O.3       1 <0>        -0.3493
     26 C20         3.0081    0.4805   -4.6494 C.3       1 <0>         0.0884
     27 C21         3.4792    1.8990   -4.3228 C.3       1 <0>        -0.1355
     28 C22         4.9421    2.0596   -4.7411 C.3       1 <0>        -0.1166
     29 C23         5.0725    1.8126   -6.2454 C.3       1 <0>        -0.1242
     30 C24         4.6014    0.3940   -6.5720 C.3       1 <0>        -0.1173
     31 C25         3.1385    0.2334   -6.1537 C.3       1 <0>        -0.1158
     32 H1          1.0044    1.8799    0.0025 H         1 <0>         0.0864
     33 H2         -0.5453    1.8638   -0.8729 H         1 <0>         0.0942
     34 H3         -0.5284    1.8543    0.9070 H         1 <0>         0.0725
     35 H4          0.0376   -3.4222   -2.4038 H         1 <0>         0.1335
     36 H5          0.0842   -5.4504    1.3560 H         1 <0>         0.1361
     37 H6          0.0595   -3.3039    2.5434 H         1 <0>         0.1231
     38 H7          2.5224   -0.6770    1.4056 H         1 <0>         0.1439
     39 H8          4.6464   -0.4095    2.6151 H         1 <0>         0.1451
     40 H9          2.5140    0.5936    6.1751 H         1 <0>         0.1467
     41 H10         0.3798    0.3418    4.9804 H         1 <0>         0.1480
     42 H11         0.9887   -6.9318    0.1968 H         1 <0>         0.0553
     43 H12        -0.7911   -6.9558    0.2062 H         1 <0>         0.0556
     44 H13         0.1040   -7.8210   -1.0660 H         1 <0>         0.1009
     45 H14        -0.5139   -1.0132   -3.1543 H         1 <0>         0.1176
     46 H15        -0.5343    0.6712   -2.5793 H         1 <0>         0.1150
     47 H16         3.6218   -0.2398   -4.1084 H         1 <0>         0.0830
     48 H17         2.8654    2.6193   -4.8639 H         1 <0>         0.0725
     49 H18         3.3863    2.0750   -3.2512 H         1 <0>         0.0662
     50 H19         5.2777    3.0702   -4.5085 H         1 <0>         0.0685
     51 H20         5.5558    1.3394   -4.2001 H         1 <0>         0.0647
     52 H21         4.4587    2.5328   -6.7864 H         1 <0>         0.0654
     53 H22         6.1147    1.9269   -6.5434 H         1 <0>         0.0663
     54 H23         4.6943    0.2180   -7.6437 H         1 <0>         0.0722
     55 H24         5.2151   -0.3262   -6.0310 H         1 <0>         0.0651
     56 H25         2.8029   -0.7772   -6.3864 H         1 <0>         0.0715
     57 H26         2.5247    0.9537   -6.6947 H         1 <0>         0.0750
@<TRIPOS>BOND
     1    1    2 1
     2    1   32 1
     3    1   33 1
     4    1   34 1
     5    2   10 1
     6    2    3 2
     7    3    4 1
     8    3   22 1
     9    4    9 ar
    10    4    5 ar
    11    5    6 ar
    12    5   35 1
    13    6    7 ar
    14    6   20 1
    15    7    8 ar
    16    7   36 1
    17    8    9 ar
    18    8   37 1
    19    9   10 1
    20   10   11 am
    21   11   12 2
    22   11   13 1
    23   13   18 ar
    24   13   14 ar
    25   14   15 ar
    26   14   38 1
    27   15   16 ar
    28   15   39 1
    29   16   17 ar
    30   16   19 1
    31   17   18 ar
    32   17   40 1
    33   18   41 1
    34   20   21 1
    35   21   42 1
    36   21   43 1
    37   21   44 1
    38   22   23 1
    39   22   45 1
    40   22   46 1
    41   23   24 2
    42   23   25 1
    43   25   26 1
    44   26   31 1
    45   26   27 1
    46   26   47 1
    47   27   28 1
    48   27   48 1
    49   27   49 1
    50   28   29 1
    51   28   50 1
    52   28   51 1
    53   29   30 1
    54   29   52 1
    55   29   53 1
    56   30   31 1
    57   30   54 1
    58   30   55 1
    59   31   56 1
    60   31   57 1
@<TRIPOS>MOLECULE
CHEMBL259429
   31    32     0     0     0
SMALL
USER_CHARGES

@<TRIPOS>ATOM
      1 C1         -0.0184    1.5028    0.0103 C.3       1 <0>        -0.1165
      2 C2          0.0021   -0.0041    0.0020 C.ar      1 <0>        -0.1038
      3 C3          0.0059   -0.6992   -1.1940 C.ar      1 <0>        -0.0763
      4 C4          0.0249   -2.0867   -1.1547 C.ar      1 <0>        -0.1545
      5 C5          0.0394   -2.7320    0.0688 C.ar      1 <0>         0.0993
      6 N1          0.0353   -2.0489    1.1945 N.ar      1 <0>        -0.4628
      7 C6          0.0232   -0.7191    1.2020 C.ar      1 <0>         0.2141
      8 C7          0.0259   -0.0151    2.4491 C.1       1 <0>        -0.0734
      9 C8          0.0282    0.5620    3.4714 C.1       1 <0>        -0.1089
     10 C9          0.0310    1.2659    4.7184 C.ar      1 <0>         0.0779
     11 C10         0.0068    2.6631    4.7361 C.ar      1 <0>        -0.1163
     12 C11         0.0097    3.3342    5.9409 C.ar      1 <0>        -0.0160
     13 C12         0.0364    2.6275    7.1304 C.ar      1 <0>        -0.6706
     14 C13         0.0604    1.2440    7.1208 C.ar      1 <0>        -0.0152
     15 C14         0.0520    0.5590    5.9237 C.ar      1 <0>        -0.1137
     16 S1          0.0404    3.4937    8.6648 S.o2      1 <0>         2.7022
     17 O1          0.6181    2.6185    9.6237 O.2       1 <0>        -0.9602
     18 O2          0.5660    4.7871    8.3996 O.2       1 <0>        -0.9605
     19 N2         -1.5401    3.7074    9.1106 N.pl3     1 <0>        -1.2494
     20 H1          1.0042    1.8801    0.0026 H         1 <0>         0.0797
     21 H2         -0.5455    1.8639   -0.8728 H         1 <0>         0.0764
     22 H3         -0.5286    1.8543    0.9071 H         1 <0>         0.0715
     23 H4         -0.0059   -0.1739   -2.1375 H         1 <0>         0.1435
     24 H5          0.0281   -2.6574   -2.0716 H         1 <0>         0.1432
     25 H6          0.0538   -3.8115    0.1011 H         1 <0>         0.1652
     26 H7         -0.0136    3.2159    3.8085 H         1 <0>         0.1409
     27 H8         -0.0086    4.4139    5.9561 H         1 <0>         0.1509
     28 H9          0.0811    0.6991    8.0530 H         1 <0>         0.1512
     29 H10         0.0659   -0.5209    5.9178 H         1 <0>         0.1423
     30 H11        -2.2531    3.3712    8.5454 H         1 <0>         0.4172
     31 H12        -1.7528    4.1687    9.9369 H         1 <0>         0.4223
@<TRIPOS>BOND
     1    1    2 1
     2    1   20 1
     3    1   21 1
     4    1   22 1
     5    2    7 ar
     6    2    3 ar
     7    3    4 ar
     8    3   23 1
     9    4    5 ar
    10    4   24 1
    11    5    6 ar
    12    5   25 1
    13    6    7 ar
    14    7    8 1
    15    8    9 3
    16    9   10 1
    17   10   15 ar
    18   10   11 ar
    19   11   12 ar
    20   11   26 1
    21   12   13 ar
    22   12   27 1
    23   13   14 ar
    24   13   16 1
    25   14   15 ar
    26   14   28 1
    27   15   29 1
    28   16   17 2
    29   16   18 2
    30   16   19 1
    31   19   30 1
    32   19   31 1
@<TRIPOS>MOLECULE
CHEMBL95156
   43    46     0     0     0
SMALL
USER_CHARGES

@<TRIPOS>ATOM
      1 C1         -0.0225    1.8097    0.0120 C.3       1 <0>        -0.6485
      2 S1          0.0021   -0.0041    0.0020 S.o2      1 <0>         2.4969
      3 O1          0.8352   -0.4880    1.0465 O.2       1 <0>        -0.9355
      4 O2         -1.3147   -0.5105   -0.1678 O.2       1 <0>        -0.9357
      5 C2          0.8454   -0.4373   -1.4831 C.ar      1 <0>        -0.6518
      6 C3          0.1314   -0.6121   -2.6550 C.ar      1 <0>        -0.0163
      7 C4          0.7865   -0.9519   -3.8211 C.ar      1 <0>        -0.1270
      8 C5          2.1706   -1.1185   -3.8167 C.ar      1 <0>         0.0029
      9 C6          2.8849   -0.9406   -2.6328 C.ar      1 <0>        -0.1174
     10 C7          2.2196   -0.5958   -1.4740 C.ar      1 <0>        -0.0141
     11 C8          2.8800   -1.4840   -5.0660 C.ar      1 <0>        -0.0875
     12 C9          2.4360   -2.5515   -5.8485 C.ar      1 <0>        -0.0441
     13 C10         3.1329   -2.8533   -7.0077 C.ar      1 <0>        -0.0889
     14 C11         4.2395   -2.0952   -7.3544 C.ar      1 <0>         0.1296
     15 N1          4.6414   -1.0923   -6.6011 N.ar      1 <0>        -0.4559
     16 C12         4.0063   -0.7591   -5.4858 C.ar      1 <0>         0.1951
     17 C13         4.4921    0.3819   -4.6745 C.ar      1 <0>        -0.1174
     18 C14         5.8603    0.6570   -4.5823 C.ar      1 <0>        -0.0287
     19 C15         6.2626    1.7342   -3.8123 C.ar      1 <0>        -0.1738
     20 C16         5.3078    2.4971   -3.1645 C.ar      1 <0>         0.1754
     21 N2          4.0240    2.2135   -3.2699 N.ar      1 <0>        -0.4753
     22 C17         3.5927    1.2020   -3.9953 C.ar      1 <0>         0.1358
     23 C18         5.7413    3.6708   -2.3244 C.3       1 <0>        -0.1149
     24 C19         7.2138    3.7408   -1.9148 C.3       1 <0>        -0.1718
     25 C20         6.1465    3.3914   -0.8758 C.3       1 <0>        -0.1589
     26 Cl1         2.6239   -4.1709   -8.0168 Cl        1 <0>        -0.0401
     27 H1          1.0001    2.1870    0.0043 H         1 <0>         0.1342
     28 H2         -0.5497    2.1708   -0.8711 H         1 <0>         0.1328
     29 H3         -0.5327    2.1613    0.9088 H         1 <0>         0.1342
     30 H4         -0.9408   -0.4828   -2.6572 H         1 <0>         0.1489
     31 H5          0.2279   -1.0888   -4.7353 H         1 <0>         0.1387
     32 H6          3.9572   -1.0688   -2.6235 H         1 <0>         0.1318
     33 H7          2.7725   -0.4534   -0.5572 H         1 <0>         0.1457
     34 H8          1.5707   -3.1284   -5.5574 H         1 <0>         0.1541
     35 H9          4.7822   -2.3309   -8.2579 H         1 <0>         0.1737
     36 H10         6.5844    0.0442   -5.0987 H         1 <0>         0.1437
     37 H11         7.3109    1.9763   -3.7179 H         1 <0>         0.1428
     38 H12         2.5330    1.0038   -4.0608 H         1 <0>         0.1590
     39 H13         5.2310    4.6114   -2.5318 H         1 <0>         0.1246
     40 H14         7.8690    2.9380   -2.2530 H         1 <0>         0.0999
     41 H15         7.6725    4.7277   -1.8528 H         1 <0>         0.1044
     42 H16         5.9031    4.1483   -0.1302 H         1 <0>         0.1033
     43 H17         6.0995    2.3586   -0.5303 H         1 <0>         0.0960
@<TRIPOS>BOND
     1    1    2 1
     2    1   27 1
     3    1   28 1
     4    1   29 1
     5    2    3 2
     6    2    4 2
     7    2    5 1
     8    5   10 ar
     9    5    6 ar
    10    6    7 ar
    11    6   30 1
    12    7    8 ar
    13    7   31 1
    14    8    9 ar
    15    8   11 1
    16    9   10 ar
    17    9   32 1
    18   10   33 1
    19   11   16 ar
    20   11   12 ar
    21   12   13 ar
    22   12   34 1
    23   13   14 ar
    24   13   26 1
    25   14   15 ar
    26   14   35 1
    27   15   16 ar
    28   16   17 1
    29   17   22 ar
    30   17   18 ar
    31   18   19 ar
    32   18   36 1
    33   19   20 ar
    34   19   37 1
    35   20   21 ar
    36   20   23 1
    37   21   22 ar
    38   22   38 1
    39   23   25 1
    40   23   24 1
    41   23   39 1
    42   24   25 1
    43   24   40 1
    44   24   41 1
    45   25   42 1
    46   25   43 1
@<TRIPOS>MOLECULE
CHEMBL15945
   46    47     0     0     0
SMALL
USER_CHARGES

@<TRIPOS>ATOM
      1 C1         -0.8911    1.0357   -0.5617 C.3       1 <0>        -0.1438
      2 C2         -0.8275   -0.4834   -0.7321 C.3       1 <0>        -0.0169
      3 C3         -0.3560   -1.1239    0.5749 C.3       1 <0>        -0.1382
      4 C4         -2.2172   -1.0152   -1.0884 C.3       1 <0>        -0.1387
      5 C5          0.1394   -0.8250   -1.8363 C.ar      1 <0>        -0.1303
      6 C6          0.7878    0.1653   -2.4886 C.ar      1 <0>        -0.1142
      7 C7          1.7268   -0.1755   -3.5609 C.ar      1 <0>        -0.0378
      8 C8          1.9362   -1.5869   -3.8959 C.ar      1 <0>        -0.0757
      9 C9          1.2616   -2.5372   -3.2116 C.ar      1 <0>        -0.1269
     10 C10         0.3645   -2.1802   -2.1768 C.ar      1 <0>         0.1293
     11 O1         -0.2291   -3.0568   -1.5698 O.3       1 <0>        -0.4438
     12 C11         1.4710   -3.9908   -3.5496 C.3       1 <0>        -0.0172
     13 C12         2.4849   -4.1084   -4.6894 C.3       1 <0>        -0.1432
     14 C13         1.9995   -4.7297   -2.3186 C.3       1 <0>        -0.1364
     15 C14         0.1410   -4.6100   -3.9841 C.3       1 <0>        -0.1375
     16 C15         2.4078    0.8239   -4.2496 C.2       1 <0>        -0.1084
     17 C16         3.6090    0.5185   -4.9373 C.2       1 <0>         0.0505
     18 C17         4.3576    1.4052   -5.8708 C.2       1 <0>         0.4977
     19 O2          4.0684    2.5375   -6.2016 O.2       1 <0>        -0.5051
     20 N1          5.4269    0.6826   -6.2718 N.am      1 <0>        -0.6695
     21 C18         5.3705   -0.5180   -5.6699 C.2       1 <0>         0.4725
     22 S1          6.5247   -1.7644   -5.8828 S.2       1 <0>        -0.6997
     23 N2          4.2949   -0.6075   -4.8764 N.2       1 <0>        -0.5541
     24 H1          0.0989    1.4146   -0.3078 H         1 <0>         0.0582
     25 H2         -1.2270    1.4921   -1.4928 H         1 <0>         0.0570
     26 H3         -1.5905    1.2828    0.2370 H         1 <0>         0.0520
     27 H4         -1.0554   -0.8769    1.3736 H         1 <0>         0.0466
     28 H5         -0.3107   -2.2062    0.4535 H         1 <0>         0.0715
     29 H6          0.6340   -0.7451    0.8288 H         1 <0>         0.0506
     30 H7         -2.5531   -0.5589   -2.0196 H         1 <0>         0.0530
     31 H8         -2.1719   -2.0975   -1.2098 H         1 <0>         0.0549
     32 H9         -2.9165   -0.7682   -0.2897 H         1 <0>         0.0538
     33 H10         0.6153    1.1977   -2.2224 H         1 <0>         0.1213
     34 H11         2.6225   -1.8647   -4.6822 H         1 <0>         0.1563
     35 H12        -1.0785   -3.3009   -1.9624 H         1 <0>         0.3665
     36 H13         3.4323   -3.6673   -4.3799 H         1 <0>         0.0745
     37 H14         2.6363   -5.1598   -4.9339 H         1 <0>         0.0487
     38 H15         2.1083   -3.5820   -5.5665 H         1 <0>         0.0519
     39 H16         1.2772   -4.6459   -1.5066 H         1 <0>         0.0670
     40 H17         2.1509   -5.7811   -2.5631 H         1 <0>         0.0470
     41 H18         2.9470   -4.2886   -2.0090 H         1 <0>         0.0533
     42 H19        -0.2355   -4.0836   -4.8612 H         1 <0>         0.0514
     43 H20         0.2924   -5.6614   -4.2287 H         1 <0>         0.0545
     44 H21        -0.5813   -4.5261   -3.1722 H         1 <0>         0.0512
     45 H22         2.0210    1.8322   -4.2600 H         1 <0>         0.1248
     46 H23         6.1157    0.9790   -6.8871 H         1 <0>         0.4212
@<TRIPOS>BOND
     1    1    2 1
     2    1   24 1
     3    1   25 1
     4    1   26 1
     5    2    3 1
     6    2    4 1
     7    2    5 1
     8    3   27 1
     9    3   28 1
    10    3   29 1
    11    4   30 1
    12    4   31 1
    13    4   32 1
    14    5   10 ar
    15    5    6 ar
    16    6    7 ar
    17    6   33 1
    18    7    8 ar
    19    7   16 1
    20    8    9 ar
    21    8   34 1
    22    9   10 ar
    23    9   12 1
    24   10   11 1
    25   11   35 1
    26   12   13 1
    27   12   14 1
    28   12   15 1
    29   13   36 1
    30   13   37 1
    31   13   38 1
    32   14   39 1
    33   14   40 1
    34   14   41 1
    35   15   42 1
    36   15   43 1
    37   15   44 1
    38   16   17 1
    39   16   45 1
    40   17   23 2
    41   17   18 1
    42   18   19 2
    43   18   20 am
    44   20   21 1
    45   20   46 1
    46   21   22 2
    47   21   23 1
@<TRIPOS>MOLECULE
CHEMBL15945__1
   45    46     0     0     0
SMALL
USER_CHARGES

@<TRIPOS>ATOM
      1 C1         -0.1064    1.6580   -0.0649 C.3       1 <0>        -0.1405
      2 C2         -0.1813    0.1300   -0.0825 C.3       1 <0>        -0.0157
      3 C3          0.4850   -0.4278    1.1768 C.3       1 <0>        -0.1313
      4 C4         -1.6467   -0.3084   -0.1209 C.3       1 <0>        -0.1331
      5 C5          0.5319   -0.3939   -1.3023 C.ar      1 <0>        -0.1030
      6 C6          1.1111    0.4727   -2.1633 C.ar      1 <0>        -0.1274
      7 C7          1.8024   -0.0447   -3.3465 C.ar      1 <0>         0.0485
      8 C8          1.8461   -1.4927   -3.5632 C.ar      1 <0>        -0.1790
      9 C9          1.2501   -2.3147   -2.6704 C.ar      1 <0>        -0.1050
     10 C10         0.5941   -1.7884   -1.5328 C.ar      1 <0>         0.0425
     11 O1          0.0678   -2.5510   -0.7385 O.3       1 <0>        -0.4395
     12 C11         1.2899   -3.8056   -2.8861 C.3       1 <0>        -0.0156
     13 C12         2.0570   -4.1145   -4.1733 C.3       1 <0>        -0.1399
     14 C13         1.9912   -4.4737   -1.7017 C.3       1 <0>        -0.1337
     15 C14        -0.1381   -4.3425   -3.0021 C.3       1 <0>        -0.1346
     16 C15         2.4077    0.8257   -4.2507 C.2       1 <0>        -0.2504
     17 C16         2.7648    2.1331   -3.8435 C.2       1 <0>         0.1317
     18 C17         3.2269    3.2475   -4.7120 C.2       1 <0>         0.4158
     19 O2          3.3910    3.2187   -6.0524 O.3       1 <0>        -0.6451
     20 N1          3.4423    4.2656   -3.9118 N.2       1 <0>        -0.6725
     21 C18         3.1627    3.8957   -2.6508 C.2       1 <0>         0.4892
     22 S1          3.3043    4.9153   -1.2828 S.2       1 <0>        -0.7661
     23 N2          2.7506    2.6170   -2.6119 N.2       1 <0>        -0.6319
     24 H1          0.9375    1.9703   -0.0375 H         1 <0>         0.0756
     25 H2         -0.5811    2.0554   -0.9620 H         1 <0>         0.0514
     26 H3         -0.6223    2.0369    0.8174 H         1 <0>         0.0403
     27 H4         -0.0308   -0.0489    2.0590 H         1 <0>         0.0393
     28 H5          0.4317   -1.5165    1.1642 H         1 <0>         0.0654
     29 H6          1.5290   -0.1155    1.2042 H         1 <0>         0.0514
     30 H7         -2.1214    0.0890   -1.0180 H         1 <0>         0.0485
     31 H8         -1.7000   -1.3970   -0.1335 H         1 <0>         0.0513
     32 H9         -2.1625    0.0705    0.7614 H         1 <0>         0.0464
     33 H10         1.0643    1.5362   -1.9806 H         1 <0>         0.1515
     34 H11         2.3491   -1.8997   -4.4280 H         1 <0>         0.1081
     35 H12        -0.8555   -2.7545   -0.9413 H         1 <0>         0.3352
     36 H13         3.0744   -3.7321   -4.0907 H         1 <0>         0.0574
     37 H14         2.0858   -5.1929   -4.3293 H         1 <0>         0.0436
     38 H15         1.5574   -3.6385   -5.0171 H         1 <0>         0.0559
     39 H16         1.4447   -4.2537   -0.7846 H         1 <0>         0.0712
     40 H17         2.0200   -5.5521   -1.8577 H         1 <0>         0.0384
     41 H18         3.0086   -4.0913   -1.6190 H         1 <0>         0.0484
     42 H19        -0.6377   -3.8665   -3.8459 H         1 <0>         0.0502
     43 H20        -0.1093   -5.4209   -3.1581 H         1 <0>         0.0455
     44 H21        -0.6846   -4.1224   -2.0850 H         1 <0>         0.0554
     45 H22         2.6043    0.5025   -5.2623 H         1 <0>         0.1063
@<TRIPOS>BOND
     1    1    2 1
     2    1   24 1
     3    1   25 1
     4    1   26 1
     5    2    3 1
     6    2    4 1
     7    2    5 1
     8    3   27 1
     9    3   28 1
    10    3   29 1
    11    4   30 1
    12    4   31 1
    13    4   32 1
    14    5   10 ar
    15    5    6 ar
    16    6    7 ar
    17    6   33 1
    18    7    8 ar
    19    7   16 1
    20    8    9 ar
    21    8   34 1
    22    9   10 ar
    23    9   12 1
    24   10   11 1
    25   11   35 1
    26   12   13 1
    27   12   14 1
    28   12   15 1
    29   13   36 1
    30   13   37 1
    31   13   38 1
    32   14   39 1
    33   14   40 1
    34   14   41 1
    35   15   42 1
    36   15   43 1
    37   15   44 1
    38   16   17 1
    39   16   45 1
    40   17   23 2
    41   17   18 1
    42   18   19 1
    43   18   20 2
    44   20   21 1
    45   21   22 2
    46   21   23 1
@<TRIPOS>MOLECULE
CHEMBL15904
   55    56     0     0     0
SMALL
USER_CHARGES

@<TRIPOS>ATOM
      1 C1         -0.6985    1.1020   -0.6209 C.3       1 <0>        -0.1461
      2 C2         -0.9651   -0.3356   -1.0716 C.3       1 <0>        -0.0189
      3 C3         -0.6127   -1.2994    0.0632 C.3       1 <0>        -0.1401
      4 C4         -2.4439   -0.4911   -1.4321 C.3       1 <0>        -0.1397
      5 C5         -0.1182   -0.6491   -2.2780 C.ar      1 <0>        -0.0933
      6 C6          0.7294    0.3072   -2.7896 C.ar      1 <0>        -0.1075
      7 C7          1.5162    0.0143   -3.9106 C.ar      1 <0>        -0.0359
      8 C8          1.4356   -1.2514   -4.5050 C.ar      1 <0>        -0.0988
      9 C9          0.5845   -2.2000   -3.9852 C.ar      1 <0>        -0.0935
     10 C10        -0.1904   -1.9055   -2.8689 C.ar      1 <0>         0.1048
     11 O1         -1.0242   -2.8465   -2.3572 O.3       1 <0>        -0.4856
     12 C11         0.4965   -3.5623   -4.6236 C.3       1 <0>        -0.0186
     13 C12         1.4375   -3.6225   -5.8285 C.3       1 <0>        -0.1494
     14 C13         0.9026   -4.6298   -3.6055 C.3       1 <0>        -0.1401
     15 C14        -0.9397   -3.8175   -5.0849 C.3       1 <0>        -0.1393
     16 C15         2.4219    1.0304   -4.4610 C.2       1 <0>        -0.1435
     17 C16         3.7100    0.7095   -4.7441 C.2       1 <0>         0.0521
     18 C17         4.7009    1.5225   -5.4730 C.2       1 <0>         0.5183
     19 O2          4.5287    2.6328   -5.9499 O.2       1 <0>        -0.5342
     20 N1          5.8288    0.7984   -5.5072 N.2       1 <0>        -0.6972
     21 C18         5.6563   -0.3512   -4.8941 C.2       1 <0>         0.6047
     22 N2          4.3929   -0.4633   -4.4035 N.pl3     1 <0>        -0.5577
     23 C19         3.8475   -1.6013   -3.6594 C.3       1 <0>         0.1056
     24 N3          6.6279   -1.3129   -4.7615 N.2       1 <0>        -0.6838
     25 C20         7.8636   -1.1306   -5.3478 C.2       1 <0>         0.6204
     26 N4          8.9235   -1.6662   -4.8131 N.2       1 <0>        -0.8499
     27 N5          7.9759   -0.3837   -6.4964 N.pl3     1 <0>        -0.8598
     28 H1          0.3550    1.2128   -0.3641 H         1 <0>         0.0592
     29 H2         -0.9495    1.7887   -1.4294 H         1 <0>         0.0582
     30 H3         -1.3110    1.3288    0.2517 H         1 <0>         0.0553
     31 H4         -1.2252   -1.0727    0.9359 H         1 <0>         0.0498
     32 H5         -0.8027   -2.3236   -0.2578 H         1 <0>         0.0744
     33 H6          0.4408   -1.1886    0.3201 H         1 <0>         0.0508
     34 H7         -2.6949    0.1956   -2.2405 H         1 <0>         0.0533
     35 H8         -2.6338   -1.5153   -1.7531 H         1 <0>         0.0574
     36 H9         -3.0564   -0.2644   -0.5594 H         1 <0>         0.0563
     37 H10         0.7875    1.2816   -2.3275 H         1 <0>         0.1292
     38 H11         2.0398   -1.4824   -5.3699 H         1 <0>         0.1293
     39 H12        -1.9131   -2.8333   -2.7379 H         1 <0>         0.3749
     40 H13         2.4690   -3.5281   -5.4890 H         1 <0>         0.0613
     41 H14         1.3098   -4.5755   -6.3420 H         1 <0>         0.0572
     42 H15         1.2042   -2.8069   -6.5129 H         1 <0>         0.0574
     43 H16         0.2322   -4.5869   -2.7471 H         1 <0>         0.0734
     44 H17         0.8390   -5.6151   -4.0673 H         1 <0>         0.0510
     45 H18         1.9258   -4.4479   -3.2769 H         1 <0>         0.0527
     46 H19        -1.2290   -3.0570   -5.8102 H         1 <0>         0.0527
     47 H20        -1.0033   -4.8028   -5.5467 H         1 <0>         0.0569
     48 H21        -1.6101   -3.7746   -4.2265 H         1 <0>         0.0571
     49 H22         2.0631    2.0331   -4.6406 H         1 <0>         0.1435
     50 H23         3.3709   -2.2941   -4.3529 H         1 <0>         0.0589
     51 H24         4.6543   -2.1114   -3.1331 H         1 <0>         0.0772
     52 H25         3.1117   -1.2450   -2.9385 H         1 <0>         0.0673
     53 H26         7.1865    0.0152   -6.8946 H         1 <0>         0.4060
     54 H27         8.8446   -0.2556   -6.9086 H         1 <0>         0.3810
     55 H28         8.8358   -2.2527   -4.0454 H         1 <0>         0.3254
@<TRIPOS>BOND
     1    1    2 1
     2    1   28 1
     3    1   29 1
     4    1   30 1
     5    2    3 1
     6    2    4 1
     7    2    5 1
     8    3   31 1
     9    3   32 1
    10    3   33 1
    11    4   34 1
    12    4   35 1
    13    4   36 1
    14    5   10 ar
    15    5    6 ar
    16    6    7 ar
    17    6   37 1
    18    7    8 ar
    19    7   16 1
    20    8    9 ar
    21    8   38 1
    22    9   10 ar
    23    9   12 1
    24   10   11 1
    25   11   39 1
    26   12   13 1
    27   12   14 1
    28   12   15 1
    29   13   40 1
    30   13   41 1
    31   13   42 1
    32   14   43 1
    33   14   44 1
    34   14   45 1
    35   15   46 1
    36   15   47 1
    37   15   48 1
    38   16   17 2
    39   16   49 1
    40   17   22 1
    41   17   18 1
    42   18   19 2
    43   18   20 1
    44   20   21 2
    45   21   22 1
    46   21   24 1
    47   22   23 1
    48   23   50 1
    49   23   51 1
    50   23   52 1
    51   24   25 1
    52   25   26 2
    53   25   27 1
    54   26   55 1
    55   27   53 1
    56   27   54 1
@<TRIPOS>MOLECULE
CHEMBL15904__1
   56    57     0     0     0
SMALL
USER_CHARGES

@<TRIPOS>ATOM
      1 C1         -1.6512   -1.1297   -3.5830 C.3       1 <0>        -0.1476
      2 C2         -1.3965   -2.6383   -3.5754 C.3       1 <0>        -0.0207
      3 C3         -1.0350   -3.0874   -2.1582 C.3       1 <0>        -0.1415
      4 C4         -2.6581   -3.3709   -4.0363 C.3       1 <0>        -0.1421
      5 C5         -0.2589   -2.9603   -4.5099 C.ar      1 <0>        -0.0915
      6 C6          0.3711   -1.9490   -5.1995 C.ar      1 <0>        -0.0933
      7 C7          1.4280   -2.2497   -6.0675 C.ar      1 <0>        -0.0734
      8 C8          1.8381   -3.5788   -6.2290 C.ar      1 <0>        -0.0931
      9 C9          1.2011   -4.5823   -5.5344 C.ar      1 <0>        -0.0952
     10 C10         0.1561   -4.2774   -4.6697 C.ar      1 <0>         0.1246
     11 O1         -0.4647   -5.2702   -3.9827 O.3       1 <0>        -0.4847
     12 C11         1.6413   -6.0132   -5.7071 C.3       1 <0>        -0.0199
     13 C12         2.8019   -6.0731   -6.7023 C.3       1 <0>        -0.1486
     14 C13         2.0968   -6.5730   -4.3581 C.3       1 <0>        -0.1415
     15 C14         0.4722   -6.8461   -6.2364 C.3       1 <0>        -0.1420
     16 C15         2.1035   -1.1750   -6.8061 C.2       1 <0>        -0.0543
     17 C16         3.4585   -1.1152   -6.8284 C.2       1 <0>        -0.0005
     18 C17         4.3064   -0.2535   -7.6738 C.2       1 <0>         0.5292
     19 O2          3.9257    0.5584   -8.5026 O.2       1 <0>        -0.4838
     20 N1          5.5734   -0.5354   -7.3538 N.2       1 <0>        -0.6798
     21 C18         5.6176   -1.4656   -6.4142 C.2       1 <0>         0.6377
     22 N2          4.3571   -1.8528   -6.0504 N.pl3     1 <0>        -0.5364
     23 C19         4.0129   -2.8543   -5.0381 C.3       1 <0>         0.0925
     24 N3          6.7470   -1.9591   -5.8853 N.2       1 <0>        -0.6342
     25 C20         7.9153   -1.4279   -6.2069 C.2       1 <0>         0.7153
     26 N4          7.9637   -0.2892   -6.9579 N.pl3     1 <0>        -0.8405
     27 N5          9.0722   -2.0187   -5.7877 N.pl3     1 <0>        -0.8143
     28 H1         -0.7524   -0.6078   -3.2546 H         1 <0>         0.0584
     29 H2         -1.9088   -0.8098   -4.5926 H         1 <0>         0.0588
     30 H3         -2.4740   -0.8968   -2.9071 H         1 <0>         0.0598
     31 H4         -1.8578   -2.8545   -1.4823 H         1 <0>         0.0543
     32 H5         -0.8534   -4.1621   -2.1528 H         1 <0>         0.0751
     33 H6         -0.1361   -2.5654   -1.8298 H         1 <0>         0.0505
     34 H7         -2.9156   -3.0510   -5.0460 H         1 <0>         0.0547
     35 H8         -2.4766   -4.4457   -4.0309 H         1 <0>         0.0579
     36 H9         -3.4809   -3.1380   -3.3604 H         1 <0>         0.0608
     37 H10         0.0505   -0.9257   -5.0715 H         1 <0>         0.1341
     38 H11         2.6525   -3.8163   -6.8974 H         1 <0>         0.1299
     39 H12        -1.2187   -5.6582   -4.4475 H         1 <0>         0.3825
     40 H13         3.6648   -5.5534   -6.2858 H         1 <0>         0.0571
     41 H14         3.0625   -7.1139   -6.8943 H         1 <0>         0.0614
     42 H15         2.5053   -5.5946   -7.6357 H         1 <0>         0.0574
     43 H16         1.2700   -6.5303   -3.6491 H         1 <0>         0.0760
     44 H17         2.4153   -7.6079   -4.4830 H         1 <0>         0.0546
     45 H18         2.9298   -5.9796   -3.9810 H         1 <0>         0.0509
     46 H19         0.1476   -6.4473   -7.1975 H         1 <0>         0.0543
     47 H20         0.7906   -7.8810   -6.3614 H         1 <0>         0.0610
     48 H21        -0.3547   -6.8034   -5.5275 H         1 <0>         0.0584
     49 H22         1.5215   -0.4324   -7.3316 H         1 <0>         0.1552
     50 H23         3.9074   -3.8296   -5.5132 H         1 <0>         0.0717
     51 H24         4.8025   -2.8990   -4.2880 H         1 <0>         0.0844
     52 H25         3.0727   -2.5794   -4.5600 H         1 <0>         0.0818
     53 H26         7.2266    0.3408   -6.9316 H         1 <0>         0.4350
     54 H27         9.0378   -2.8280   -5.2540 H         1 <0>         0.4265
     55 H28         9.9287   -1.6293   -6.0235 H         1 <0>         0.4171
     56 H29         8.7352   -0.1099   -7.5178 H         1 <0>         0.3999
@<TRIPOS>BOND
     1    1    2 1
     2    1   28 1
     3    1   29 1
     4    1   30 1
     5    2    3 1
     6    2    4 1
     7    2    5 1
     8    3   31 1
     9    3   32 1
    10    3   33 1
    11    4   34 1
    12    4   35 1
    13    4   36 1
    14    5   10 ar
    15    5    6 ar
    16    6    7 ar
    17    6   37 1
    18    7    8 ar
    19    7   16 1
    20    8    9 ar
    21    8   38 1
    22    9   10 ar
    23    9   12 1
    24   10   11 1
    25   11   39 1
    26   12   13 1
    27   12   14 1
    28   12   15 1
    29   13   40 1
    30   13   41 1
    31   13   42 1
    32   14   43 1
    33   14   44 1
    34   14   45 1
    35   15   46 1
    36   15   47 1
    37   15   48 1
    38   16   17 2
    39   16   49 1
    40   17   22 1
    41   17   18 1
    42   18   19 2
    43   18   20 1
    44   20   21 2
    45   21   22 1
    46   21   24 1
    47   22   23 1
    48   23   50 1
    49   23   51 1
    50   23   52 1
    51   24   25 2
    52   25   26 1
    53   25   27 1
    54   26   53 1
    55   26   56 1
    56   27   54 1
    57   27   55 1
@<TRIPOS>MOLECULE
CHEMBL298672
   32    34     0     0     0
SMALL
USER_CHARGES

@<TRIPOS>ATOM
      1 C1         -0.0141    1.3754   -0.1060 C.ar      1 <0>        -0.1146
      2 C2          0.4709    0.9222    1.1093 C.ar      1 <0>        -0.1107
      3 C3          1.6799    0.2571    1.1749 C.ar      1 <0>        -0.1178
      4 C4          2.4171    0.0391    0.0198 C.ar      1 <0>         0.1689
      5 C5          1.9287    0.4969   -1.2127 C.ar      1 <0>         0.0159
      6 C6          0.7057    1.1673   -1.2641 C.ar      1 <0>        -0.0940
      7 C7          2.7041    0.2713   -2.4485 C.2       1 <0>         0.1053
      8 N1          3.8135   -0.4196   -2.5538 N.2       1 <0>        -0.2390
      9 N2          4.2115   -0.4059   -3.7771 N.2       1 <0>        -0.3400
     10 C8          3.3714    0.2949   -4.5022 C.2       1 <0>         0.3413
     11 S1          3.4912    0.5998   -6.2335 S.3       1 <0>        -0.7255
     12 O1          2.3981    0.7341   -3.6810 O.3       1 <0>        -0.2389
     13 N3          3.6379   -0.6316    0.0840 N.pl3     1 <0>        -0.6827
     14 C9          4.8339    0.0843   -0.0088 C.ar      1 <0>         0.2460
     15 C10         4.8137    1.4735   -0.0344 C.ar      1 <0>        -0.1577
     16 C11         5.9978    2.1779   -0.1257 C.ar      1 <0>        -0.0768
     17 C12         7.2029    1.5024   -0.1916 C.ar      1 <0>        -0.1336
     18 C13         7.2266    0.1201   -0.1667 C.ar      1 <0>        -0.1373
     19 C14         6.0464   -0.5908   -0.0698 C.ar      1 <0>        -0.1259
     20 C15         8.5421   -0.6115   -0.2392 C.3       1 <0>         0.5085
     21 F1          9.5868    0.3150   -0.3256 F         1 <0>        -0.1800
     22 F2          8.7053   -1.3925    0.9099 F         1 <0>        -0.1815
     23 F3          8.5555   -1.4361   -1.3693 F         1 <0>        -0.1725
     24 H1         -0.9625    1.8904   -0.1478 H         1 <0>         0.1291
     25 H2         -0.0993    1.0899    2.0111 H         1 <0>         0.1278
     26 H3          2.0519   -0.0932    2.1264 H         1 <0>         0.1315
     27 H4          0.3231    1.5224   -2.2096 H         1 <0>         0.1328
     28 H5          3.6567   -1.5953    0.1931 H         1 <0>         0.4107
     29 H6          3.8730    2.0015    0.0166 H         1 <0>         0.1227
     30 H7          5.9828    3.2576   -0.1461 H         1 <0>         0.1284
     31 H8          8.1276    2.0559   -0.2629 H         1 <0>         0.1304
     32 H9          6.0659   -1.6703   -0.0455 H         1 <0>         0.1294
@<TRIPOS>BOND
     1    1    6 ar
     2    1    2 ar
     3    1   24 1
     4    2    3 ar
     5    2   25 1
     6    3    4 ar
     7    3   26 1
     8    4    5 ar
     9    4   13 1
    10    5    6 ar
    11    5    7 1
    12    6   27 1
    13    7   12 1
    14    7    8 2
    15    8    9 1
    16    9   10 2
    17   10   11 1
    18   10   12 1
    19   13   14 1
    20   13   28 1
    21   14   19 ar
    22   14   15 ar
    23   15   16 ar
    24   15   29 1
    25   16   17 ar
    26   16   30 1
    27   17   18 ar
    28   17   31 1
    29   18   19 ar
    30   18   20 1
    31   19   32 1
    32   20   21 1
    33   20   22 1
    34   20   23 1
@<TRIPOS>MOLECULE
CHEMBL304489
   60    62     0     0     0
SMALL
USER_CHARGES

@<TRIPOS>ATOM
      1 C1         -0.5287    1.5133   -0.3216 C.3       1 <0>        -0.1493
      2 C2         -0.3665   -0.0052   -0.2289 C.3       1 <0>        -0.0267
      3 C3          0.2724   -0.3689    1.1129 C.3       1 <0>        -0.1450
      4 C4         -1.7392   -0.6723   -0.3376 C.3       1 <0>        -0.1419
      5 C5          0.5159   -0.4857   -1.3521 C.ar      1 <0>        -0.0778
      6 C6          1.0365    0.4183   -2.2533 C.ar      1 <0>        -0.1290
      7 C7          1.8537   -0.0277   -3.2933 C.ar      1 <0>        -0.1145
      8 C8          2.1404   -1.3881   -3.4164 C.ar      1 <0>        -0.0763
      9 C9          1.6160   -2.2859   -2.5112 C.ar      1 <0>        -0.0912
     10 C10         0.8081   -1.8376   -1.4746 C.ar      1 <0>         0.1398
     11 O1          0.2976   -2.7248   -0.5811 O.3       1 <0>        -0.4818
     12 C11         1.9246   -3.7550   -2.6434 C.3       1 <0>        -0.0217
     13 C12         2.8326   -3.9784   -3.8544 C.3       1 <0>        -0.1489
     14 C13         2.6326   -4.2434   -1.3781 C.3       1 <0>        -0.1442
     15 C14         0.6218   -4.5348   -2.8320 C.3       1 <0>        -0.1427
     16 C15         2.4134    0.9379   -4.2618 C.2       1 <0>         0.1027
     17 C16         2.7398    2.1605   -3.8658 C.2       1 <0>        -0.6950
     18 C17         3.2086    3.3461   -4.6993 C.3       1 <0>        -0.0951
     19 C18         4.1264    4.1992   -3.8214 C.3       1 <0>         0.0692
     20 N1          3.6829    4.2130   -2.4217 N.pl3     1 <0>        -0.9347
     21 S1          2.7366    2.8460   -2.2214 S.o2      1 <0>         2.6405
     22 O2          1.4120    3.2789   -1.9435 O.2       1 <0>        -0.9421
     23 O3          3.4569    1.9503   -1.3858 O.2       1 <0>        -0.9314
     24 C19         3.9851    5.1746   -1.4538 C.ar      1 <0>         0.2140
     25 C20         5.1348    5.9448   -1.5733 C.ar      1 <0>        -0.1389
     26 C21         5.4308    6.8947   -0.6155 C.ar      1 <0>        -0.0731
     27 C22         4.5833    7.0793    0.4628 C.ar      1 <0>        -0.0624
     28 C23         3.4372    6.3135    0.5844 C.ar      1 <0>        -0.0653
     29 C24         3.1334    5.3660   -0.3735 C.ar      1 <0>        -0.1658
     30 Cl1         4.9590    8.2736    1.6654 Cl        1 <0>        -0.0646
     31 H1          0.4492    1.9886   -0.2441 H         1 <0>         0.0605
     32 H2         -0.9839    1.7725   -1.2775 H         1 <0>         0.0620
     33 H3         -1.1669    1.8608    0.4908 H         1 <0>         0.0625
     34 H4         -0.3658   -0.0214    1.9253 H         1 <0>         0.0583
     35 H5          0.3879   -1.4508    1.1789 H         1 <0>         0.0761
     36 H6          1.2503    0.1063    1.1904 H         1 <0>         0.0540
     37 H7         -2.1943   -0.4132   -1.2936 H         1 <0>         0.0554
     38 H8         -1.6236   -1.7541   -0.2716 H         1 <0>         0.0582
     39 H9         -2.3774   -0.3248    0.4748 H         1 <0>         0.0644
     40 H10         0.8121    1.4701   -2.1550 H         1 <0>         0.1471
     41 H11         2.7720   -1.7371   -4.2200 H         1 <0>         0.1400
     42 H12        -0.5614   -3.0889   -0.8353 H         1 <0>         0.3858
     43 H13         3.7607   -3.4229   -3.7200 H         1 <0>         0.0598
     44 H14         3.0558   -5.0411   -3.9501 H         1 <0>         0.0624
     45 H15         2.3282   -3.6305   -4.7558 H         1 <0>         0.0587
     46 H16         1.9857   -4.0842   -0.5153 H         1 <0>         0.0763
     47 H17         2.8558   -5.3060   -1.4737 H         1 <0>         0.0566
     48 H18         3.5607   -3.6878   -1.2437 H         1 <0>         0.0531
     49 H19         0.1174   -4.1869   -3.7335 H         1 <0>         0.0553
     50 H20         0.8450   -5.5974   -2.9277 H         1 <0>         0.0631
     51 H21        -0.0251   -4.3756   -1.9693 H         1 <0>         0.0585
     52 H22         2.5566    0.6478   -5.2922 H         1 <0>         0.1455
     53 H23         3.7575    2.9906   -5.5713 H         1 <0>         0.1173
     54 H24         2.3494    3.9363   -5.0181 H         1 <0>         0.1059
     55 H25         5.1384    3.7972   -3.8696 H         1 <0>         0.0883
     56 H26         4.1336    5.2205   -4.2021 H         1 <0>         0.1051
     57 H27         5.7969    5.8006   -2.4143 H         1 <0>         0.1388
     58 H28         6.3246    7.4939   -0.7080 H         1 <0>         0.1420
     59 H29         2.7776    6.4596    1.4270 H         1 <0>         0.1441
     60 H30         2.2365    4.7716   -0.2804 H         1 <0>         0.1380
@<TRIPOS>BOND
     1    1    2 1
     2    1   31 1
     3    1   32 1
     4    1   33 1
     5    2    3 1
     6    2    4 1
     7    2    5 1
     8    3   34 1
     9    3   35 1
    10    3   36 1
    11    4   37 1
    12    4   38 1
    13    4   39 1
    14    5   10 ar
    15    5    6 ar
    16    6    7 ar
    17    6   40 1
    18    7    8 ar
    19    7   16 1
    20    8    9 ar
    21    8   41 1
    22    9   10 ar
    23    9   12 1
    24   10   11 1
    25   11   42 1
    26   12   13 1
    27   12   14 1
    28   12   15 1
    29   13   43 1
    30   13   44 1
    31   13   45 1
    32   14   46 1
    33   14   47 1
    34   14   48 1
    35   15   49 1
    36   15   50 1
    37   15   51 1
    38   16   17 2
    39   16   52 1
    40   17   21 1
    41   17   18 1
    42   18   19 1
    43   18   53 1
    44   18   54 1
    45   19   20 1
    46   19   55 1
    47   19   56 1
    48   20   21 1
    49   20   24 1
    50   21   22 2
    51   21   23 2
    52   24   29 ar
    53   24   25 ar
    54   25   26 ar
    55   25   57 1
    56   26   27 ar
    57   26   58 1
    58   27   28 ar
    59   27   30 1
    60   28   29 ar
    61   28   59 1
    62   29   60 1
@<TRIPOS>MOLECULE
CHEMBL420628
   38    40     0     0     0
SMALL
USER_CHARGES

@<TRIPOS>ATOM
      1 C1         -0.0184    1.5028    0.0103 C.3       1 <0>        -0.1096
      2 C2          0.0021   -0.0041    0.0020 C.ar      1 <0>         0.1432
      3 C3          0.0055   -0.6781   -1.2059 C.ar      1 <0>        -0.1762
      4 C4          0.0243   -2.0619   -1.2091 C.ar      1 <0>        -0.0285
      5 C5          0.0392   -2.7277    0.0207 C.ar      1 <0>        -0.1207
      6 C6          0.0345   -1.9756    1.1943 C.ar      1 <0>         0.1354
      7 N1          0.0218   -0.6592    1.1466 N.ar      1 <0>        -0.4817
      8 C7          0.0591   -4.2085    0.0753 C.ar      1 <0>         0.1969
      9 C8          0.7669   -4.8595    1.0983 C.ar      1 <0>        -0.0899
     10 C9          0.7723   -6.2548    1.1306 C.ar      1 <0>        -0.0433
     11 C10         0.0756   -6.9395    0.1471 C.ar      1 <0>        -0.0894
     12 C11        -0.5997   -6.2277   -0.8303 C.ar      1 <0>         0.1301
     13 N2         -0.5961   -4.9103   -0.8389 N.ar      1 <0>        -0.4562
     14 Cl1         0.0501   -8.6753    0.1403 Cl        1 <0>        -0.0399
     15 C12         1.4963   -4.0786    2.1258 C.ar      1 <0>         0.0083
     16 C13         2.3642   -3.0571    1.7428 C.ar      1 <0>        -0.1186
     17 C14         3.0405   -2.3335    2.7037 C.ar      1 <0>        -0.0121
     18 C15         2.8588   -2.6203    4.0447 C.ar      1 <0>        -0.6699
     19 C16         1.9988   -3.6327    4.4307 C.ar      1 <0>        -0.0084
     20 C17         1.3124   -4.3590    3.4789 C.ar      1 <0>        -0.1284
     21 S1          3.7266   -1.6928    5.2659 S.o2      1 <0>         2.7008
     22 O1          3.8012   -2.5145    6.4229 O.2       1 <0>        -0.9606
     23 O2          4.8830   -1.1659    4.6300 O.2       1 <0>        -0.9582
     24 N3          2.7747   -0.3980    5.6655 N.pl3     1 <0>        -1.2465
     25 H1          1.0042    1.8801    0.0026 H         1 <0>         0.0831
     26 H2         -0.5455    1.8639   -0.8728 H         1 <0>         0.0781
     27 H3         -0.5286    1.8543    0.9071 H         1 <0>         0.0804
     28 H4         -0.0067   -0.1303   -2.1366 H         1 <0>         0.1417
     29 H5          0.0270   -2.6135   -2.1376 H         1 <0>         0.1429
     30 H6          0.0459   -2.4764    2.1511 H         1 <0>         0.1577
     31 H7          1.3067   -6.7881    1.9029 H         1 <0>         0.1543
     32 H8         -1.1420   -6.7618   -1.5965 H         1 <0>         0.1738
     33 H9          2.5074   -2.8328    0.6961 H         1 <0>         0.1333
     34 H10         3.7132   -1.5419    2.4082 H         1 <0>         0.1466
     35 H11         1.8612   -3.8525    5.4791 H         1 <0>         0.1495
     36 H12         0.6376   -5.1460    3.7815 H         1 <0>         0.1399
     37 H13         2.8180   -0.0214    6.5583 H         1 <0>         0.4227
     38 H14         2.1738   -0.0162    5.0067 H         1 <0>         0.4193
@<TRIPOS>BOND
     1    1    2 1
     2    1   25 1
     3    1   26 1
     4    1   27 1
     5    2    7 ar
     6    2    3 ar
     7    3    4 ar
     8    3   28 1
     9    4    5 ar
    10    4   29 1
    11    5    6 ar
    12    5    8 1
    13    6    7 ar
    14    6   30 1
    15    8   13 ar
    16    8    9 ar
    17    9   10 ar
    18    9   15 1
    19   10   11 ar
    20   10   31 1
    21   11   12 ar
    22   11   14 1
    23   12   13 ar
    24   12   32 1
    25   15   20 ar
    26   15   16 ar
    27   16   17 ar
    28   16   33 1
    29   17   18 ar
    30   17   34 1
    31   18   19 ar
    32   18   21 1
    33   19   20 ar
    34   19   35 1
    35   20   36 1
    36   21   22 2
    37   21   23 2
    38   21   24 1
    39   24   37 1
    40   24   38 1
@<TRIPOS>MOLECULE
CHEMBL331523
   47    48     0     0     0
SMALL
USER_CHARGES

@<TRIPOS>ATOM
      1 C1         -0.0187    1.5258    0.0104 C.3       1 <0>        -0.1472
      2 C2          0.0021   -0.0041    0.0020 C.3       1 <0>        -0.0211
      3 C3          0.7421   -0.5109    1.2415 C.3       1 <0>        -0.1426
      4 C4         -1.4333   -0.5336    0.0129 C.3       1 <0>        -0.1416
      5 C5          0.7074   -0.4901   -1.2379 C.ar      1 <0>        -0.0876
      6 C6          1.2167    0.4191   -2.1447 C.ar      1 <0>        -0.0974
      7 C7          1.8639   -0.0262   -3.2825 C.ar      1 <0>        -0.0792
      8 C8          2.0032   -1.3819   -3.5157 C.ar      1 <0>        -0.1060
      9 C9          1.4957   -2.2951   -2.6119 C.ar      1 <0>        -0.0862
     10 C10         0.8509   -1.8508   -1.4667 C.ar      1 <0>         0.1214
     11 O1          0.3561   -2.7472   -0.5730 O.3       1 <0>        -0.4841
     12 C11         1.6478   -3.7726   -2.8667 C.3       1 <0>        -0.0216
     13 C12         2.3955   -3.9886   -4.1840 C.3       1 <0>        -0.1468
     14 C13         2.4380   -4.4089   -1.7215 C.3       1 <0>        -0.1427
     15 C14         0.2644   -4.4202   -2.9534 C.3       1 <0>        -0.1411
     16 C15         2.4181    0.9679   -4.2704 C.3       1 <0>        -0.1103
     17 C16         1.8377    0.7103   -5.6844 C.3       1 <0>        -0.1507
     18 C17         3.1083    0.8979   -6.5567 C.3       1 <0>         0.0481
     19 O2          4.1541    0.3738   -5.7112 O.3       1 <0>        -0.3442
     20 C18         3.9114    0.7676   -4.4458 C.2       1 <0>         0.4867
     21 O3          4.7475    0.9347   -3.5898 O.2       1 <0>        -0.4374
     22 H1          1.0039    1.9031    0.0027 H         1 <0>         0.0591
     23 H2         -0.5459    1.8868   -0.8726 H         1 <0>         0.0576
     24 H3         -0.5289    1.8773    0.9072 H         1 <0>         0.0603
     25 H4          0.2319   -0.1594    2.1383 H         1 <0>         0.0549
     26 H5          0.7568   -1.6008    1.2356 H         1 <0>         0.0750
     27 H6          1.7647   -0.1336    1.2338 H         1 <0>         0.0518
     28 H7         -1.9605   -0.1726   -0.8702 H         1 <0>         0.0541
     29 H8         -1.4185   -1.6235    0.0069 H         1 <0>         0.0581
     30 H9         -1.9435   -0.1821    0.9097 H         1 <0>         0.0612
     31 H10         1.1089    1.4786   -1.9650 H         1 <0>         0.1319
     32 H11         2.5089   -1.7272   -4.4054 H         1 <0>         0.1299
     33 H12        -0.5564   -3.0147   -0.7485 H         1 <0>         0.3818
     34 H13         3.3811   -3.5272   -4.1222 H         1 <0>         0.0582
     35 H14         2.5055   -5.0573   -4.3683 H         1 <0>         0.0608
     36 H15         1.8326   -3.5353   -4.9999 H         1 <0>         0.0570
     37 H16         1.9053   -4.2550   -0.7830 H         1 <0>         0.0755
     38 H17         2.5480   -5.4776   -1.9057 H         1 <0>         0.0551
     39 H18         3.4236   -3.9475   -1.6597 H         1 <0>         0.0514
     40 H19        -0.2985   -3.9669   -3.7693 H         1 <0>         0.0541
     41 H20         0.3744   -5.4889   -3.1377 H         1 <0>         0.0614
     42 H21        -0.2683   -4.2663   -2.0150 H         1 <0>         0.0580
     43 H22         2.2044    1.9866   -3.9469 H         1 <0>         0.1232
     44 H23         1.4471   -0.3037   -5.7708 H         1 <0>         0.0954
     45 H24         1.0747    1.4467   -5.9368 H         1 <0>         0.1017
     46 H25         3.0322    0.3222   -7.4792 H         1 <0>         0.1182
     47 H26         3.2773    1.9531   -6.7714 H         1 <0>         0.0861
@<TRIPOS>BOND
     1    1    2 1
     2    1   22 1
     3    1   23 1
     4    1   24 1
     5    2    3 1
     6    2    4 1
     7    2    5 1
     8    3   25 1
     9    3   26 1
    10    3   27 1
    11    4   28 1
    12    4   29 1
    13    4   30 1
    14    5   10 ar
    15    5    6 ar
    16    6    7 ar
    17    6   31 1
    18    7    8 ar
    19    7   16 1
    20    8    9 ar
    21    8   32 1
    22    9   10 ar
    23    9   12 1
    24   10   11 1
    25   11   33 1
    26   12   13 1
    27   12   14 1
    28   12   15 1
    29   13   34 1
    30   13   35 1
    31   13   36 1
    32   14   37 1
    33   14   38 1
    34   14   39 1
    35   15   40 1
    36   15   41 1
    37   15   42 1
    38   16   20 1
    39   16   17 1
    40   16   43 1
    41   17   18 1
    42   17   44 1
    43   17   45 1
    44   18   19 1
    45   18   46 1
    46   18   47 1
    47   19   20 1
    48   20   21 2
@<TRIPOS>MOLECULE
CHEMBL331523__1
   47    48     0     0     0
SMALL
USER_CHARGES

@<TRIPOS>ATOM
      1 C1         -0.0187    1.5258    0.0104 C.3       1 <0>        -0.1472
      2 C2          0.0021   -0.0041    0.0020 C.3       1 <0>        -0.0211
      3 C3          0.7421   -0.5109    1.2415 C.3       1 <0>        -0.1413
      4 C4         -1.4333   -0.5336    0.0129 C.3       1 <0>        -0.1429
      5 C5          0.7074   -0.4901   -1.2379 C.ar      1 <0>        -0.0875
      6 C6          1.2167    0.4191   -2.1447 C.ar      1 <0>        -0.0974
      7 C7          1.8639   -0.0262   -3.2825 C.ar      1 <0>        -0.0792
      8 C8          2.0032   -1.3819   -3.5157 C.ar      1 <0>        -0.1059
      9 C9          1.4957   -2.2951   -2.6119 C.ar      1 <0>        -0.0861
     10 C10         0.8509   -1.8508   -1.4667 C.ar      1 <0>         0.1213
     11 O1          0.3561   -2.7472   -0.5730 O.3       1 <0>        -0.4849
     12 C11         1.6478   -3.7726   -2.8667 C.3       1 <0>        -0.0216
     13 C12         2.3955   -3.9886   -4.1840 C.3       1 <0>        -0.1468
     14 C13         2.4380   -4.4089   -1.7215 C.3       1 <0>        -0.1411
     15 C14         0.2644   -4.4202   -2.9534 C.3       1 <0>        -0.1426
     16 C15         2.4181    0.9679   -4.2704 C.3       1 <0>        -0.1103
     17 C16         3.9315    0.7221   -4.4980 C.3       1 <0>        -0.1510
     18 C17         4.0253    0.9031   -6.0371 C.3       1 <0>         0.0482
     19 O2          2.7671    0.3660   -6.4972 O.3       1 <0>        -0.3442
     20 C18         1.8029    0.7557   -5.6405 C.2       1 <0>         0.4872
     21 O3          0.6372    0.9103   -5.9184 O.2       1 <0>        -0.4385
     22 H1          1.0039    1.9031    0.0027 H         1 <0>         0.0583
     23 H2         -0.5459    1.8868   -0.8726 H         1 <0>         0.0584
     24 H3         -0.5289    1.8773    0.9072 H         1 <0>         0.0603
     25 H4          0.2319   -0.1594    2.1383 H         1 <0>         0.0547
     26 H5          0.7568   -1.6008    1.2356 H         1 <0>         0.0750
     27 H6          1.7647   -0.1336    1.2338 H         1 <0>         0.0508
     28 H7         -1.9605   -0.1726   -0.8702 H         1 <0>         0.0550
     29 H8         -1.4185   -1.6235    0.0069 H         1 <0>         0.0581
     30 H9         -1.9435   -0.1821    0.9097 H         1 <0>         0.0614
     31 H10         1.1089    1.4786   -1.9650 H         1 <0>         0.1319
     32 H11         2.5089   -1.7272   -4.4054 H         1 <0>         0.1298
     33 H12        -0.5564   -3.0147   -0.7485 H         1 <0>         0.3827
     34 H13         3.3811   -3.5272   -4.1222 H         1 <0>         0.0577
     35 H14         2.5055   -5.0573   -4.3683 H         1 <0>         0.0608
     36 H15         1.8326   -3.5353   -4.9999 H         1 <0>         0.0575
     37 H16         1.9053   -4.2550   -0.7830 H         1 <0>         0.0754
     38 H17         2.5480   -5.4776   -1.9057 H         1 <0>         0.0548
     39 H18         3.4236   -3.9475   -1.6597 H         1 <0>         0.0508
     40 H19        -0.2985   -3.9669   -3.7693 H         1 <0>         0.0546
     41 H20         0.3744   -5.4889   -3.1377 H         1 <0>         0.0617
     42 H21        -0.2683   -4.2663   -2.0150 H         1 <0>         0.0581
     43 H22         2.2416    1.9868   -3.9258 H         1 <0>         0.1233
     44 H23         4.5338    1.4663   -3.9768 H         1 <0>         0.1019
     45 H24         4.2150   -0.2880   -4.2025 H         1 <0>         0.0956
     46 H25         4.1136    1.9578   -6.2975 H         1 <0>         0.0862
     47 H26         4.8606    0.3325   -6.4431 H         1 <0>         0.1183
@<TRIPOS>BOND
     1    1    2 1
     2    1   22 1
     3    1   23 1
     4    1   24 1
     5    2    3 1
     6    2    4 1
     7    2    5 1
     8    3   25 1
     9    3   26 1
    10    3   27 1
    11    4   28 1
    12    4   29 1
    13    4   30 1
    14    5   10 ar
    15    5    6 ar
    16    6    7 ar
    17    6   31 1
    18    7    8 ar
    19    7   16 1
    20    8    9 ar
    21    8   32 1
    22    9   10 ar
    23    9   12 1
    24   10   11 1
    25   11   33 1
    26   12   13 1
    27   12   14 1
    28   12   15 1
    29   13   34 1
    30   13   35 1
    31   13   36 1
    32   14   37 1
    33   14   38 1
    34   14   39 1
    35   15   40 1
    36   15   41 1
    37   15   42 1
    38   16   20 1
    39   16   17 1
    40   16   43 1
    41   17   18 1
    42   17   44 1
    43   17   45 1
    44   18   19 1
    45   18   46 1
    46   18   47 1
    47   19   20 1
    48   20   21 2
@<TRIPOS>MOLECULE
CHEMBL257103
   44    46     0     0     0
SMALL
USER_CHARGES

@<TRIPOS>ATOM
      1 C1         -0.0225    1.8097    0.0120 C.3       1 <0>        -0.6496
      2 S1          0.0021   -0.0041    0.0020 S.o2      1 <0>         2.4989
      3 O1          0.8352   -0.4880    1.0465 O.2       1 <0>        -0.9347
      4 O2         -1.3147   -0.5105   -0.1678 O.2       1 <0>        -0.9338
      5 C2          0.8454   -0.4373   -1.4831 C.ar      1 <0>        -0.6410
      6 C3          0.1315   -0.6121   -2.6550 C.ar      1 <0>        -0.0326
      7 C4          0.7868   -0.9515   -3.8212 C.ar      1 <0>        -0.0870
      8 C5          2.1706   -1.1181   -3.8167 C.ar      1 <0>         0.0038
      9 C6          2.8847   -0.9407   -2.6331 C.ar      1 <0>        -0.0876
     10 C7          2.2196   -0.5958   -1.4740 C.ar      1 <0>        -0.0342
     11 C8          2.8804   -1.4832   -5.0667 C.ar      1 <0>         0.4078
     12 N1          2.1831   -1.6426   -6.1832 N.ar      1 <0>        -0.5145
     13 C9          2.7813   -1.9684   -7.3184 C.ar      1 <0>         0.1267
     14 C10         4.1522   -2.1437   -7.3345 C.ar      1 <0>        -0.2410
     15 C11         4.8605   -1.9692   -6.1430 C.ar      1 <0>         0.4551
     16 N2          4.1968   -1.6370   -5.0412 N.ar      1 <0>        -0.5490
     17 N3          6.2357   -2.1352   -6.1121 N.pl3     1 <0>        -0.6931
     18 C12         6.9577   -2.4963   -7.3346 C.3       1 <0>         0.1394
     19 C13         6.9945   -4.0304   -7.4930 C.3       1 <0>        -0.1428
     20 C14         8.3970   -4.3177   -8.0841 C.3       1 <0>        -0.1244
     21 C15         9.2955   -3.2952   -7.3448 C.3       1 <0>        -0.1255
     22 C16         8.4207   -2.0289   -7.2404 C.3       1 <0>        -0.1304
     23 C17         1.9760   -2.1467   -8.5797 C.3       1 <0>         0.5247
     24 F1          0.6415   -1.8067   -8.3329 F         1 <0>        -0.1557
     25 F2          2.4905   -1.3180   -9.5826 F         1 <0>        -0.1660
     26 F3          2.0483   -3.4808   -8.9945 F         1 <0>        -0.1652
     27 H1          1.0001    2.1870    0.0043 H         1 <0>         0.1322
     28 H2         -0.5497    2.1708   -0.8711 H         1 <0>         0.1327
     29 H3         -0.5327    2.1613    0.9088 H         1 <0>         0.1345
     30 H4         -0.9407   -0.4831   -2.6572 H         1 <0>         0.1504
     31 H5          0.2284   -1.0881   -4.7355 H         1 <0>         0.1504
     32 H6          3.9570   -1.0688   -2.6238 H         1 <0>         0.1474
     33 H7          2.7725   -0.4534   -0.5573 H         1 <0>         0.1494
     34 H8          4.6642   -2.4100   -8.2474 H         1 <0>         0.1572
     35 H9          6.7205   -2.0123   -5.2809 H         1 <0>         0.4135
     36 H10         6.4757   -2.0423   -8.2005 H         1 <0>         0.0912
     37 H11         6.8819   -4.5167   -6.5240 H         1 <0>         0.0762
     38 H12         6.2158   -4.3618   -8.1800 H         1 <0>         0.0729
     39 H13         8.7087   -5.3380   -7.8609 H         1 <0>         0.0729
     40 H14         8.4080   -4.1355   -9.1587 H         1 <0>         0.0726
     41 H15         9.5545   -3.6628   -6.3519 H         1 <0>         0.0692
     42 H16        10.1960   -3.0901   -7.9236 H         1 <0>         0.0726
     43 H17         8.6489   -1.3487   -8.0610 H         1 <0>         0.0809
     44 H18         8.5935   -1.5334   -6.2851 H         1 <0>         0.0753
@<TRIPOS>BOND
     1    1    2 1
     2    1   27 1
     3    1   28 1
     4    1   29 1
     5    2    3 2
     6    2    4 2
     7    2    5 1
     8    5   10 ar
     9    5    6 ar
    10    6    7 ar
    11    6   30 1
    12    7    8 ar
    13    7   31 1
    14    8    9 ar
    15    8   11 1
    16    9   10 ar
    17    9   32 1
    18   10   33 1
    19   11   16 ar
    20   11   12 ar
    21   12   13 ar
    22   13   14 ar
    23   13   23 1
    24   14   15 ar
    25   14   34 1
    26   15   16 ar
    27   15   17 1
    28   17   18 1
    29   17   35 1
    30   18   22 1
    31   18   19 1
    32   18   36 1
    33   19   20 1
    34   19   37 1
    35   19   38 1
    36   20   21 1
    37   20   39 1
    38   20   40 1
    39   21   22 1
    40   21   41 1
    41   21   42 1
    42   22   43 1
    43   22   44 1
    44   23   24 1
    45   23   25 1
    46   23   26 1
@<TRIPOS>MOLECULE
CHEMBL140804
   38    41     0     0     0
SMALL
USER_CHARGES

@<TRIPOS>ATOM
      1 C1         -0.0167    1.3795    0.0096 C.ar      1 <0>        -0.1169
      2 C2          1.1683    2.0938    0.0021 C.ar      1 <0>        -0.1161
      3 C3          2.3774    1.4298   -0.0130 C.ar      1 <0>        -0.1134
      4 C4          2.4036    0.0339   -0.0208 C.ar      1 <0>        -0.0203
      5 C5          1.2042   -0.6806   -0.0131 C.ar      1 <0>        -0.0987
      6 C6          0.0021   -0.0041    0.0020 C.ar      1 <0>        -0.1154
      7 C7          3.6950   -0.6840   -0.0375 C.2       1 <0>         0.0687
      8 C8          4.0088   -1.7416   -0.8258 C.2       1 <0>        -0.1371
      9 C9          5.3293   -2.1206   -0.5281 C.2       1 <0>        -0.1371
     10 C10         5.7914   -1.2858    0.4351 C.2       1 <0>         0.0686
     11 N1          4.7912   -0.3933    0.7392 N.pl3     1 <0>        -0.5495
     12 H1          4.8486    0.3206    1.3934 H         1 <0>         0.4151
     13 C11         7.1359   -1.3252    1.0469 C.ar      1 <0>        -0.0203
     14 C12         7.6919   -2.5441    1.4400 C.ar      1 <0>        -0.0989
     15 C13         8.9475   -2.5738    2.0105 C.ar      1 <0>        -0.1153
     16 C14         9.6556   -1.3992    2.1936 C.ar      1 <0>        -0.1170
     17 C15         9.1105   -0.1878    1.8063 C.ar      1 <0>        -0.1161
     18 C16         7.8583   -0.1444    1.2293 C.ar      1 <0>        -0.1135
     19 C17         6.0271   -3.2666   -1.2097 C.3       1 <0>        -0.0192
     20 C18         5.0190   -4.1003   -1.9460 C.2       1 <0>        -0.1504
     21 C19         3.8075   -3.7525   -2.2193 C.2       1 <0>        -0.1504
     22 C20         3.1658   -2.4452   -1.8549 C.3       1 <0>        -0.0191
     23 H2         -0.9605    1.9042    0.0260 H         1 <0>         0.1241
     24 H3          1.1466    3.1735    0.0078 H         1 <0>         0.1246
     25 H4          3.3016    1.9885   -0.0192 H         1 <0>         0.1189
     26 H5          1.2174   -1.7605   -0.0194 H         1 <0>         0.1279
     27 H6         -0.9265   -0.5555    0.0083 H         1 <0>         0.1269
     28 H7          7.1402   -3.4616    1.2979 H         1 <0>         0.1280
     29 H8          9.3787   -3.5159    2.3153 H         1 <0>         0.1269
     30 H9         10.6381   -1.4280    2.6411 H         1 <0>         0.1241
     31 H10         9.6685    0.7253    1.9520 H         1 <0>         0.1246
     32 H11         7.4358    0.8012    0.9233 H         1 <0>         0.1188
     33 H12         6.7611   -2.8771   -1.9151 H         1 <0>         0.0811
     34 H13         6.5309   -3.8808   -0.4634 H         1 <0>         0.0785
     35 H14         5.3366   -5.0782   -2.2766 H         1 <0>         0.1042
     36 H15         3.2007   -4.4651   -2.7582 H         1 <0>         0.1042
     37 H16         2.1723   -2.6296   -1.4462 H         1 <0>         0.0784
     38 H17         3.0825   -1.8211   -2.7446 H         1 <0>         0.0811
@<TRIPOS>BOND
     1    1    6 ar
     2    1    2 ar
     3    1   23 1
     4    2    3 ar
     5    2   24 1
     6    3    4 ar
     7    3   25 1
     8    4    5 ar
     9    4    7 1
    10    5    6 ar
    11    5   26 1
    12    6   27 1
    13    7   11 1
    14    7    8 2
    15    8   22 1
    16    8    9 1
    17    9   10 2
    18    9   19 1
    19   10   11 1
    20   10   13 1
    21   11   12 1
    22   13   18 ar
    23   13   14 ar
    24   14   15 ar
    25   14   28 1
    26   15   16 ar
    27   15   29 1
    28   16   17 ar
    29   16   30 1
    30   17   18 ar
    31   17   31 1
    32   18   32 1
    33   19   20 1
    34   19   33 1
    35   19   34 1
    36   20   21 2
    37   20   35 1
    38   21   22 1
    39   21   36 1
    40   22   37 1
    41   22   38 1
@<TRIPOS>MOLECULE
CHEMBL828
   23    25     0     0     0
SMALL
USER_CHARGES

@<TRIPOS>ATOM
      1 C1         -0.0167    1.3795    0.0096 C.ar      1 <0>        -0.0823
      2 C2          1.1652    2.0958    0.0022 C.ar      1 <0>        -0.1347
      3 C3          2.3799    1.4302   -0.0132 C.ar      1 <0>        -0.0604
      4 C4          2.4038    0.0485   -0.0206 C.ar      1 <0>        -0.1489
      5 C5          1.2121   -0.6805   -0.0125 C.ar      1 <0>         0.1849
      6 C6          0.0021   -0.0041    0.0020 C.ar      1 <0>        -0.1476
      7 N1          1.2386   -2.0792   -0.0177 N.pl3     1 <0>        -0.6954
      8 C7          2.2020   -2.8024    0.6935 C.ar      1 <0>         0.1848
      9 C8          1.8601   -3.9868    1.3278 C.ar      1 <0>        -0.1476
     10 C9          2.8179   -4.6965    2.0305 C.ar      1 <0>        -0.0823
     11 C10         4.1177   -4.2330    2.1056 C.ar      1 <0>        -0.1347
     12 C11         4.4704   -3.0509    1.4755 C.ar      1 <0>        -0.0604
     13 C12         3.5174   -2.3385    0.7727 C.ar      1 <0>        -0.1488
     14 S1          3.9364   -0.8283   -0.0410 S.3       1 <0>         0.0037
     15 H1         -0.9611    1.9031    0.0260 H         1 <0>         0.1312
     16 H2          1.1417    3.1755    0.0080 H         1 <0>         0.1322
     17 H3          3.3043    1.9887   -0.0197 H         1 <0>         0.1346
     18 H4         -0.9257   -0.5569    0.0074 H         1 <0>         0.1299
     19 H5          0.5697   -2.5613   -0.5287 H         1 <0>         0.4140
     20 H6          0.8464   -4.3553    1.2738 H         1 <0>         0.1299
     21 H7          2.5479   -5.6185    2.5237 H         1 <0>         0.1312
     22 H8          4.8591   -4.7928    2.6564 H         1 <0>         0.1322
     23 H9          5.4858   -2.6874    1.5336 H         1 <0>         0.1346
@<TRIPOS>BOND
     1    1    6 ar
     2    1    2 ar
     3    1   15 1
     4    2    3 ar
     5    2   16 1
     6    3    4 ar
     7    3   17 1
     8    4   14 1
     9    4    5 ar
    10    5    6 ar
    11    5    7 1
    12    6   18 1
    13    7    8 1
    14    7   19 1
    15    8   13 ar
    16    8    9 ar
    17    9   10 ar
    18    9   20 1
    19   10   11 ar
    20   10   21 1
    21   11   12 ar
    22   11   22 1
    23   12   13 ar
    24   12   23 1
    25   13   14 1
@<TRIPOS>MOLECULE
CHEMBL562768
   51    54     0     0     0
SMALL
USER_CHARGES

@<TRIPOS>ATOM
      1 C1         -0.0225    1.8097    0.0120 C.3       1 <0>        -0.6515
      2 S1          0.0021   -0.0041    0.0020 S.o2      1 <0>         2.4977
      3 O1          0.8352   -0.4880    1.0465 O.2       1 <0>        -0.9361
      4 O2         -1.3147   -0.5105   -0.1678 O.2       1 <0>        -0.9365
      5 C2          0.8454   -0.4373   -1.4831 C.ar      1 <0>        -0.6610
      6 C3          0.1314   -0.6121   -2.6550 C.ar      1 <0>        -0.0166
      7 C4          0.7864   -0.9519   -3.8211 C.ar      1 <0>        -0.1348
      8 C5          2.1706   -1.1186   -3.8167 C.ar      1 <0>         0.0320
      9 C6          2.8849   -0.9406   -2.6328 C.ar      1 <0>        -0.1228
     10 C7          2.2196   -0.5958   -1.4739 C.ar      1 <0>        -0.0191
     11 C8          2.8799   -1.4840   -5.0659 C.ar      1 <0>        -0.2289
     12 C9          2.4418   -2.5498   -5.8532 C.ar      1 <0>         0.2225
     13 N1          3.1003   -2.8450   -6.9605 N.ar      1 <0>        -0.5649
     14 C10         4.1648   -2.1467   -7.3314 C.ar      1 <0>         0.5766
     15 N2          4.6182   -1.1280   -6.6185 N.ar      1 <0>        -0.5608
     16 C11         4.0103   -0.7615   -5.4932 C.ar      1 <0>         0.2871
     17 C12         4.5172    0.3827   -4.7011 C.ar      1 <0>        -0.0754
     18 C13         3.6259    1.2108   -4.0187 C.ar      1 <0>        -0.0543
     19 C14         4.1027    2.2750   -3.2824 C.ar      1 <0>        -0.1602
     20 C15         5.4649    2.5224   -3.2199 C.ar      1 <0>         0.1222
     21 C16         6.3544    1.7027   -3.8965 C.ar      1 <0>        -0.1604
     22 C17         5.8877    0.6323   -4.6304 C.ar      1 <0>        -0.0402
     23 F1          5.9273    3.5661   -2.4973 F         1 <0>        -0.1337
     24 N3          4.8216   -2.4939   -8.4987 N.pl3     1 <0>        -0.6888
     25 C18         4.3386   -3.6182   -9.3043 C.3       1 <0>         0.1794
     26 C19         5.2222   -3.7858  -10.5135 C.ar      1 <0>        -0.1156
     27 C20         4.9264   -3.1130  -11.6843 C.ar      1 <0>        -0.0978
     28 C21         5.7369   -3.2668  -12.7935 C.ar      1 <0>        -0.1219
     29 C22         6.8434   -4.0930  -12.7318 C.ar      1 <0>        -0.1085
     30 C23         7.1397   -4.7652  -11.5607 C.ar      1 <0>        -0.1219
     31 C24         6.3316   -4.6080  -10.4502 C.ar      1 <0>        -0.0978
     32 H1          1.0001    2.1870    0.0043 H         1 <0>         0.1318
     33 H2         -0.5497    2.1708   -0.8711 H         1 <0>         0.1320
     34 H3         -0.5327    2.1613    0.9088 H         1 <0>         0.1337
     35 H4         -0.9408   -0.4828   -2.6572 H         1 <0>         0.1456
     36 H5          0.2278   -1.0888   -4.7353 H         1 <0>         0.1361
     37 H6          3.9572   -1.0687   -2.6234 H         1 <0>         0.1325
     38 H7          2.7724   -0.4534   -0.5571 H         1 <0>         0.1444
     39 H8          1.5763   -3.1261   -5.5613 H         1 <0>         0.1740
     40 H9          2.5642    1.0190   -4.0672 H         1 <0>         0.1396
     41 H10         3.4134    2.9169   -2.7540 H         1 <0>         0.1415
     42 H11         7.4150    1.8999   -3.8454 H         1 <0>         0.1425
     43 H12         6.5819   -0.0087   -5.1534 H         1 <0>         0.1412
     44 H13         5.6018   -1.9929   -8.7836 H         1 <0>         0.4165
     45 H14         4.3629   -4.5298   -8.7074 H         1 <0>         0.0786
     46 H15         3.3159   -3.4217   -9.6261 H         1 <0>         0.0785
     47 H16         4.0619   -2.4674  -11.7325 H         1 <0>         0.1239
     48 H17         5.5055   -2.7416  -13.7084 H         1 <0>         0.1253
     49 H18         7.4763   -4.2137  -13.5986 H         1 <0>         0.1247
     50 H19         8.0040   -5.4110  -11.5126 H         1 <0>         0.1254
     51 H20         6.5652   -5.1302   -9.5342 H         1 <0>         0.1240
@<TRIPOS>BOND
     1    1    2 1
     2    1   32 1
     3    1   33 1
     4    1   34 1
     5    2    3 2
     6    2    4 2
     7    2    5 1
     8    5   10 ar
     9    5    6 ar
    10    6    7 ar
    11    6   35 1
    12    7    8 ar
    13    7   36 1
    14    8    9 ar
    15    8   11 1
    16    9   10 ar
    17    9   37 1
    18   10   38 1
    19   11   16 ar
    20   11   12 ar
    21   12   13 ar
    22   12   39 1
    23   13   14 ar
    24   14   15 ar
    25   14   24 1
    26   15   16 ar
    27   16   17 1
    28   17   22 ar
    29   17   18 ar
    30   18   19 ar
    31   18   40 1
    32   19   20 ar
    33   19   41 1
    34   20   21 ar
    35   20   23 1
    36   21   22 ar
    37   21   42 1
    38   22   43 1
    39   24   25 1
    40   24   44 1
    41   25   26 1
    42   25   45 1
    43   25   46 1
    44   26   31 ar
    45   26   27 ar
    46   27   28 ar
    47   27   47 1
    48   28   29 ar
    49   28   48 1
    50   29   30 ar
    51   29   49 1
    52   30   31 ar
    53   30   50 1
    54   31   51 1
@<TRIPOS>MOLECULE
CHEMBL272627
   41    43     0     0     0
SMALL
USER_CHARGES

@<TRIPOS>ATOM
      1 C1         -0.0225    1.8097    0.0120 C.3       1 <0>        -0.6496
      2 S1          0.0021   -0.0041    0.0020 S.o2      1 <0>         2.4987
      3 O1          0.8352   -0.4880    1.0465 O.2       1 <0>        -0.9347
      4 O2         -1.3147   -0.5105   -0.1678 O.2       1 <0>        -0.9337
      5 C2          0.8454   -0.4373   -1.4831 C.ar      1 <0>        -0.6408
      6 C3          0.1315   -0.6121   -2.6550 C.ar      1 <0>        -0.0327
      7 C4          0.7868   -0.9515   -3.8212 C.ar      1 <0>        -0.0868
      8 C5          2.1706   -1.1181   -3.8167 C.ar      1 <0>         0.0035
      9 C6          2.8847   -0.9407   -2.6331 C.ar      1 <0>        -0.0875
     10 C7          2.2196   -0.5958   -1.4740 C.ar      1 <0>        -0.0342
     11 C8          2.8804   -1.4832   -5.0667 C.ar      1 <0>         0.4084
     12 N1          2.1831   -1.6426   -6.1832 N.ar      1 <0>        -0.5139
     13 C9          2.7813   -1.9684   -7.3184 C.ar      1 <0>         0.1279
     14 C10         4.1522   -2.1437   -7.3345 C.ar      1 <0>        -0.2417
     15 C11         4.8605   -1.9692   -6.1430 C.ar      1 <0>         0.4544
     16 N2          4.1968   -1.6370   -5.0412 N.ar      1 <0>        -0.5476
     17 N3          6.2357   -2.1352   -6.1121 N.pl3     1 <0>        -0.6958
     18 C12         6.9577   -2.4963   -7.3346 C.3       1 <0>         0.1778
     19 C13         8.4294   -2.6144   -7.0326 C.2       1 <0>        -0.1518
     20 C14         9.2585   -1.5139   -7.1424 C.2       1 <0>        -0.1498
     21 C15        10.5775   -1.6543   -6.8635 C.2       1 <0>        -0.1683
     22 S2         10.6813   -3.3829   -6.4297 S.3       1 <0>         0.0602
     23 C16         8.9588   -3.8002   -6.6440 C.2       1 <0>        -0.1481
     24 C17         1.9760   -2.1467   -8.5797 C.3       1 <0>         0.5248
     25 F1          0.6415   -1.8067   -8.3329 F         1 <0>        -0.1557
     26 F2          2.4905   -1.3180   -9.5825 F         1 <0>        -0.1657
     27 F3          2.0483   -3.4808   -8.9945 F         1 <0>        -0.1652
     28 H1          1.0001    2.1870    0.0043 H         1 <0>         0.1322
     29 H2         -0.5497    2.1708   -0.8711 H         1 <0>         0.1327
     30 H3         -0.5327    2.1613    0.9088 H         1 <0>         0.1345
     31 H4         -0.9407   -0.4831   -2.6572 H         1 <0>         0.1504
     32 H5          0.2284   -1.0881   -4.7355 H         1 <0>         0.1505
     33 H6          3.9570   -1.0688   -2.6238 H         1 <0>         0.1475
     34 H7          2.7725   -0.4534   -0.5573 H         1 <0>         0.1494
     35 H8          4.6642   -2.4100   -8.2474 H         1 <0>         0.1576
     36 H9          6.7205   -2.0123   -5.2809 H         1 <0>         0.4154
     37 H10         6.5856   -3.4504   -7.7079 H         1 <0>         0.0814
     38 H11         6.8024   -1.7254   -8.0894 H         1 <0>         0.0809
     39 H12         8.8614   -0.5566   -7.4461 H         1 <0>         0.1368
     40 H13        11.3621   -0.9128   -6.8957 H         1 <0>         0.1893
     41 H14         8.4665   -4.7509   -6.5018 H         1 <0>         0.1894
@<TRIPOS>BOND
     1    1    2 1
     2    1   28 1
     3    1   29 1
     4    1   30 1
     5    2    3 2
     6    2    4 2
     7    2    5 1
     8    5   10 ar
     9    5    6 ar
    10    6    7 ar
    11    6   31 1
    12    7    8 ar
    13    7   32 1
    14    8    9 ar
    15    8   11 1
    16    9   10 ar
    17    9   33 1
    18   10   34 1
    19   11   16 ar
    20   11   12 ar
    21   12   13 ar
    22   13   14 ar
    23   13   24 1
    24   14   15 ar
    25   14   35 1
    26   15   16 ar
    27   15   17 1
    28   17   18 1
    29   17   36 1
    30   18   19 1
    31   18   37 1
    32   18   38 1
    33   19   23 2
    34   19   20 1
    35   20   21 2
    36   20   39 1
    37   21   22 1
    38   21   40 1
    39   22   23 1
    40   23   41 1
    41   24   25 1
    42   24   26 1
    43   24   27 1
@<TRIPOS>MOLECULE
CHEMBL560013
   50    53     0     0     0
SMALL
USER_CHARGES

@<TRIPOS>ATOM
      1 C1         -0.0225    1.8097    0.0120 C.3       1 <0>        -0.6502
      2 S1          0.0021   -0.0041    0.0020 S.o2      1 <0>         2.4967
      3 O1          0.8352   -0.4880    1.0465 O.2       1 <0>        -0.9328
      4 O2         -1.3147   -0.5105   -0.1678 O.2       1 <0>        -0.9332
      5 C2          0.8454   -0.4373   -1.4831 C.ar      1 <0>        -0.6487
      6 C3          0.1314   -0.6121   -2.6550 C.ar      1 <0>        -0.0178
      7 C4          0.7866   -0.9514   -3.8212 C.ar      1 <0>        -0.1194
      8 C5          2.1707   -1.1177   -3.8169 C.ar      1 <0>         0.0020
      9 C6          2.8850   -0.9398   -2.6330 C.ar      1 <0>        -0.1090
     10 C7          2.2196   -0.5958   -1.4740 C.ar      1 <0>        -0.0176
     11 C8          2.8802   -1.4826   -5.0663 C.ar      1 <0>        -0.1111
     12 C9          2.4437   -2.5481   -5.8549 C.ar      1 <0>         0.1642
     13 N1          3.1045   -2.8405   -6.9622 N.ar      1 <0>        -0.4522
     14 C10         4.1631   -2.1448   -7.3300 C.ar      1 <0>         0.3268
     15 N2          4.6166   -1.1305   -6.6217 N.ar      1 <0>        -0.1532
     16 O3          5.7583   -0.4212   -7.0670 O.3       1 <0>        -0.5114
     17 C11         4.0103   -0.7609   -5.4949 C.ar      1 <0>         0.2088
     18 C12         4.5187    0.3840   -4.7048 C.ar      1 <0>        -0.0879
     19 C13         3.6312    1.3322   -4.1961 C.ar      1 <0>        -0.0479
     20 C14         4.1095    2.3964   -3.4605 C.ar      1 <0>        -0.1626
     21 C15         5.4695    2.5247   -3.2270 C.ar      1 <0>         0.1313
     22 C16         6.3553    1.5852   -3.7303 C.ar      1 <0>        -0.1602
     23 C17         5.8861    0.5144   -4.4621 C.ar      1 <0>        -0.0161
     24 F1          5.9333    3.5693   -2.5066 F         1 <0>        -0.1311
     25 C18         4.8776   -2.5228   -8.6019 C.3       1 <0>        -0.0207
     26 C19         4.2797   -1.7640   -9.7585 C.ar      1 <0>        -0.0949
     27 C20         3.2178   -2.3007  -10.4622 C.ar      1 <0>        -0.1031
     28 C21         2.6693   -1.6046  -11.5231 C.ar      1 <0>        -0.1264
     29 C22         3.1825   -0.3717  -11.8801 C.ar      1 <0>        -0.1132
     30 C23         4.2439    0.1654  -11.1758 C.ar      1 <0>        -0.1253
     31 C24         4.7895   -0.5287  -10.1122 C.ar      1 <0>        -0.0930
     32 H1          1.0001    2.1870    0.0043 H         1 <0>         0.1328
     33 H2         -0.5497    2.1708   -0.8711 H         1 <0>         0.1327
     34 H3         -0.5327    2.1613    0.9088 H         1 <0>         0.1357
     35 H4         -0.9408   -0.4830   -2.6571 H         1 <0>         0.1509
     36 H5          0.2280   -1.0883   -4.7354 H         1 <0>         0.1407
     37 H6          3.9573   -1.0677   -2.6237 H         1 <0>         0.1360
     38 H7          2.7724   -0.4538   -0.5571 H         1 <0>         0.1495
     39 H8          1.5785   -3.1258   -5.5647 H         1 <0>         0.1953
     40 H9          2.5713    1.2334   -4.3782 H         1 <0>         0.1355
     41 H10         3.4231    3.1311   -3.0663 H         1 <0>         0.1442
     42 H11         7.4142    1.6894   -3.5456 H         1 <0>         0.1456
     43 H12         6.5767   -0.2195   -4.8504 H         1 <0>         0.1465
     44 H13         5.9351   -2.2744   -8.5121 H         1 <0>         0.1199
     45 H14         4.7693   -3.5935   -8.7750 H         1 <0>         0.1123
     46 H15         2.8168   -3.2639  -10.1833 H         1 <0>         0.1263
     47 H16         1.8401   -2.0242  -12.0734 H         1 <0>         0.1237
     48 H17         2.7545    0.1718  -12.7095 H         1 <0>         0.1223
     49 H18         4.6450    1.1285  -11.4549 H         1 <0>         0.1232
     50 H19         5.6163   -0.1075   -9.5596 H         1 <0>         0.1361
@<TRIPOS>BOND
     1    1    2 1
     2    1   32 1
     3    1   33 1
     4    1   34 1
     5    2    3 2
     6    2    4 2
     7    2    5 1
     8    5   10 ar
     9    5    6 ar
    10    6    7 ar
    11    6   35 1
    12    7    8 ar
    13    7   36 1
    14    8    9 ar
    15    8   11 1
    16    9   10 ar
    17    9   37 1
    18   10   38 1
    19   11   17 ar
    20   11   12 ar
    21   12   13 ar
    22   12   39 1
    23   13   14 ar
    24   14   15 ar
    25   14   25 1
    26   15   16 1
    27   15   17 ar
    28   17   18 1
    29   18   23 ar
    30   18   19 ar
    31   19   20 ar
    32   19   40 1
    33   20   21 ar
    34   20   41 1
    35   21   22 ar
    36   21   24 1
    37   22   23 ar
    38   22   42 1
    39   23   43 1
    40   25   26 1
    41   25   44 1
    42   25   45 1
    43   26   31 ar
    44   26   27 ar
    45   27   28 ar
    46   27   46 1
    47   28   29 ar
    48   28   47 1
    49   29   30 ar
    50   29   48 1
    51   30   31 ar
    52   30   49 1
    53   31   50 1
@<TRIPOS>MOLECULE
CHEMBL320790
   41    44     0     0     0
SMALL
USER_CHARGES

@<TRIPOS>ATOM
      1 C1          0.5263    1.3249    0.5450 C.3       1 <0>        -0.6486
      2 S1          0.5978   -0.4831    0.4168 S.o2      1 <0>         2.4982
      3 O1          1.5476   -1.0019    1.3376 O.2       1 <0>        -0.9307
      4 O2         -0.7157   -1.0214    0.3506 O.2       1 <0>        -0.9310
      5 C2          1.2931   -0.7973   -1.1714 C.ar      1 <0>        -0.6513
      6 C3          0.4674   -0.9242   -2.2733 C.ar      1 <0>        -0.0054
      7 C4          1.0094   -1.1710   -3.5194 C.ar      1 <0>        -0.1283
      8 C5          2.3849   -1.2912   -3.6652 C.ar      1 <0>         0.1609
      9 C6          3.2115   -1.1629   -2.5570 C.ar      1 <0>        -0.1198
     10 C7          2.6638   -0.9109   -1.3142 C.ar      1 <0>        -0.0037
     11 N1          2.9379   -1.5421   -4.9282 N.pl3     1 <0>        -0.4111
     12 C8          2.6291   -2.5867   -5.7620 C.2       1 <0>         0.0374
     13 C9          3.3877   -2.4466   -6.8676 C.2       1 <0>        -0.0841
     14 N2          4.1438   -1.3511   -6.7267 N.2       1 <0>        -0.4166
     15 C10         3.8834   -0.7892   -5.5665 C.2       1 <0>         0.2771
     16 C11         4.5084    0.4426   -5.0416 C.ar      1 <0>        -0.0126
     17 C12         3.7160    1.4477   -4.4829 C.ar      1 <0>        -0.0867
     18 C13         4.3025    2.5958   -3.9940 C.ar      1 <0>        -0.1059
     19 C14         5.6757    2.7590   -4.0541 C.ar      1 <0>        -0.0811
     20 C15         6.4747    1.7704   -4.6061 C.ar      1 <0>         0.0356
     21 C16         5.8960    0.6043   -5.0970 C.ar      1 <0>         0.0806
     22 O3          6.8830   -0.2060   -5.5760 O.3       1 <0>        -0.2913
     23 C17         8.0332    0.6447   -5.7397 C.3       1 <0>         0.2111
     24 O4          7.8268    1.6926   -4.7795 O.3       1 <0>        -0.3036
     25 C18         3.3854   -3.3681   -8.0600 C.3       1 <0>         0.5573
     26 F1          2.4359   -2.9275   -8.9881 F         1 <0>        -0.1706
     27 F2          4.6526   -3.3667   -8.6528 F         1 <0>        -0.1641
     28 F3          3.0657   -4.6657   -7.6461 F         1 <0>        -0.1713
     29 H1          1.5322    1.7355    0.4569 H         1 <0>         0.1338
     30 H2         -0.0993    1.7214   -0.2547 H         1 <0>         0.1335
     31 H3          0.1031    1.6044    1.5099 H         1 <0>         0.1369
     32 H4         -0.6025   -0.8306   -2.1593 H         1 <0>         0.1571
     33 H5          0.3640   -1.2707   -4.3796 H         1 <0>         0.1457
     34 H6          4.2818   -1.2559   -2.6672 H         1 <0>         0.1415
     35 H7          3.3065   -0.8066   -0.4526 H         1 <0>         0.1565
     36 H8          1.9139   -3.3726   -5.5692 H         1 <0>         0.1995
     37 H9          2.6440    1.3258   -4.4341 H         1 <0>         0.1363
     38 H10         3.6875    3.3716   -3.5624 H         1 <0>         0.1475
     39 H11         6.1268    3.6616   -3.6691 H         1 <0>         0.1440
     40 H12         8.9497    0.0952   -5.5247 H         1 <0>         0.1375
     41 H13         8.0619    1.0605   -6.7468 H         1 <0>         0.0900
@<TRIPOS>BOND
     1    1    2 1
     2    1   29 1
     3    1   30 1
     4    1   31 1
     5    2    3 2
     6    2    4 2
     7    2    5 1
     8    5   10 ar
     9    5    6 ar
    10    6    7 ar
    11    6   32 1
    12    7    8 ar
    13    7   33 1
    14    8    9 ar
    15    8   11 1
    16    9   10 ar
    17    9   34 1
    18   10   35 1
    19   11   15 1
    20   11   12 1
    21   12   13 2
    22   12   36 1
    23   13   14 1
    24   13   25 1
    25   14   15 2
    26   15   16 1
    27   16   21 ar
    28   16   17 ar
    29   17   18 ar
    30   17   37 1
    31   18   19 ar
    32   18   38 1
    33   19   20 ar
    34   19   39 1
    35   20   24 1
    36   20   21 ar
    37   21   22 1
    38   22   23 1
    39   23   24 1
    40   23   40 1
    41   23   41 1
    42   25   26 1
    43   25   27 1
    44   25   28 1
@<TRIPOS>MOLECULE
CHEMBL344959
   42    44     0     0     0
SMALL
USER_CHARGES

@<TRIPOS>ATOM
      1 C1         -0.8050    1.7410   -0.5002 C.3       1 <0>        -0.6357
      2 S1         -0.5838   -0.0555   -0.3815 S.o2      1 <0>         2.5253
      3 O1          0.1499   -0.3819    0.7909 O.2       1 <0>        -1.0249
      4 O2         -1.8038   -0.7197   -0.6809 O.2       1 <0>        -1.0250
      5 N1          0.4271   -0.4435   -1.6344 N.2       1 <0>        -1.0660
      6 C2          0.8082   -1.7662   -1.8367 C.ar      1 <0>         0.3163
      7 C3          0.3358   -2.7630   -0.9905 C.ar      1 <0>        -0.2511
      8 C4          0.7091   -4.0762   -1.1846 C.ar      1 <0>        -0.0109
      9 C5          1.5662   -4.4126   -2.2355 C.ar      1 <0>        -0.2814
     10 C6          2.0428   -3.4021   -3.0903 C.ar      1 <0>        -0.1047
     11 C7          1.6610   -2.0936   -2.8936 C.ar      1 <0>         0.0525
     12 O3          2.1187   -1.1193   -3.7250 O.3       1 <0>        -0.2834
     13 C8          2.8934   -1.5379   -4.8505 C.3       1 <0>         0.0822
     14 C9          4.3555   -1.7019   -4.4307 C.3       1 <0>        -0.1450
     15 C10         5.1849   -2.1501   -5.6358 C.3       1 <0>        -0.1165
     16 C11         5.0868   -1.0979   -6.7422 C.3       1 <0>        -0.1205
     17 C12         3.6247   -0.9339   -7.1619 C.3       1 <0>        -0.1152
     18 C13         2.7953   -0.4857   -5.9569 C.3       1 <0>        -0.1117
     19 C14         1.8254   -5.8578   -2.2505 C.2       1 <0>         0.4124
     20 O4          2.5298   -6.4460   -3.0439 O.2       1 <0>        -0.4902
     21 C15         1.0639   -6.4850   -1.1082 C.3       1 <0>        -0.1683
     22 C16         0.3385   -5.3227   -0.4165 C.3       1 <0>        -0.0809
     23 H1          0.1627    2.2334   -0.4047 H         1 <0>         0.1169
     24 H2         -1.2456    1.9898   -1.4656 H         1 <0>         0.1169
     25 H3         -1.4652    2.0794    0.2985 H         1 <0>         0.1031
     26 H4         -0.3266   -2.5075   -0.1767 H         1 <0>         0.1135
     27 H5          2.7057   -3.6535   -3.9050 H         1 <0>         0.1189
     28 H6          2.5124   -2.4901   -5.2198 H         1 <0>         0.0641
     29 H7          4.7364   -0.7497   -4.0614 H         1 <0>         0.0703
     30 H8          4.4253   -2.4515   -3.6425 H         1 <0>         0.0694
     31 H9          6.2265   -2.2669   -5.3367 H         1 <0>         0.0623
     32 H10         4.8039   -3.1023   -6.0051 H         1 <0>         0.0620
     33 H11         5.4678   -0.1457   -6.3729 H         1 <0>         0.0623
     34 H12         5.6777   -1.4172   -7.6007 H         1 <0>         0.0592
     35 H13         3.5548   -0.1843   -7.9502 H         1 <0>         0.0648
     36 H14         3.2438   -1.8861   -7.5313 H         1 <0>         0.0621
     37 H15         1.7537   -0.3689   -6.2560 H         1 <0>         0.0695
     38 H16         3.1763    0.4664   -5.5876 H         1 <0>         0.0709
     39 H17         0.3422   -7.2083   -1.4876 H         1 <0>         0.0961
     40 H18         1.7530   -6.9665   -0.4144 H         1 <0>         0.0961
     41 H19         0.6697   -5.2373    0.6184 H         1 <0>         0.0821
     42 H20        -0.7396   -5.4789   -0.4537 H         1 <0>         0.0821
@<TRIPOS>BOND
     1    1    2 1
     2    1   23 1
     3    1   24 1
     4    1   25 1
     5    2    3 2
     6    2    4 2
     7    2    5 1
     8    5    6 1
     9    6   11 ar
    10    6    7 ar
    11    7    8 ar
    12    7   26 1
    13    8   22 1
    14    8    9 ar
    15    9   10 ar
    16    9   19 1
    17   10   11 ar
    18   10   27 1
    19   11   12 1
    20   12   13 1
    21   13   18 1
    22   13   14 1
    23   13   28 1
    24   14   15 1
    25   14   29 1
    26   14   30 1
    27   15   16 1
    28   15   31 1
    29   15   32 1
    30   16   17 1
    31   16   33 1
    32   16   34 1
    33   17   18 1
    34   17   35 1
    35   17   36 1
    36   18   37 1
    37   18   38 1
    38   19   20 2
    39   19   21 1
    40   21   22 1
    41   21   39 1
    42   21   40 1
    43   22   41 1
    44   22   42 1
@<TRIPOS>MOLECULE
CHEMBL64370
   40    44     0     0     0
SMALL
USER_CHARGES

@<TRIPOS>ATOM
      1 C1         -0.0184    1.5028    0.0103 C.3       1 <0>        -0.0498
      2 C2          0.0021   -0.0041    0.0020 C.2       1 <0>        -0.2410
      3 C3         -1.0301   -0.8826    0.0016 C.2       1 <0>         0.0692
      4 N1         -0.7248   -2.1673   -0.0067 N.2       1 <0>        -0.5301
      5 C4          0.5283   -2.5681   -0.0141 C.2       1 <0>         0.3019
      6 S1          1.3925   -1.1239   -0.0179 S.3       1 <0>         0.0732
      7 N2          1.0188   -3.8676   -0.0233 N.am      1 <0>        -0.6167
      8 C5          0.1648   -4.9102   -0.0259 C.2       1 <0>         0.6368
      9 O1         -1.0368   -4.7131   -0.0202 O.2       1 <0>        -0.4834
     10 C6          0.6811   -6.2781   -0.0355 C.2       1 <0>        -0.4368
     11 C7          0.9910   -7.1106    1.1391 C.ar      1 <0>         0.0411
     12 C8          0.9415   -6.9891    2.5251 C.ar      1 <0>        -0.1611
     13 C9          1.3401   -8.0537    3.3140 C.ar      1 <0>         0.0922
     14 C10         1.7915   -9.2483    2.7537 C.ar      1 <0>        -0.1776
     15 C11         1.8422   -9.3718    1.3862 C.ar      1 <0>        -0.0556
     16 C12         1.4456   -8.3120    0.6045 C.ar      1 <0>         0.0429
     17 N3          1.4375   -8.2747   -0.7658 N.pl3     1 <0>        -0.4557
     18 C13         0.9702   -7.0505   -1.1563 C.2       1 <0>         0.4900
     19 O2          0.8154   -6.6498   -2.4380 O.3       1 <0>        -0.6644
     20 C14         1.8654   -9.3992   -1.4936 C.ar      1 <0>         0.1747
     21 C15         1.8572   -9.3534   -2.8828 C.ar      1 <0>        -0.1141
     22 C16         2.2735  -10.4480   -3.6133 C.ar      1 <0>        -0.1289
     23 C17         2.7000  -11.5954   -2.9653 C.ar      1 <0>         0.0638
     24 C18         2.7102  -11.6451   -1.5812 C.ar      1 <0>        -0.1247
     25 C19         2.2954  -10.5520   -0.8485 C.ar      1 <0>        -0.0919
     26 C20         2.3129  -10.6152    0.6676 C.3       1 <0>        -0.0293
     27 F1          3.1056  -12.6657   -3.6829 F         1 <0>        -0.1452
     28 F2          1.2914   -7.9328    4.6587 F         1 <0>        -0.1516
     29 H1          1.0042    1.8801    0.0026 H         1 <0>         0.0678
     30 H2         -0.5455    1.8639   -0.8728 H         1 <0>         0.0747
     31 H3         -0.5286    1.8543    0.9071 H         1 <0>         0.0746
     32 H4         -2.0566   -0.5469    0.0081 H         1 <0>         0.1682
     33 H5          1.9760   -4.0246   -0.0278 H         1 <0>         0.4230
     34 H6          0.5955   -6.0728    2.9801 H         1 <0>         0.1250
     35 H7          2.0982  -10.0672    3.3876 H         1 <0>         0.1305
     36 H8          1.5245   -8.4604   -3.3911 H         1 <0>         0.1626
     37 H9          2.2662  -10.4100   -4.6926 H         1 <0>         0.1365
     38 H10         3.0427  -12.5395   -1.0754 H         1 <0>         0.1386
     39 H11         3.3327  -10.8279    0.9882 H         1 <0>         0.0854
     40 H12         1.6828  -11.4479    0.9801 H         1 <0>         0.0852
@<TRIPOS>BOND
     1    1    2 1
     2    1   29 1
     3    1   30 1
     4    1   31 1
     5    2    6 1
     6    2    3 2
     7    3    4 1
     8    3   32 1
     9    4    5 2
    10    5    6 1
    11    5    7 1
    12    7    8 am
    13    7   33 1
    14    8    9 2
    15    8   10 1
    16   10   18 2
    17   10   11 1
    18   11   16 ar
    19   11   12 ar
    20   12   13 ar
    21   12   34 1
    22   13   14 ar
    23   13   28 1
    24   14   15 ar
    25   14   35 1
    26   15   26 1
    27   15   16 ar
    28   16   17 1
    29   17   18 1
    30   17   20 1
    31   18   19 1
    32   20   25 ar
    33   20   21 ar
    34   21   22 ar
    35   21   36 1
    36   22   23 ar
    37   22   37 1
    38   23   24 ar
    39   23   27 1
    40   24   25 ar
    41   24   38 1
    42   25   26 1
    43   26   39 1
    44   26   40 1
@<TRIPOS>MOLECULE
CHEMBL84785
   43    45     0     0     0
SMALL
USER_CHARGES

@<TRIPOS>ATOM
      1 C1         -0.0187    1.5258    0.0104 C.3       1 <0>        -0.1439
      2 C2          0.0021   -0.0041    0.0020 C.3       1 <0>         0.0419
      3 N1         -1.3761   -0.5125    0.0124 N.3       1 <0>        -0.3473
      4 C3         -1.4003   -1.9631    0.2430 C.3       1 <0>         0.0176
      5 C4         -2.8500   -2.4350    0.3714 C.3       1 <0>        -0.0749
      6 C5         -2.8749   -3.9231    0.6080 C.ar      1 <0>        -0.0946
      7 C6         -2.9243   -4.8013   -0.4599 C.ar      1 <0>        -0.0892
      8 C7         -2.9743   -6.1503   -0.2174 C.ar      1 <0>        -0.1360
      9 C8         -2.9574   -6.6646    1.1004 C.ar      1 <0>         0.1393
     10 C9         -2.8617   -5.8100    2.1309 C.ar      1 <0>        -0.1466
     11 C10        -2.8431   -4.4247    1.8865 C.ar      1 <0>        -0.0941
     12 C11        -2.6936   -6.1575    3.5608 C.3       1 <0>         0.1934
     13 C12        -2.5356   -7.5448    4.0513 C.ar      1 <0>        -0.0593
     14 C13        -2.4824   -7.6169    5.4593 C.ar      1 <0>        -0.0954
     15 C14        -2.4036   -8.8162    6.1197 C.ar      1 <0>        -0.1197
     16 C15        -2.3866   -9.9885    5.3854 C.ar      1 <0>        -0.1087
     17 C16        -2.4136   -9.9142    4.0155 C.ar      1 <0>        -0.1251
     18 C17        -2.4520   -8.6785    3.3413 C.ar      1 <0>        -0.1048
     19 C18        -2.3020   -8.8699    1.8480 C.3       1 <0>         0.1105
     20 O1         -3.0935   -8.0212    1.0711 O.3       1 <0>        -0.3141
     21 O2         -3.8185   -5.6072    4.2491 O.3       1 <0>        -0.5548
     22 O3         -2.0718   -0.1671   -1.2273 O.3       1 <0>        -0.4321
     23 H1          1.0039    1.9031    0.0027 H         1 <0>         0.0602
     24 H2         -0.5459    1.8868   -0.8726 H         1 <0>         0.0626
     25 H3         -0.5289    1.8773    0.9072 H         1 <0>         0.0624
     26 H4          0.5123   -0.3556   -0.8948 H         1 <0>         0.0477
     27 H5          0.5293   -0.3651    0.8851 H         1 <0>         0.0924
     28 H6         -0.9254   -2.4723   -0.5956 H         1 <0>         0.0501
     29 H7         -0.8603   -2.1941    1.1613 H         1 <0>         0.0924
     30 H8         -3.3250   -1.9258    1.2100 H         1 <0>         0.0862
     31 H9         -3.3900   -2.2040   -0.5468 H         1 <0>         0.0756
     32 H10        -2.9238   -4.4286   -1.4735 H         1 <0>         0.1306
     33 H11        -3.0280   -6.8350   -1.0509 H         1 <0>         0.1337
     34 H12        -2.8075   -3.7410    2.7217 H         1 <0>         0.1266
     35 H13        -1.8260   -5.6014    3.9161 H         1 <0>         0.0650
     36 H14        -2.5040   -6.7021    6.0330 H         1 <0>         0.1263
     37 H15        -2.3552   -8.8450    7.1982 H         1 <0>         0.1286
     38 H16        -2.3522  -10.9467    5.8824 H         1 <0>         0.1288
     39 H17        -2.4051  -10.8276    3.4392 H         1 <0>         0.1262
     40 H18        -1.2576   -8.7071    1.5822 H         1 <0>         0.0652
     41 H19        -2.5595   -9.9007    1.6045 H         1 <0>         0.1194
     42 H20        -3.8970   -4.6467    4.1695 H         1 <0>         0.3776
     43 H21        -2.9853   -0.4818   -1.2665 H         1 <0>         0.3802
@<TRIPOS>BOND
     1    1    2 1
     2    1   23 1
     3    1   24 1
     4    1   25 1
     5    2    3 1
     6    2   26 1
     7    2   27 1
     8    3    4 1
     9    3   22 1
    10    4    5 1
    11    4   28 1
    12    4   29 1
    13    5    6 1
    14    5   30 1
    15    5   31 1
    16    6   11 ar
    17    6    7 ar
    18    7    8 ar
    19    7   32 1
    20    8    9 ar
    21    8   33 1
    22    9   20 1
    23    9   10 ar
    24   10   11 ar
    25   10   12 1
    26   11   34 1
    27   12   13 1
    28   12   21 1
    29   12   35 1
    30   13   18 ar
    31   13   14 ar
    32   14   15 ar
    33   14   36 1
    34   15   16 ar
    35   15   37 1
    36   16   17 ar
    37   16   38 1
    38   17   18 ar
    39   17   39 1
    40   18   19 1
    41   19   20 1
    42   19   40 1
    43   19   41 1
    44   21   42 1
    45   22   43 1
@<TRIPOS>MOLECULE
CHEMBL84785__1
   43    45     0     0     0
SMALL
USER_CHARGES

@<TRIPOS>ATOM
      1 C1         -0.0187    1.5258    0.0104 C.3       1 <0>        -0.1438
      2 C2          0.0021   -0.0041    0.0020 C.3       1 <0>         0.0417
      3 N1         -1.3761   -0.5125    0.0124 N.3       1 <0>        -0.3470
      4 C3         -1.4003   -1.9631    0.2430 C.3       1 <0>         0.0175
      5 C4         -2.8500   -2.4350    0.3714 C.3       1 <0>        -0.0750
      6 C5         -2.8749   -3.9231    0.6080 C.ar      1 <0>        -0.0935
      7 C6         -2.9243   -4.8013   -0.4599 C.ar      1 <0>        -0.0901
      8 C7         -2.9743   -6.1503   -0.2174 C.ar      1 <0>        -0.1344
      9 C8         -2.9574   -6.6646    1.1004 C.ar      1 <0>         0.1364
     10 C9         -2.8617   -5.8100    2.1309 C.ar      1 <0>        -0.1459
     11 C10        -2.8431   -4.4247    1.8865 C.ar      1 <0>        -0.0943
     12 C11        -2.6936   -6.1575    3.5608 C.3       1 <0>         0.1916
     13 C12        -2.5356   -7.5448    4.0513 C.ar      1 <0>        -0.0554
     14 C13        -2.4824   -7.6169    5.4593 C.ar      1 <0>        -0.0981
     15 C14        -2.4036   -8.8162    6.1197 C.ar      1 <0>        -0.1196
     16 C15        -2.3866   -9.9885    5.3854 C.ar      1 <0>        -0.1082
     17 C16        -2.4136   -9.9142    4.0155 C.ar      1 <0>        -0.1253
     18 C17        -2.4520   -8.6785    3.3413 C.ar      1 <0>        -0.1035
     19 C18        -2.3020   -8.8699    1.8480 C.3       1 <0>         0.1106
     20 O1         -3.0935   -8.0212    1.0711 O.3       1 <0>        -0.3146
     21 O2         -1.5562   -5.4284    4.0266 O.3       1 <0>        -0.5574
     22 O3         -2.0718   -0.1671   -1.2273 O.3       1 <0>        -0.4324
     23 H1          1.0039    1.9031    0.0027 H         1 <0>         0.0602
     24 H2         -0.5459    1.8868   -0.8726 H         1 <0>         0.0624
     25 H3         -0.5289    1.8773    0.9072 H         1 <0>         0.0623
     26 H4          0.5123   -0.3556   -0.8948 H         1 <0>         0.0477
     27 H5          0.5293   -0.3651    0.8851 H         1 <0>         0.0928
     28 H6         -0.9254   -2.4723   -0.5956 H         1 <0>         0.0500
     29 H7         -0.8603   -2.1941    1.1613 H         1 <0>         0.0934
     30 H8         -3.3250   -1.9258    1.2100 H         1 <0>         0.0860
     31 H9         -3.3900   -2.2040   -0.5468 H         1 <0>         0.0755
     32 H10        -2.9238   -4.4286   -1.4735 H         1 <0>         0.1307
     33 H11        -3.0280   -6.8350   -1.0509 H         1 <0>         0.1338
     34 H12        -2.8075   -3.7410    2.7217 H         1 <0>         0.1265
     35 H13        -3.5516   -5.7378    4.0858 H         1 <0>         0.0681
     36 H14        -2.5040   -6.7021    6.0330 H         1 <0>         0.1260
     37 H15        -2.3559   -8.8451    7.1982 H         1 <0>         0.1289
     38 H16        -2.3522  -10.9467    5.8824 H         1 <0>         0.1291
     39 H17        -2.4051  -10.8276    3.4392 H         1 <0>         0.1263
     40 H18        -1.2576   -8.7071    1.5822 H         1 <0>         0.0655
     41 H19        -2.5595   -9.9007    1.6045 H         1 <0>         0.1192
     42 H20        -1.6451   -4.4687    3.9480 H         1 <0>         0.3763
     43 H21        -2.9853   -0.4818   -1.2665 H         1 <0>         0.3799
@<TRIPOS>BOND
     1    1    2 1
     2    1   23 1
     3    1   24 1
     4    1   25 1
     5    2    3 1
     6    2   26 1
     7    2   27 1
     8    3    4 1
     9    3   22 1
    10    4    5 1
    11    4   28 1
    12    4   29 1
    13    5    6 1
    14    5   30 1
    15    5   31 1
    16    6   11 ar
    17    6    7 ar
    18    7    8 ar
    19    7   32 1
    20    8    9 ar
    21    8   33 1
    22    9   20 1
    23    9   10 ar
    24   10   11 ar
    25   10   12 1
    26   11   34 1
    27   12   13 1
    28   12   21 1
    29   12   35 1
    30   13   18 ar
    31   13   14 ar
    32   14   15 ar
    33   14   36 1
    34   15   16 ar
    35   15   37 1
    36   16   17 ar
    37   16   38 1
    38   17   18 ar
    39   17   39 1
    40   18   19 1
    41   19   20 1
    42   19   40 1
    43   19   41 1
    44   21   42 1
    45   22   43 1
@<TRIPOS>MOLECULE
CHEMBL148922
   42    43     0     0     0
SMALL
USER_CHARGES

@<TRIPOS>ATOM
      1 C1         -0.0184    1.5028    0.0103 C.3       1 <0>        -0.0757
      2 C2          0.0021   -0.0041    0.0020 C.2       1 <0>        -0.1935
      3 C3         -1.0484   -0.8577    0.0019 C.2       1 <0>        -0.2139
      4 C4         -0.7217   -2.2116   -0.0076 C.2       1 <0>         0.1329
      5 N1          0.5637   -2.5119   -0.0155 N.2       1 <0>        -0.4660
      6 S1          1.3320   -1.0261   -0.0167 S.3       1 <0>         0.3207
      7 C5         -1.7599   -3.2575   -0.0085 C.2       1 <0>        -0.1013
      8 C6         -1.4076   -4.5533   -0.0178 C.2       1 <0>        -0.0582
      9 C7         -2.4457   -5.5990   -0.0186 C.ar      1 <0>        -0.0313
     10 C8         -2.0810   -6.9483   -0.0225 C.ar      1 <0>        -0.1228
     11 C9         -3.0542   -7.9251   -0.0228 C.ar      1 <0>        -0.0568
     12 C10        -4.3960   -7.5724   -0.0192 C.ar      1 <0>         0.0862
     13 C11        -4.7670   -6.2296   -0.0153 C.ar      1 <0>         0.1063
     14 C12        -3.7975   -5.2444   -0.0097 C.ar      1 <0>        -0.1908
     15 O1         -6.0834   -5.8880   -0.0123 O.3       1 <0>        -0.3064
     16 C13        -6.3916   -4.4927   -0.0084 C.3       1 <0>         0.0237
     17 O2         -5.3512   -8.5397   -0.0200 O.3       1 <0>        -0.4781
     18 C14        -2.6594   -9.3795   -0.0275 C.3       1 <0>        -0.0216
     19 C15        -1.1337   -9.4937   -0.0314 C.3       1 <0>        -0.1475
     20 C16        -3.2189  -10.0639    1.2212 C.3       1 <0>        -0.1436
     21 C17        -3.2247  -10.0574   -1.2772 C.3       1 <0>        -0.1433
     22 H1          1.0042    1.8801    0.0026 H         1 <0>         0.0771
     23 H2         -0.5455    1.8639   -0.8728 H         1 <0>         0.0845
     24 H3         -0.5286    1.8543    0.9071 H         1 <0>         0.0845
     25 H4         -2.0716   -0.5121    0.0092 H         1 <0>         0.1540
     26 H5         -2.8041   -2.9819   -0.0015 H         1 <0>         0.1326
     27 H6         -0.3634   -4.8290   -0.0248 H         1 <0>         0.1344
     28 H7         -1.0373   -7.2257   -0.0257 H         1 <0>         0.1375
     29 H8         -4.0839   -4.2031   -0.0025 H         1 <0>         0.1351
     30 H9         -5.9697   -4.0249   -0.8979 H         1 <0>         0.0561
     31 H10        -7.4734   -4.3595   -0.0062 H         1 <0>         0.1028
     32 H11        -5.9667   -4.0292    0.8820 H         1 <0>         0.0555
     33 H12        -5.6259   -8.8220    0.8632 H         1 <0>         0.3828
     34 H13        -0.7309   -9.0108    0.8589 H         1 <0>         0.0594
     35 H14        -0.8481  -10.5456   -0.0348 H         1 <0>         0.0615
     36 H15        -0.7351   -9.0061   -0.9210 H         1 <0>         0.0601
     37 H16        -4.3059   -9.9825    1.2240 H         1 <0>         0.0599
     38 H17        -2.9333  -11.1158    1.2178 H         1 <0>         0.0628
     39 H18        -2.8162   -9.5809    2.1115 H         1 <0>         0.0554
     40 H19        -2.8261   -9.5698   -2.1669 H         1 <0>         0.0524
     41 H20        -2.9392  -11.1093   -1.2806 H         1 <0>         0.0567
     42 H21        -4.3117   -9.9760   -1.2745 H         1 <0>         0.0757
@<TRIPOS>BOND
     1    1    2 1
     2    1   22 1
     3    1   23 1
     4    1   24 1
     5    2    6 1
     6    2    3 2
     7    3    4 1
     8    3   25 1
     9    4    5 2
    10    4    7 1
    11    5    6 1
    12    7    8 2
    13    7   26 1
    14    8    9 1
    15    8   27 1
    16    9   14 ar
    17    9   10 ar
    18   10   11 ar
    19   10   28 1
    20   11   12 ar
    21   11   18 1
    22   12   13 ar
    23   12   17 1
    24   13   14 ar
    25   13   15 1
    26   14   29 1
    27   15   16 1
    28   16   30 1
    29   16   31 1
    30   16   32 1
    31   17   33 1
    32   18   19 1
    33   18   20 1
    34   18   21 1
    35   19   34 1
    36   19   35 1
    37   19   36 1
    38   20   37 1
    39   20   38 1
    40   20   39 1
    41   21   40 1
    42   21   41 1
    43   21   42 1
@<TRIPOS>MOLECULE
CHEMBL324130
   51    54     0     0     0
SMALL
USER_CHARGES

@<TRIPOS>ATOM
      1 C1         -2.9794   -4.6891    0.9483 C.ar      1 <0>        -0.0647
      2 C2         -3.6124   -4.6934    2.1772 C.ar      1 <0>        -0.1429
      3 C3         -3.2423   -3.7821    3.1485 C.ar      1 <0>        -0.0202
      4 C4         -2.2390   -2.8667    2.8910 C.ar      1 <0>        -0.6760
      5 C5         -1.6054   -2.8630    1.6623 C.ar      1 <0>        -0.0198
      6 C6         -1.9765   -3.7735    0.6906 C.ar      1 <0>        -0.1390
      7 S1         -1.7680   -1.7043    4.1285 S.o2      1 <0>         2.6933
      8 O1         -1.1819   -0.6025    3.4489 O.2       1 <0>        -0.9451
      9 O2         -2.8851   -1.5583    4.9947 O.2       1 <0>        -0.9583
     10 N1         -0.5631   -2.4034    5.0238 N.pl3     1 <0>        -1.1126
     11 C7          0.7269   -2.7118    4.4017 C.3       1 <0>         0.1341
     12 C8          1.7647   -2.9907    5.4908 C.3       1 <0>        -0.0981
     13 S2          3.3620   -3.3725    4.7205 S.3       1 <0>        -0.2233
     14 C9          4.4927   -3.5631    6.1261 C.3       1 <0>         0.0350
     15 C10         4.0849   -4.7986    6.8304 C.ar      1 <0>        -0.0512
     16 C11         4.1715   -5.9443    6.0124 C.ar      1 <0>        -0.0998
     17 C12         3.8998   -7.1989    6.4959 C.ar      1 <0>        -0.1198
     18 C13         3.5411   -7.3442    7.8240 C.ar      1 <0>        -0.1161
     19 C14         3.4337   -6.2247    8.6100 C.ar      1 <0>        -0.1236
     20 C15         3.6737   -4.9345    8.0980 C.ar      1 <0>        -0.1057
     21 C16         3.3236   -3.8728    9.1165 C.3       1 <0>         0.1113
     22 O3          4.1984   -2.7851    9.1500 O.3       1 <0>        -0.3160
     23 C17         4.3820   -1.9575    8.0822 C.ar      1 <0>         0.1233
     24 C18         4.5807   -2.2384    6.7786 C.ar      1 <0>        -0.1495
     25 C19         4.8894   -1.2001    5.8885 C.ar      1 <0>        -0.0467
     26 C20         4.9253    0.1249    6.3073 C.ar      1 <0>        -0.1457
     27 C21         4.6380    0.4195    7.6450 C.ar      1 <0>        -0.0508
     28 C22         4.3758   -0.6066    8.5089 C.ar      1 <0>        -0.1672
     29 C23         5.2603    1.2006    5.3593 C.2       1 <0>         0.5225
     30 O4          5.5101    0.9316    4.1923 O.co2     1 <0>        -0.6826
     31 O5          5.2889    2.3633    5.7387 O.co2     1 <0>        -0.6874
     32 H1         -3.2655   -5.4041    0.1911 H         1 <0>         0.1304
     33 H2         -4.3963   -5.4086    2.3784 H         1 <0>         0.1320
     34 H3         -3.7373   -3.7849    4.1084 H         1 <0>         0.1394
     35 H4         -0.8218   -2.1476    1.4610 H         1 <0>         0.1435
     36 H5         -1.4817   -3.7703   -0.2694 H         1 <0>         0.1345
     37 H6         -0.7114   -2.6088    5.9602 H         1 <0>         0.4190
     38 H7          0.6226   -3.5908    3.7656 H         1 <0>         0.0741
     39 H8          1.0517   -1.8636    3.7990 H         1 <0>         0.0960
     40 H9          1.8690   -2.1117    6.1269 H         1 <0>         0.0935
     41 H10         1.4399   -3.8389    6.0935 H         1 <0>         0.0842
     42 H11         5.4735   -3.7622    5.6944 H         1 <0>         0.1269
     43 H12         4.4599   -5.8309    4.9778 H         1 <0>         0.1306
     44 H13         3.9646   -8.0610    5.8486 H         1 <0>         0.1254
     45 H14         3.3481   -8.3238    8.2357 H         1 <0>         0.1236
     46 H15         3.1584   -6.3356    9.6484 H         1 <0>         0.1218
     47 H16         2.3218   -3.5029    8.8982 H         1 <0>         0.0567
     48 H17         3.3089   -4.3340   10.1040 H         1 <0>         0.1113
     49 H18         5.1035   -1.4345    4.8562 H         1 <0>         0.1421
     50 H19         4.6241    1.4429    7.9898 H         1 <0>         0.1345
     51 H20         4.1578   -0.3820    9.5426 H         1 <0>         0.1235
@<TRIPOS>BOND
     1    1    6 ar
     2    1    2 ar
     3    1   32 1
     4    2    3 ar
     5    2   33 1
     6    3    4 ar
     7    3   34 1
     8    4    5 ar
     9    4    7 1
    10    5    6 ar
    11    5   35 1
    12    6   36 1
    13    7    8 2
    14    7    9 2
    15    7   10 1
    16   10   11 1
    17   10   37 1
    18   11   12 1
    19   11   38 1
    20   11   39 1
    21   12   13 1
    22   12   40 1
    23   12   41 1
    24   13   14 1
    25   14   24 1
    26   14   15 1
    27   14   42 1
    28   15   20 ar
    29   15   16 ar
    30   16   17 ar
    31   16   43 1
    32   17   18 ar
    33   17   44 1
    34   18   19 ar
    35   18   45 1
    36   19   20 ar
    37   19   46 1
    38   20   21 1
    39   21   22 1
    40   21   47 1
    41   21   48 1
    42   22   23 1
    43   23   28 ar
    44   23   24 ar
    45   24   25 ar
    46   25   26 ar
    47   25   49 1
    48   26   27 ar
    49   26   29 1
    50   27   28 ar
    51   27   50 1
    52   28   51 1
    53   29   30 2
    54   29   31 1
@<TRIPOS>MOLECULE
CHEMBL324130__1
   51    54     0     0     0
SMALL
USER_CHARGES

@<TRIPOS>ATOM
      1 C1          1.5120   -4.3217   -2.4804 C.ar      1 <0>        -0.0619
      2 C2          1.8127   -5.6583   -2.2959 C.ar      1 <0>        -0.1401
      3 C3          1.4563   -6.2909   -1.1196 C.ar      1 <0>        -0.0188
      4 C4          0.7996   -5.5869   -0.1277 C.ar      1 <0>        -0.6780
      5 C5          0.4997   -4.2501   -0.3118 C.ar      1 <0>        -0.0214
      6 C6          0.8548   -3.6178   -1.4887 C.ar      1 <0>        -0.1389
      7 S1          0.3443   -6.3936    1.3712 S.o2      1 <0>         2.6976
      8 O1         -0.7425   -5.6570    1.9149 O.2       1 <0>        -0.9555
      9 O2          0.2522   -7.7802    1.0744 O.2       1 <0>        -0.9586
     10 N1          1.6093   -6.2183    2.4254 N.pl3     1 <0>        -1.1126
     11 C7          1.9815   -4.8860    2.9079 C.3       1 <0>         0.1349
     12 C8          2.9012   -5.0222    4.1231 C.3       1 <0>        -0.0963
     13 S2          3.3620   -3.3725    4.7205 S.3       1 <0>        -0.2242
     14 C9          4.3113   -3.7021    6.2307 C.3       1 <0>         0.0349
     15 C10         3.3518   -4.2325    7.2242 C.ar      1 <0>        -0.0573
     16 C11         2.2199   -3.4060    7.3817 C.ar      1 <0>        -0.0978
     17 C12         1.1817   -3.7532    8.2081 C.ar      1 <0>        -0.1203
     18 C13         1.2429   -4.9511    8.8973 C.ar      1 <0>        -0.1143
     19 C14         2.3569   -5.7405    8.7606 C.ar      1 <0>        -0.1260
     20 C15         3.4387   -5.3597    7.9426 C.ar      1 <0>        -0.1049
     21 C16         4.6005   -6.3148    8.1002 C.3       1 <0>         0.1109
     22 O3          5.2831   -6.6039    6.9169 O.3       1 <0>        -0.3176
     23 C17         5.9314   -5.6489    6.1913 C.ar      1 <0>         0.1230
     24 C18         5.5362   -4.4174    5.8107 C.ar      1 <0>        -0.1442
     25 C19         6.3412   -3.6742    4.9360 C.ar      1 <0>        -0.0483
     26 C20         7.5745   -4.1507    4.5069 C.ar      1 <0>        -0.1463
     27 C21         8.0171   -5.3952    4.9699 C.ar      1 <0>        -0.0521
     28 C22         7.2051   -6.1241    5.7928 C.ar      1 <0>        -0.1652
     29 C23         8.4012   -3.3597    3.5802 C.2       1 <0>         0.5223
     30 O4          8.0043   -2.2734    3.1815 O.co2     1 <0>        -0.6837
     31 O5          9.4851   -3.7888    3.2090 O.co2     1 <0>        -0.6876
     32 H1          1.7944   -3.8263   -3.3976 H         1 <0>         0.1317
     33 H2          2.3258   -6.2084   -3.0709 H         1 <0>         0.1336
     34 H3          1.6906   -7.3354   -0.9757 H         1 <0>         0.1401
     35 H4         -0.0137   -3.7001    0.4630 H         1 <0>         0.1405
     36 H5          0.6202   -2.5735   -1.6327 H         1 <0>         0.1342
     37 H6          2.1039   -6.9977    2.7234 H         1 <0>         0.4213
     38 H7          2.5018   -4.3454    2.1172 H         1 <0>         0.0774
     39 H8          1.0829   -4.3383    3.1920 H         1 <0>         0.0895
     40 H9          2.3809   -5.5627    4.9137 H         1 <0>         0.0885
     41 H10         3.7998   -5.5699    3.8390 H         1 <0>         0.0931
     42 H11         4.6319   -2.7278    6.5995 H         1 <0>         0.1252
     43 H12         2.1690   -2.4750    6.8367 H         1 <0>         0.1332
     44 H13         0.3285   -3.1004    8.3194 H         1 <0>         0.1261
     45 H14         0.4267   -5.2601    9.5334 H         1 <0>         0.1238
     46 H15         2.4054   -6.6785    9.2939 H         1 <0>         0.1216
     47 H16         5.3073   -5.8838    8.8093 H         1 <0>         0.0605
     48 H17         4.2248   -7.2487    8.5184 H         1 <0>         0.1110
     49 H18         5.9960   -2.7118    4.5882 H         1 <0>         0.1393
     50 H19         8.9862   -5.7741    4.6807 H         1 <0>         0.1341
     51 H20         7.5429   -7.0864    6.1481 H         1 <0>         0.1236
@<TRIPOS>BOND
     1    1    6 ar
     2    1    2 ar
     3    1   32 1
     4    2    3 ar
     5    2   33 1
     6    3    4 ar
     7    3   34 1
     8    4    5 ar
     9    4    7 1
    10    5    6 ar
    11    5   35 1
    12    6   36 1
    13    7    8 2
    14    7    9 2
    15    7   10 1
    16   10   11 1
    17   10   37 1
    18   11   12 1
    19   11   38 1
    20   11   39 1
    21   12   13 1
    22   12   40 1
    23   12   41 1
    24   13   14 1
    25   14   24 1
    26   14   15 1
    27   14   42 1
    28   15   20 ar
    29   15   16 ar
    30   16   17 ar
    31   16   43 1
    32   17   18 ar
    33   17   44 1
    34   18   19 ar
    35   18   45 1
    36   19   20 ar
    37   19   46 1
    38   20   21 1
    39   21   22 1
    40   21   47 1
    41   21   48 1
    42   22   23 1
    43   23   28 ar
    44   23   24 ar
    45   24   25 ar
    46   25   26 ar
    47   25   49 1
    48   26   27 ar
    49   26   29 1
    50   27   28 ar
    51   27   50 1
    52   28   51 1
    53   29   30 2
    54   29   31 1
@<TRIPOS>MOLECULE
CHEMBL71833
   44    46     0     0     0
SMALL
USER_CHARGES

@<TRIPOS>ATOM
      1 C1         -0.0187    1.5258    0.0104 C.3       1 <0>        -0.1415
      2 C2          0.0021   -0.0041    0.0020 C.3       1 <0>        -0.1229
      3 S1          0.8511   -0.5891   -1.4904 S.3       1 <0>        -0.0044
      4 C3          0.7923   -2.3448   -1.3538 C.2       1 <0>         0.1308
      5 C4          1.3623   -3.1184   -2.3370 C.2       1 <0>        -0.2182
      6 C5          1.3186   -4.5176   -2.2327 C.2       1 <0>         0.1118
      7 C6          0.6873   -5.0892   -1.1155 C.2       1 <0>        -0.2201
      8 C7          0.1233   -4.2394   -0.1442 C.2       1 <0>         0.5098
      9 O1         -0.4287   -4.7159    0.8331 O.2       1 <0>        -0.4569
     10 O2          0.1962   -2.9043   -0.2880 O.3       1 <0>        -0.2594
     11 C8          0.6158   -6.5589   -0.9620 C.ar      1 <0>         0.0430
     12 C9         -0.1117   -7.3242   -1.8746 C.ar      1 <0>        -0.1174
     13 C10        -0.1741   -8.6944   -1.7261 C.ar      1 <0>        -0.0209
     14 C11         0.4827   -9.3100   -0.6753 C.ar      1 <0>        -0.6574
     15 C12         1.2056   -8.5570    0.2329 C.ar      1 <0>        -0.0206
     16 C13         1.2803   -7.1866    0.0926 C.ar      1 <0>        -0.1153
     17 S2          0.3975  -11.0604   -0.4925 S.o2      1 <0>         2.4984
     18 O3          0.5975  -11.2902    0.8955 O.2       1 <0>        -0.9363
     19 O4         -0.8224  -11.4315   -1.1198 O.2       1 <0>        -0.9368
     20 C14         1.8066  -11.6973   -1.4407 C.3       1 <0>        -0.6502
     21 C15         1.9245   -5.3729   -3.2783 C.ar      1 <0>        -0.0712
     22 C16         3.0150   -6.1873   -2.9720 C.ar      1 <0>        -0.0872
     23 C17         3.5750   -6.9824   -3.9507 C.ar      1 <0>        -0.1174
     24 C18         3.0575   -6.9728   -5.2338 C.ar      1 <0>        -0.1046
     25 C19         1.9765   -6.1670   -5.5440 C.ar      1 <0>        -0.1166
     26 C20         1.4038   -5.3720   -4.5726 C.ar      1 <0>        -0.0932
     27 H1          1.0039    1.9031    0.0027 H         1 <0>         0.0698
     28 H2         -0.5459    1.8868   -0.8726 H         1 <0>         0.0698
     29 H3         -0.5289    1.8773    0.9072 H         1 <0>         0.0850
     30 H4          0.5293   -0.3651    0.8851 H         1 <0>         0.1008
     31 H5         -1.0205   -0.3814    0.0098 H         1 <0>         0.1008
     32 H6          1.8409   -2.6520   -3.1855 H         1 <0>         0.1655
     33 H7         -0.6251   -6.8449   -2.6950 H         1 <0>         0.1307
     34 H8         -0.7370   -9.2878   -2.4313 H         1 <0>         0.1440
     35 H9          1.7157   -9.0435    1.0511 H         1 <0>         0.1448
     36 H10         1.8483   -6.6003    0.7998 H         1 <0>         0.1312
     37 H11         2.7325  -11.2937   -1.0309 H         1 <0>         0.1315
     38 H12         1.8252  -12.7853   -1.3775 H         1 <0>         0.1333
     39 H13         1.7090  -11.3955   -2.4836 H         1 <0>         0.1314
     40 H14         3.4202   -6.1951   -1.9709 H         1 <0>         0.1245
     41 H15         4.4192   -7.6133   -3.7148 H         1 <0>         0.1279
     42 H16         3.4996   -7.5967   -5.9965 H         1 <0>         0.1266
     43 H17         1.5773   -6.1636   -6.5475 H         1 <0>         0.1293
     44 H18         0.5571   -4.7468   -4.8148 H         1 <0>         0.1277
@<TRIPOS>BOND
     1    1    2 1
     2    1   27 1
     3    1   28 1
     4    1   29 1
     5    2    3 1
     6    2   30 1
     7    2   31 1
     8    3    4 1
     9    4   10 1
    10    4    5 2
    11    5    6 1
    12    5   32 1
    13    6    7 2
    14    6   21 1
    15    7    8 1
    16    7   11 1
    17    8    9 2
    18    8   10 1
    19   11   16 ar
    20   11   12 ar
    21   12   13 ar
    22   12   33 1
    23   13   14 ar
    24   13   34 1
    25   14   15 ar
    26   14   17 1
    27   15   16 ar
    28   15   35 1
    29   16   36 1
    30   17   18 2
    31   17   19 2
    32   17   20 1
    33   20   37 1
    34   20   38 1
    35   20   39 1
    36   21   26 ar
    37   21   22 ar
    38   22   23 ar
    39   22   40 1
    40   23   24 ar
    41   23   41 1
    42   24   25 ar
    43   24   42 1
    44   25   26 ar
    45   25   43 1
    46   26   44 1
@<TRIPOS>MOLECULE
CHEMBL293122
   33    35     0     0     0
SMALL
USER_CHARGES

@<TRIPOS>ATOM
      1 C1         -0.0167    1.3787    0.0096 C.ar      1 <0>        -0.1725
      2 C2          1.1833    2.0719    0.0019 C.ar      1 <0>        -0.0730
      3 C3          2.3661    1.3328   -0.0130 C.ar      1 <0>        -0.1065
      4 C4          2.3041   -0.0621   -0.0190 C.ar      1 <0>         0.1469
      5 N1          1.1387   -0.6746   -0.0118 N.ar      1 <0>        -0.4753
      6 C5          0.0021   -0.0041    0.0020 C.ar      1 <0>         0.1102
      7 C6          3.5873   -0.8521   -0.0323 C.3       1 <0>        -0.0754
      8 C7          4.6423   -0.1133   -0.8529 C.3       1 <0>        -0.0984
      9 C8          4.7538    1.3197   -0.4124 C.2       1 <0>        -0.1010
     10 C9          3.6838    1.9990   -0.0229 C.2       1 <0>        -0.1088
     11 C10         3.8113    3.4383    0.4053 C.3       1 <0>        -0.0915
     12 C11         3.5066    4.3527   -0.7829 C.3       1 <0>         0.0912
     13 N2          3.6306    5.7519   -0.3667 N.pl3     1 <0>        -0.4079
     14 C12         2.6356    6.5365    0.1510 C.2       1 <0>         0.0232
     15 C13         3.1788    7.7444    0.3947 C.2       1 <0>         0.0055
     16 N3          4.4703    7.6986    0.0357 N.pl3     1 <0>        -0.4762
     17 C14         4.7493    6.5067   -0.4165 C.cat     1 <0>         0.2880
     18 H1         -0.9556    1.9122    0.0259 H         1 <0>         0.1403
     19 H2          1.2021    3.1517    0.0068 H         1 <0>         0.1269
     20 H3         -0.9321   -0.5460    0.0076 H         1 <0>         0.1618
     21 H4          3.9458   -0.9780    0.9894 H         1 <0>         0.0903
     22 H5          3.4051   -1.8316   -0.4744 H         1 <0>         0.0978
     23 H6          5.6066   -0.6045   -0.7231 H         1 <0>         0.0927
     24 H7          4.3638   -0.1441   -1.9063 H         1 <0>         0.0865
     25 H8          5.7196    1.8029   -0.4131 H         1 <0>         0.1245
     26 H9          3.1055    3.6416    1.2106 H         1 <0>         0.0893
     27 H10         4.8264    3.6244    0.7561 H         1 <0>         0.0902
     28 H11         4.2125    4.1494   -1.5883 H         1 <0>         0.1253
     29 H12         2.4916    4.1666   -1.1338 H         1 <0>         0.1243
     30 H13         1.6115    6.2433    0.3293 H         1 <0>         0.2219
     31 H14         2.6647    8.6000    0.8071 H         1 <0>         0.2243
     32 H15         5.7143    6.1790   -0.7740 H         1 <0>         0.2600
     33 H16         5.0988    8.4342    0.1049 H         1 <0>         0.4657
@<TRIPOS>BOND
     1    1    6 ar
     2    1    2 ar
     3    1   18 1
     4    2    3 ar
     5    2   19 1
     6    3   10 1
     7    3    4 ar
     8    4    5 ar
     9    4    7 1
    10    5    6 ar
    11    6   20 1
    12    7    8 1
    13    7   21 1
    14    7   22 1
    15    8    9 1
    16    8   23 1
    17    8   24 1
    18    9   10 2
    19    9   25 1
    20   10   11 1
    21   11   12 1
    22   11   26 1
    23   11   27 1
    24   12   13 1
    25   12   28 1
    26   12   29 1
    27   13   17 1
    28   13   14 1
    29   14   15 2
    30   14   30 1
    31   15   16 1
    32   15   31 1
    33   16   17 2
    34   16   33 1
    35   17   32 1
@<TRIPOS>MOLECULE
CHEMBL293122__1
   32    34     0     0     0
SMALL
USER_CHARGES

@<TRIPOS>ATOM
      1 C1         -0.0167    1.3787    0.0096 C.ar      1 <0>        -0.1732
      2 C2          1.1833    2.0719    0.0019 C.ar      1 <0>        -0.0684
      3 C3          2.3661    1.3328   -0.0130 C.ar      1 <0>        -0.0982
      4 C4          2.3041   -0.0621   -0.0190 C.ar      1 <0>         0.1406
      5 N1          1.1387   -0.6746   -0.0118 N.ar      1 <0>        -0.4798
      6 C5          0.0021   -0.0041    0.0020 C.ar      1 <0>         0.1014
      7 C6          3.5873   -0.8521   -0.0323 C.3       1 <0>        -0.0712
      8 C7          4.6423   -0.1133   -0.8529 C.3       1 <0>        -0.0934
      9 C8          4.7538    1.3197   -0.4124 C.2       1 <0>        -0.1210
     10 C9          3.6838    1.9990   -0.0229 C.2       1 <0>        -0.0955
     11 C10         3.8113    3.4383    0.4053 C.3       1 <0>        -0.0915
     12 C11         3.5066    4.3527   -0.7829 C.3       1 <0>         0.1077
     13 N2          3.6306    5.7519   -0.3667 N.pl3     1 <0>        -0.4605
     14 C12         2.6354    6.5366    0.1505 C.2       1 <0>        -0.0590
     15 C13         3.1787    7.7445    0.3945 C.2       1 <0>        -0.0277
     16 N3          4.4704    7.6985    0.0360 N.2       1 <0>        -0.4947
     17 C14         4.7494    6.5065   -0.4161 C.2       1 <0>         0.1817
     18 H1         -0.9556    1.9122    0.0259 H         1 <0>         0.1381
     19 H2          1.2021    3.1517    0.0068 H         1 <0>         0.1330
     20 H3         -0.9321   -0.5460    0.0076 H         1 <0>         0.1580
     21 H4          3.9458   -0.9780    0.9894 H         1 <0>         0.0875
     22 H5          3.4051   -1.8316   -0.4744 H         1 <0>         0.0931
     23 H6          5.6066   -0.6045   -0.7231 H         1 <0>         0.0880
     24 H7          4.3638   -0.1441   -1.9063 H         1 <0>         0.0814
     25 H8          5.7196    1.8029   -0.4131 H         1 <0>         0.1236
     26 H9          3.1055    3.6416    1.2106 H         1 <0>         0.0801
     27 H10         4.8264    3.6244    0.7561 H         1 <0>         0.0843
     28 H11         4.2125    4.1494   -1.5883 H         1 <0>         0.0976
     29 H12         2.4916    4.1666   -1.1338 H         1 <0>         0.0923
     30 H13         1.6113    6.2436    0.3285 H         1 <0>         0.1724
     31 H14         2.6645    8.6001    0.8066 H         1 <0>         0.1696
     32 H15         5.7145    6.1787   -0.7731 H         1 <0>         0.2036
@<TRIPOS>BOND
     1    1    6 ar
     2    1    2 ar
     3    1   18 1
     4    2    3 ar
     5    2   19 1
     6    3   10 1
     7    3    4 ar
     8    4    5 ar
     9    4    7 1
    10    5    6 ar
    11    6   20 1
    12    7    8 1
    13    7   21 1
    14    7   22 1
    15    8    9 1
    16    8   23 1
    17    8   24 1
    18    9   10 2
    19    9   25 1
    20   10   11 1
    21   11   12 1
    22   11   26 1
    23   11   27 1
    24   12   13 1
    25   12   28 1
    26   12   29 1
    27   13   17 1
    28   13   14 1
    29   14   15 2
    30   14   30 1
    31   15   16 1
    32   15   31 1
    33   16   17 2
    34   17   32 1
@<TRIPOS>MOLECULE
CHEMBL551829
   44    46     0     0     0
SMALL
USER_CHARGES

@<TRIPOS>ATOM
      1 C1         -0.0225    1.8097    0.0120 C.3       1 <0>        -0.6494
      2 S1          0.0021   -0.0041    0.0020 S.o2      1 <0>         2.4985
      3 O1          0.8352   -0.4880    1.0465 O.2       1 <0>        -0.9334
      4 O2         -1.3147   -0.5105   -0.1678 O.2       1 <0>        -0.9336
      5 C2          0.8454   -0.4373   -1.4831 C.ar      1 <0>        -0.6426
      6 C3          0.1315   -0.6121   -2.6550 C.ar      1 <0>        -0.0296
      7 C4          0.7868   -0.9510   -3.8213 C.ar      1 <0>        -0.0881
      8 C5          2.1707   -1.1172   -3.8169 C.ar      1 <0>        -0.0098
      9 C6          2.8848   -0.9398   -2.6332 C.ar      1 <0>        -0.1074
     10 C7          2.2196   -0.5958   -1.4740 C.ar      1 <0>        -0.0268
     11 C8          2.8805   -1.4819   -5.0670 C.ar      1 <0>         0.2673
     12 C9          4.2671   -1.6561   -5.0705 C.ar      1 <0>        -0.2334
     13 C10         4.8856   -1.9960   -6.2603 C.ar      1 <0>         0.1443
     14 N1          4.1519   -2.1451   -7.3520 N.ar      1 <0>        -0.5309
     15 C11         2.8384   -1.9736   -7.3196 C.ar      1 <0>         0.5827
     16 N2          2.2061   -1.6535   -6.2015 N.ar      1 <0>        -0.5395
     17 N3          2.1079   -2.1385   -8.4837 N.pl3     1 <0>        -0.6842
     18 C12         2.7880   -2.4982   -9.7305 C.3       1 <0>         0.1762
     19 C13         1.7746   -2.6156  -10.8397 C.ar      1 <0>        -0.1164
     20 C14         1.1605   -3.8287  -11.0892 C.ar      1 <0>        -0.0970
     21 C15         0.2309   -3.9364  -12.1066 C.ar      1 <0>        -0.1216
     22 C16        -0.0848   -2.8310  -12.8743 C.ar      1 <0>        -0.1073
     23 C17         0.5287   -1.6177  -12.6242 C.ar      1 <0>        -0.1218
     24 C18         1.4551   -1.5090  -11.6040 C.ar      1 <0>        -0.0970
     25 C19         6.3786   -2.1940   -6.3131 C.3       1 <0>         0.5256
     26 F1          6.6811   -3.5338   -6.0472 F         1 <0>        -0.1635
     27 F2          6.8494   -1.8534   -7.5857 F         1 <0>        -0.1584
     28 F3          6.9913   -1.3786   -5.3556 F         1 <0>        -0.1642
     29 H1          1.0001    2.1870    0.0043 H         1 <0>         0.1328
     30 H2         -0.5497    2.1708   -0.8711 H         1 <0>         0.1325
     31 H3         -0.5327    2.1613    0.9088 H         1 <0>         0.1351
     32 H4         -0.9408   -0.4834   -2.6571 H         1 <0>         0.1497
     33 H5          0.2284   -1.0875   -4.7356 H         1 <0>         0.1479
     34 H6          3.9572   -1.0677   -2.6240 H         1 <0>         0.1425
     35 H7          2.7724   -0.4538   -0.5572 H         1 <0>         0.1515
     36 H8          4.8424   -1.5281   -4.1655 H         1 <0>         0.1626
     37 H9          1.1457   -2.0160   -8.4741 H         1 <0>         0.4201
     38 H10         3.5155   -1.7268   -9.9831 H         1 <0>         0.0810
     39 H11         3.2995   -3.4522   -9.6032 H         1 <0>         0.0804
     40 H12         1.4071   -4.6923  -10.4894 H         1 <0>         0.1244
     41 H13        -0.2484   -4.8843  -12.3020 H         1 <0>         0.1259
     42 H14        -0.8105   -2.9153  -13.6697 H         1 <0>         0.1251
     43 H15         0.2823   -0.7542  -13.2242 H         1 <0>         0.1258
     44 H16         1.9317   -0.5602  -11.4062 H         1 <0>         0.1243
@<TRIPOS>BOND
     1    1    2 1
     2    1   29 1
     3    1   30 1
     4    1   31 1
     5    2    3 2
     6    2    4 2
     7    2    5 1
     8    5   10 ar
     9    5    6 ar
    10    6    7 ar
    11    6   32 1
    12    7    8 ar
    13    7   33 1
    14    8    9 ar
    15    8   11 1
    16    9   10 ar
    17    9   34 1
    18   10   35 1
    19   11   16 ar
    20   11   12 ar
    21   12   13 ar
    22   12   36 1
    23   13   14 ar
    24   13   25 1
    25   14   15 ar
    26   15   16 ar
    27   15   17 1
    28   17   18 1
    29   17   37 1
    30   18   19 1
    31   18   38 1
    32   18   39 1
    33   19   24 ar
    34   19   20 ar
    35   20   21 ar
    36   20   40 1
    37   21   22 ar
    38   21   41 1
    39   22   23 ar
    40   22   42 1
    41   23   24 ar
    42   23   43 1
    43   24   44 1
    44   25   26 1
    45   25   27 1
    46   25   28 1
@<TRIPOS>MOLECULE
CHEMBL268501
   39    41     0     0     0
SMALL
USER_CHARGES

@<TRIPOS>ATOM
      1 C1          2.5415    0.9082    0.3304 C.3       1 <0>        -0.1251
      2 C2          1.8843   -0.4449    0.2396 C.ar      1 <0>        -0.0060
      3 C3          1.9043   -1.1387   -0.9627 C.ar      1 <0>        -0.1565
      4 C4          1.3148   -2.3679   -1.0683 C.ar      1 <0>        -0.0348
      5 C5          0.6875   -2.9287    0.0449 C.ar      1 <0>        -0.1932
      6 C6          0.6652   -2.2277    1.2665 C.ar      1 <0>         0.2154
      7 C7          1.2742   -0.9833    1.3535 C.ar      1 <0>        -0.1765
      8 N1          0.0367   -2.8102    2.3494 N.am      1 <0>        -0.5357
      9 C8         -0.5374   -4.0206    2.2284 C.2       1 <0>         0.6483
     10 O1         -1.0833   -4.5064    3.2037 O.2       1 <0>        -0.5122
     11 N2         -0.5359   -4.7124    1.0879 N.2       1 <0>        -0.5349
     12 C9          0.0386   -4.2458   -0.0101 C.2       1 <0>         0.3421
     13 C10         0.0269   -5.0314   -1.2621 C.ar      1 <0>        -0.0752
     14 C11         1.1611   -5.0712   -2.0758 C.ar      1 <0>        -0.0896
     15 C12         1.1433   -5.8063   -3.2428 C.ar      1 <0>        -0.1234
     16 C13         0.0048   -6.5029   -3.6081 C.ar      1 <0>        -0.0924
     17 C14        -1.1226   -6.4678   -2.8065 C.ar      1 <0>        -0.1232
     18 C15        -1.1165   -5.7418   -1.6337 C.ar      1 <0>        -0.0619
     19 C16        -0.0044   -2.1078    3.6344 C.3       1 <0>         0.1283
     20 C17        -1.4605   -1.8983    4.0547 C.3       1 <0>        -0.1711
     21 C18         0.7175   -2.9417    4.6948 C.3       1 <0>        -0.1696
     22 H1          3.5851    0.7864    0.6206 H         1 <0>         0.0820
     23 H2          2.4894    1.4032   -0.6392 H         1 <0>         0.0765
     24 H3          2.0254    1.5135    1.0757 H         1 <0>         0.0731
     25 H4          2.3899   -0.7030   -1.8234 H         1 <0>         0.1362
     26 H5          1.3344   -2.9012   -2.0072 H         1 <0>         0.1473
     27 H6          1.2671   -0.4387    2.2860 H         1 <0>         0.1407
     28 H7          2.0500   -4.5274   -1.7922 H         1 <0>         0.1338
     29 H8          2.0198   -5.8379   -3.8730 H         1 <0>         0.1326
     30 H9         -0.0040   -7.0763   -4.5233 H         1 <0>         0.1295
     31 H10        -2.0080   -7.0135   -3.0977 H         1 <0>         0.1320
     32 H11        -1.9956   -5.7189   -1.0068 H         1 <0>         0.1335
     33 H12         0.4881   -1.1404    3.5356 H         1 <0>         0.0990
     34 H13        -1.9530   -2.8657    4.1535 H         1 <0>         0.0861
     35 H14        -1.4911   -1.3757    5.0107 H         1 <0>         0.0749
     36 H15        -1.9749   -1.3042    3.2992 H         1 <0>         0.0555
     37 H16         1.7549   -3.0910    4.3953 H         1 <0>         0.0558
     38 H17         0.6869   -2.4191    5.6508 H         1 <0>         0.0754
     39 H18         0.2251   -3.9091    4.7935 H         1 <0>         0.0830
@<TRIPOS>BOND
     1    1    2 1
     2    1   22 1
     3    1   23 1
     4    1   24 1
     5    2    7 ar
     6    2    3 ar
     7    3    4 ar
     8    3   25 1
     9    4    5 ar
    10    4   26 1
    11    5   12 1
    12    5    6 ar
    13    6    7 ar
    14    6    8 1
    15    7   27 1
    16    8    9 am
    17    8   19 1
    18    9   10 2
    19    9   11 1
    20   11   12 2
    21   12   13 1
    22   13   18 ar
    23   13   14 ar
    24   14   15 ar
    25   14   28 1
    26   15   16 ar
    27   15   29 1
    28   16   17 ar
    29   16   30 1
    30   17   18 ar
    31   17   31 1
    32   18   32 1
    33   19   20 1
    34   19   21 1
    35   19   33 1
    36   20   34 1
    37   20   35 1
    38   20   36 1
    39   21   37 1
    40   21   38 1
    41   21   39 1
@<TRIPOS>MOLECULE
CHEMBL564962
   48    51     0     0     0
SMALL
USER_CHARGES

@<TRIPOS>ATOM
      1 C1         -0.4286    1.9145   -0.2877 C.3       1 <0>        -0.6512
      2 S1         -0.1493    0.1294   -0.1262 S.o2      1 <0>         2.4974
      3 O1          0.7620   -0.1296    0.9329 O.2       1 <0>        -0.9355
      4 O2         -1.3845   -0.5685   -0.2060 O.2       1 <0>        -0.9359
      5 C2          0.7203   -0.3270   -1.5892 C.ar      1 <0>        -0.6593
      6 C3          0.0173   -0.7132   -2.7163 C.ar      1 <0>        -0.0165
      7 C4          0.6929   -1.0722   -3.8648 C.ar      1 <0>        -0.1332
      8 C5          2.0866   -1.0446   -3.8879 C.ar      1 <0>         0.0274
      9 C6          2.7897   -0.6540   -2.7490 C.ar      1 <0>        -0.1213
     10 C7          2.1031   -0.2923   -1.6079 C.ar      1 <0>        -0.0189
     11 C8          2.8181   -1.4294   -5.1182 C.ar      1 <0>        -0.2163
     12 C9          2.5205   -2.6179   -5.7868 C.ar      1 <0>         0.2169
     13 N1          3.1942   -2.9266   -6.8811 N.ar      1 <0>        -0.5498
     14 C10         4.1432   -2.1277   -7.3496 C.ar      1 <0>         0.5705
     15 N2          4.4617   -0.9911   -6.7509 N.ar      1 <0>        -0.5529
     16 C11         3.8280   -0.6031   -5.6473 C.ar      1 <0>         0.2848
     17 C12         4.1828    0.6725   -4.9836 C.ar      1 <0>        -0.0773
     18 C13         3.1962    1.4324   -4.3554 C.ar      1 <0>        -0.0536
     19 C14         3.5315    2.6196   -3.7387 C.ar      1 <0>        -0.1599
     20 C15         4.8462    3.0581   -3.7429 C.ar      1 <0>         0.1239
     21 C16         5.8301    2.3065   -4.3658 C.ar      1 <0>        -0.1600
     22 C17         5.5057    1.1149   -4.9798 C.ar      1 <0>        -0.0397
     23 F1          5.1697    4.2221   -3.1382 F         1 <0>        -0.1329
     24 N3          4.8218   -2.4939   -8.4998 N.pl3     1 <0>        -0.6332
     25 C18         4.4257   -3.6288   -9.2138 C.ar      1 <0>         0.1589
     26 C19         3.0839   -3.9837   -9.2681 C.ar      1 <0>        -0.1138
     27 C20         2.6960   -5.1051   -9.9746 C.ar      1 <0>        -0.0998
     28 C21         3.6417   -5.8743  -10.6276 C.ar      1 <0>        -0.1353
     29 C22         4.9783   -5.5237  -10.5755 C.ar      1 <0>        -0.0984
     30 C23         5.3724   -4.4006   -9.8751 C.ar      1 <0>        -0.1468
     31 H1          0.5305    2.4269   -0.3631 H         1 <0>         0.1319
     32 H2         -1.0168    2.1106   -1.1841 H         1 <0>         0.1321
     33 H3         -0.9672    2.2785    0.5872 H         1 <0>         0.1340
     34 H4         -1.0623   -0.7342   -2.6972 H         1 <0>         0.1464
     35 H5          0.1431   -1.3742   -4.7439 H         1 <0>         0.1366
     36 H6          3.8693   -0.6307   -2.7611 H         1 <0>         0.1330
     37 H7          2.6465    0.0143   -0.7264 H         1 <0>         0.1452
     38 H8          1.7499   -3.2769   -5.4146 H         1 <0>         0.1772
     39 H9          2.1713    1.0919   -4.3522 H         1 <0>         0.1399
     40 H10         2.7682    3.2087   -3.2520 H         1 <0>         0.1422
     41 H11         6.8532    2.6523   -4.3664 H         1 <0>         0.1432
     42 H12         6.2738    0.5278   -5.4611 H         1 <0>         0.1414
     43 H13         5.5720   -1.9630   -8.8102 H         1 <0>         0.4252
     44 H14         2.3449   -3.3836   -8.7581 H         1 <0>         0.1328
     45 H15         1.6529   -5.3819  -10.0170 H         1 <0>         0.1254
     46 H16         3.3357   -6.7510  -11.1791 H         1 <0>         0.1236
     47 H17         5.7145   -6.1268  -11.0863 H         1 <0>         0.1268
     48 H18         6.4161   -4.1250   -9.8382 H         1 <0>         0.1246
@<TRIPOS>BOND
     1    1    2 1
     2    1   31 1
     3    1   32 1
     4    1   33 1
     5    2    3 2
     6    2    4 2
     7    2    5 1
     8    5   10 ar
     9    5    6 ar
    10    6    7 ar
    11    6   34 1
    12    7    8 ar
    13    7   35 1
    14    8    9 ar
    15    8   11 1
    16    9   10 ar
    17    9   36 1
    18   10   37 1
    19   11   16 ar
    20   11   12 ar
    21   12   13 ar
    22   12   38 1
    23   13   14 ar
    24   14   15 ar
    25   14   24 1
    26   15   16 ar
    27   16   17 1
    28   17   22 ar
    29   17   18 ar
    30   18   19 ar
    31   18   39 1
    32   19   20 ar
    33   19   40 1
    34   20   21 ar
    35   20   23 1
    36   21   22 ar
    37   21   41 1
    38   22   42 1
    39   24   25 1
    40   24   43 1
    41   25   30 ar
    42   25   26 ar
    43   26   27 ar
    44   26   44 1
    45   27   28 ar
    46   27   45 1
    47   28   29 ar
    48   28   46 1
    49   29   30 ar
    50   29   47 1
    51   30   48 1
@<TRIPOS>MOLECULE
CHEMBL108936
   39    41     0     0     0
SMALL
USER_CHARGES

@<TRIPOS>ATOM
      1 C1         -1.3007    1.3638    0.2467 C.3       1 <0>        -0.1111
      2 C2         -0.9982   -0.1126    0.2501 C.ar      1 <0>         0.1490
      3 C3         -0.8406   -0.7721    1.4560 C.ar      1 <0>        -0.1694
      4 C4         -0.5630   -2.1275    1.4554 C.ar      1 <0>        -0.0570
      5 C5         -0.4520   -2.7815    0.2226 C.ar      1 <0>        -0.0899
      6 C6         -0.6249   -2.0443   -0.9492 C.ar      1 <0>         0.1609
      7 N1         -0.8933   -0.7560   -0.8966 N.ar      1 <0>        -0.4781
      8 C7         -0.1561   -4.2290    0.1635 C.2       1 <0>         0.2823
      9 N2         -0.4289   -5.0303   -0.8425 N.2       1 <0>        -0.4248
     10 C8         -0.0196   -6.2690   -0.5451 C.2       1 <0>        -0.0802
     11 C9          0.5294   -6.2526    0.6867 C.2       1 <0>         0.0392
     12 N3          0.4532   -4.9621    1.1427 N.pl3     1 <0>        -0.4144
     13 C10         0.9099   -4.4860    2.3791 C.ar      1 <0>         0.1639
     14 C11         1.8294   -3.4468    2.4278 C.ar      1 <0>        -0.1251
     15 C12         2.2773   -2.9794    3.6479 C.ar      1 <0>         0.0005
     16 C13         1.8112   -3.5457    4.8201 C.ar      1 <0>        -0.6677
     17 C14         0.8954   -4.5808    4.7749 C.ar      1 <0>         0.0018
     18 C15         0.4394   -5.0487    3.5580 C.ar      1 <0>        -0.1295
     19 S1          2.3858   -2.9474    6.3747 S.o2      1 <0>         2.7022
     20 O1          2.2126   -4.0062    7.3065 O.2       1 <0>        -0.9547
     21 O2          3.6490   -2.3424    6.1352 O.2       1 <0>        -0.9544
     22 N4          1.3605   -1.7336    6.8415 N.pl3     1 <0>        -1.2478
     23 C16        -0.1506   -7.4778   -1.4353 C.3       1 <0>         0.5563
     24 F1         -0.6656   -7.0891   -2.6766 F         1 <0>        -0.1615
     25 F2          1.1073   -8.0632   -1.6150 F         1 <0>        -0.1706
     26 F3         -1.0150   -8.4033   -0.8409 F         1 <0>        -0.1708
     27 H1         -2.3801    1.5135    0.2695 H         1 <0>         0.0849
     28 H2         -0.8507    1.8289    1.1238 H         1 <0>         0.0794
     29 H3         -0.8900    1.8167   -0.6557 H         1 <0>         0.0828
     30 H4         -0.9330   -0.2344    2.3881 H         1 <0>         0.1440
     31 H5         -0.4348   -2.6671    2.3821 H         1 <0>         0.1340
     32 H6         -0.5418   -2.5352   -1.9076 H         1 <0>         0.1711
     33 H7          0.9527   -7.0957    1.2124 H         1 <0>         0.1997
     34 H8          2.1943   -3.0047    1.5125 H         1 <0>         0.1456
     35 H9          2.9925   -2.1711    3.6863 H         1 <0>         0.1594
     36 H10         0.5331   -5.0210    5.6922 H         1 <0>         0.1598
     37 H11        -0.2790   -5.8543    3.5234 H         1 <0>         0.1486
     38 H12         0.6125   -1.4861    6.2757 H         1 <0>         0.4170
     39 H13         1.5080   -1.2701    7.6807 H         1 <0>         0.4246
@<TRIPOS>BOND
     1    1    2 1
     2    1   27 1
     3    1   28 1
     4    1   29 1
     5    2    7 ar
     6    2    3 ar
     7    3    4 ar
     8    3   30 1
     9    4    5 ar
    10    4   31 1
    11    5    6 ar
    12    5    8 1
    13    6    7 ar
    14    6   32 1
    15    8   12 1
    16    8    9 2
    17    9   10 1
    18   10   11 2
    19   10   23 1
    20   11   12 1
    21   11   33 1
    22   12   13 1
    23   13   18 ar
    24   13   14 ar
    25   14   15 ar
    26   14   34 1
    27   15   16 ar
    28   15   35 1
    29   16   17 ar
    30   16   19 1
    31   17   18 ar
    32   17   36 1
    33   18   37 1
    34   19   20 2
    35   19   21 2
    36   19   22 1
    37   22   38 1
    38   22   39 1
    39   23   24 1
    40   23   25 1
    41   23   26 1
@<TRIPOS>MOLECULE
CHEMBL347842
   50    53     0     0     0
SMALL
USER_CHARGES

@<TRIPOS>ATOM
      1 C1         -0.2154    2.2014   -0.3165 C.3       1 <0>        -0.6503
      2 S1         -0.4693    0.4060   -0.3672 S.o2      1 <0>         2.4983
      3 O1          0.2391   -0.2187    0.6945 O.2       1 <0>        -0.9343
      4 O2         -1.8407    0.1118   -0.5948 O.2       1 <0>        -0.9337
      5 C2          0.3538   -0.1265   -1.8313 C.ar      1 <0>        -0.6509
      6 C3         -0.3014   -0.0720   -3.0486 C.ar      1 <0>        -0.0216
      7 C4          0.3379   -0.4876   -4.1986 C.ar      1 <0>        -0.1141
      8 C5          1.6471   -0.9633   -4.1321 C.ar      1 <0>        -0.0062
      9 C6          2.3024   -1.0159   -2.9021 C.ar      1 <0>        -0.1063
     10 C7          1.6546   -0.5922   -1.7598 C.ar      1 <0>        -0.0198
     11 C8          2.3391   -1.4116   -5.3632 C.2       1 <0>        -0.0318
     12 C9          1.8913   -2.5572   -6.0559 C.2       1 <0>         0.0959
     13 N1          2.4976   -2.9549   -7.1396 N.2       1 <0>        -0.2018
     14 N2          3.6027   -2.2644   -7.6469 N.am      1 <0>        -0.3951
     15 C10         4.0705   -1.1650   -7.0234 C.2       1 <0>         0.5035
     16 O3          5.0361   -0.5673   -7.4717 O.2       1 <0>        -0.5121
     17 C11         3.4306   -0.7061   -5.8503 C.2       1 <0>         0.0706
     18 O4          3.8790    0.4029   -5.2076 O.3       1 <0>        -0.2135
     19 C12         3.7603    1.5973   -5.8400 C.ar      1 <0>         0.3239
     20 C13         4.3048    2.7380   -5.2633 C.ar      1 <0>        -0.1638
     21 C14         4.1770    3.9503   -5.9181 C.ar      1 <0>        -0.0297
     22 C15         3.5052    3.9789   -7.1338 C.ar      1 <0>        -0.1198
     23 C16         2.9889    2.8050   -7.6481 C.ar      1 <0>         0.1593
     24 N3          3.1320    1.6634   -7.0021 N.ar      1 <0>        -0.5116
     25 Cl1         3.3158    5.4732   -7.9969 Cl        1 <0>        -0.0451
     26 C17         4.2585   -2.7410   -8.8672 C.3       1 <0>         0.1677
     27 C18         5.3490   -3.7155   -8.5037 C.ar      1 <0>        -0.1216
     28 C19         6.6315   -3.2593   -8.2628 C.ar      1 <0>        -0.0926
     29 C20         7.6318   -4.1533   -7.9293 C.ar      1 <0>        -0.1251
     30 C21         7.3495   -5.5033   -7.8364 C.ar      1 <0>        -0.1077
     31 C22         6.0668   -5.9593   -8.0764 C.ar      1 <0>        -0.1258
     32 C23         5.0655   -5.0649   -8.4056 C.ar      1 <0>        -0.0926
     33 H1          0.8518    2.4188   -0.3607 H         1 <0>         0.1321
     34 H2         -0.7158    2.6633   -1.1676 H         1 <0>         0.1320
     35 H3         -0.6296    2.6009    0.6092 H         1 <0>         0.1351
     36 H4         -1.3154    0.2963   -3.0988 H         1 <0>         0.1473
     37 H5         -0.1747   -0.4449   -5.1482 H         1 <0>         0.1387
     38 H6          3.3162   -1.3837   -2.8444 H         1 <0>         0.1373
     39 H7          2.1626   -0.6280   -0.8075 H         1 <0>         0.1503
     40 H8          1.0400   -3.1088   -5.6851 H         1 <0>         0.2040
     41 H9          4.8206    2.6794   -4.3163 H         1 <0>         0.1554
     42 H10         4.5898    4.8536   -5.4937 H         1 <0>         0.1576
     43 H11         2.4654    2.8213   -8.5926 H         1 <0>         0.1707
     44 H12         3.5255   -3.2367   -9.5037 H         1 <0>         0.1082
     45 H13         4.6906   -1.8949   -9.4015 H         1 <0>         0.1109
     46 H14         6.8520   -2.2046   -8.3354 H         1 <0>         0.1284
     47 H15         8.6339   -3.7970   -7.7418 H         1 <0>         0.1241
     48 H16         8.1312   -6.2018   -7.5766 H         1 <0>         0.1239
     49 H17         5.8463   -7.0141   -8.0041 H         1 <0>         0.1251
     50 H18         4.0626   -5.4208   -8.5895 H         1 <0>         0.1265
@<TRIPOS>BOND
     1    1    2 1
     2    1   33 1
     3    1   34 1
     4    1   35 1
     5    2    3 2
     6    2    4 2
     7    2    5 1
     8    5   10 ar
     9    5    6 ar
    10    6    7 ar
    11    6   36 1
    12    7    8 ar
    13    7   37 1
    14    8    9 ar
    15    8   11 1
    16    9   10 ar
    17    9   38 1
    18   10   39 1
    19   11   17 2
    20   11   12 1
    21   12   13 2
    22   12   40 1
    23   13   14 1
    24   14   15 am
    25   14   26 1
    26   15   16 2
    27   15   17 1
    28   17   18 1
    29   18   19 1
    30   19   24 ar
    31   19   20 ar
    32   20   21 ar
    33   20   41 1
    34   21   22 ar
    35   21   42 1
    36   22   23 ar
    37   22   25 1
    38   23   24 ar
    39   23   43 1
    40   26   27 1
    41   26   44 1
    42   26   45 1
    43   27   32 ar
    44   27   28 ar
    45   28   29 ar
    46   28   46 1
    47   29   30 ar
    48   29   47 1
    49   30   31 ar
    50   30   48 1
    51   31   32 ar
    52   31   49 1
    53   32   50 1
@<TRIPOS>MOLECULE
CHEMBL290192
   36    38     0     0     0
SMALL
USER_CHARGES

@<TRIPOS>ATOM
      1 C1         -0.2603    1.4716   -0.2862 C.3       1 <0>        -0.0626
      2 C2         -0.1019   -0.0183   -0.1247 C.2       1 <0>         0.2118
      3 N1         -0.0947   -0.8819   -1.0983 N.2       1 <0>        -0.4702
      4 C3          0.0670   -2.1193   -0.5843 C.2       1 <0>         0.0674
      5 C4          0.1618   -1.9783    0.7850 C.2       1 <0>        -0.0181
      6 O1          0.0589   -0.6559    1.0425 O.3       1 <0>        -0.1858
      7 C5          0.3451   -3.0588    1.7733 C.ar      1 <0>         0.0466
      8 C6          1.3235   -4.0353    1.5722 C.ar      1 <0>        -0.1087
      9 C7          1.4895   -5.0419    2.5004 C.ar      1 <0>        -0.0128
     10 C8          0.6896   -5.0860    3.6287 C.ar      1 <0>        -0.6678
     11 C9         -0.2819   -4.1223    3.8342 C.ar      1 <0>        -0.0137
     12 C10        -0.4552   -3.1066    2.9173 C.ar      1 <0>        -0.1169
     13 S1          0.9089   -6.3757    4.8090 S.o2      1 <0>         2.7009
     14 O2         -0.3249   -6.5061    5.5019 O.2       1 <0>        -0.9592
     15 O3          1.5127   -7.4605    4.1178 O.2       1 <0>        -0.9583
     16 N2          2.0194   -5.8428    5.9159 N.pl3     1 <0>        -1.2492
     17 C11         0.1302   -3.3885   -1.3459 C.ar      1 <0>        -0.0330
     18 C12        -0.5447   -4.5173   -0.8817 C.ar      1 <0>        -0.0680
     19 C13        -0.4828   -5.6968   -1.5944 C.ar      1 <0>        -0.1505
     20 C14         0.2488   -5.7614   -2.7694 C.ar      1 <0>         0.1125
     21 C15         0.9210   -4.6426   -3.2347 C.ar      1 <0>        -0.1528
     22 C16         0.8601   -3.4568   -2.5324 C.ar      1 <0>        -0.0561
     23 F1          0.3072   -6.9190   -3.4634 F         1 <0>        -0.1343
     24 H1          0.7207    1.9298   -0.4114 H         1 <0>         0.0985
     25 H2         -0.8728    1.6788   -1.1637 H         1 <0>         0.1064
     26 H3         -0.7435    1.8837    0.5997 H         1 <0>         0.0928
     27 H4          1.9483   -4.0023    0.6918 H         1 <0>         0.1405
     28 H5          2.2454   -5.7978    2.3460 H         1 <0>         0.1526
     29 H6         -0.9029   -4.1630    4.7169 H         1 <0>         0.1516
     30 H7         -1.2108   -2.3525    3.0812 H         1 <0>         0.1404
     31 H8          2.4095   -4.9594    5.8248 H         1 <0>         0.4173
     32 H9          2.2796   -6.4141    6.6554 H         1 <0>         0.4228
     33 H10        -1.1145   -4.4682    0.0344 H         1 <0>         0.1321
     34 H11        -1.0050   -6.5715   -1.2357 H         1 <0>         0.1428
     35 H12         1.4898   -4.6978   -4.1511 H         1 <0>         0.1424
     36 H13         1.3804   -2.5841   -2.8984 H         1 <0>         0.1387
@<TRIPOS>BOND
     1    1    2 1
     2    1   24 1
     3    1   25 1
     4    1   26 1
     5    2    6 1
     6    2    3 2
     7    3    4 1
     8    4    5 2
     9    4   17 1
    10    5    6 1
    11    5    7 1
    12    7   12 ar
    13    7    8 ar
    14    8    9 ar
    15    8   27 1
    16    9   10 ar
    17    9   28 1
    18   10   11 ar
    19   10   13 1
    20   11   12 ar
    21   11   29 1
    22   12   30 1
    23   13   14 2
    24   13   15 2
    25   13   16 1
    26   16   31 1
    27   16   32 1
    28   17   22 ar
    29   17   18 ar
    30   18   19 ar
    31   18   33 1
    32   19   20 ar
    33   19   34 1
    34   20   21 ar
    35   20   23 1
    36   21   22 ar
    37   21   35 1
    38   22   36 1
@<TRIPOS>MOLECULE
CHEMBL200812
   47    49     0     0     0
SMALL
USER_CHARGES

@<TRIPOS>ATOM
      1 C1         -2.6038   -0.2183    3.4053 C.3       1 <0>        -0.1449
      2 C2         -2.2109   -0.3738    1.9348 C.3       1 <0>         0.0781
      3 H1         -2.9426    0.1344    1.3068 H         1 <0>         0.0622
      4 C3         -2.1692   -1.8623    1.5706 C.3       1 <0>         0.1137
      5 N1         -1.6107   -1.9930    0.2155 N.pl3     1 <0>        -0.6378
      6 C4         -0.3453   -1.3029   -0.0807 C.3       1 <0>         0.1214
      7 C5         -0.4758    0.1583    0.3640 C.3       1 <0>         0.0742
      8 H2         -1.2006    0.6685   -0.2704 H         1 <0>         0.0607
      9 O1         -0.9188    0.2001    1.7225 O.3       1 <0>        -0.3686
     10 C6          0.8831    0.8515    0.2470 C.3       1 <0>        -0.1438
     11 C7         -2.2551   -2.7416   -0.7498 C.2       1 <0>         0.4318
     12 C8         -3.1335   -2.2643   -1.7185 C.2       1 <0>        -0.1510
     13 C9         -3.5486   -3.3773   -2.4866 C.2       1 <0>         0.0676
     14 N2         -2.9641   -4.4428   -2.0155 N.2       1 <0>        -0.2236
     15 N3         -2.1474   -4.0828   -0.9380 N.pl3     1 <0>        -0.3228
     16 C10        -1.3586   -4.9542   -0.1824 C.ar      1 <0>         0.4083
     17 C11        -1.7075   -6.2965   -0.0932 C.ar      1 <0>        -0.1710
     18 C12        -0.9174   -7.1490    0.6581 C.ar      1 <0>         0.0442
     19 C13         0.1989   -6.6264    1.2967 C.ar      1 <0>        -0.7252
     20 C14         0.4856   -5.2819    1.1644 C.ar      1 <0>         0.2291
     21 N4         -0.2834   -4.4948    0.4372 N.ar      1 <0>        -0.4917
     22 S1          1.2386   -7.6673    2.2663 S.o2      1 <0>         2.5076
     23 O2          1.8419   -6.7964    3.2132 O.2       1 <0>        -0.9282
     24 O3          0.3940   -8.7277    2.6925 O.2       1 <0>        -0.9291
     25 C15         2.4866   -8.2902    1.1065 C.3       1 <0>        -0.6482
     26 C16        -4.5043   -3.3379   -3.6511 C.3       1 <0>         0.3566
     27 F1         -5.1967   -4.5512   -3.7273 F         1 <0>        -0.1802
     28 F2         -5.4154   -2.2916   -3.4714 F         1 <0>        -0.1803
     29 C17        -3.5407   -0.9038   -1.9023 C.1       1 <0>         0.2843
     30 N5         -3.8637    0.1755   -2.0480 N.1       1 <0>        -0.3963
     31 H3         -2.6315    0.8402    3.6640 H         1 <0>         0.0708
     32 H4         -3.5882   -0.6577    3.5668 H         1 <0>         0.0732
     33 H5         -1.8717   -0.7266    4.0327 H         1 <0>         0.0678
     34 H6         -1.5381   -2.3964    2.2808 H         1 <0>         0.0733
     35 H7         -3.1781   -2.2741    1.5932 H         1 <0>         0.0796
     36 H8          0.4695   -1.7808    0.4633 H         1 <0>         0.0808
     37 H9         -0.1464   -1.3444   -1.1516 H         1 <0>         0.0802
     38 H10         1.2265    0.8058   -0.7865 H         1 <0>         0.0732
     39 H11         0.7870    1.8934    0.5522 H         1 <0>         0.0694
     40 H12         1.6040    0.3490    0.8919 H         1 <0>         0.0682
     41 H13        -2.5836   -6.6693   -0.6031 H         1 <0>         0.1611
     42 H14        -1.1639   -8.1968    0.7458 H         1 <0>         0.1676
     43 H15         1.3528   -4.8706    1.6595 H         1 <0>         0.1875
     44 H16         3.0386   -7.4518    0.6819 H         1 <0>         0.1335
     45 H17         3.1760   -8.9494    1.6341 H         1 <0>         0.1383
     46 H18         1.9949   -8.8439    0.3066 H         1 <0>         0.1332
     47 H19        -3.9463   -3.1794   -4.5739 H         1 <0>         0.1456
@<TRIPOS>BOND
     1    1    2 1
     2    1   31 1
     3    1   32 1
     4    1   33 1
     5    2    3 1
     6    2    9 1
     7    2    4 1
     8    4    5 1
     9    4   34 1
    10    4   35 1
    11    5    6 1
    12    5   11 1
    13    6    7 1
    14    6   36 1
    15    6   37 1
    16    7    8 1
    17    7    9 1
    18    7   10 1
    19   10   38 1
    20   10   39 1
    21   10   40 1
    22   11   15 1
    23   11   12 2
    24   12   13 1
    25   12   29 1
    26   13   14 2
    27   13   26 1
    28   14   15 1
    29   15   16 1
    30   16   21 ar
    31   16   17 ar
    32   17   18 ar
    33   17   41 1
    34   18   19 ar
    35   18   42 1
    36   19   20 ar
    37   19   22 1
    38   20   21 ar
    39   20   43 1
    40   22   23 2
    41   22   24 2
    42   22   25 1
    43   25   44 1
    44   25   45 1
    45   25   46 1
    46   26   27 1
    47   26   28 1
    48   26   47 1
    49   29   30 3
