@<TRIPOS>MOLECULE
3LN1-CEL
 40 42 0 0 0
SMALL
SF_CHARGES


@<TRIPOS>ATOM
1    S        25.9310  -21.4670  -17.1550  S.o2       1 SUBUNIT      1.3274
2    C        27.6790  -21.7060  -17.1310  C.2        1 SUBUNIT     -0.0614
3    C        28.2180  -22.8290  -16.5560  C.2        1 SUBUNIT     -0.0974
4    C        29.5840  -22.9640  -16.5430  C.2        1 SUBUNIT     -0.1063
5    C        30.3410  -21.9670  -17.1090  C.2        1 SUBUNIT      0.0949
6    C        29.7960  -20.8530  -17.6970  C.2        1 SUBUNIT     -0.1063
7    C        28.4340  -20.7140  -17.7070  C.2        1 SUBUNIT     -0.0974
8    N        31.7240  -22.0060  -17.1320  N.pl3      1 SUBUNIT     -0.0856
9    C        32.6220  -22.5740  -16.2600  C.2        1 SUBUNIT      0.0721
10   C        32.4170  -23.2370  -14.9850  C.2        1 SUBUNIT     -0.0141
11   C        31.5700  -22.7350  -14.0160  C.2        1 SUBUNIT     -0.1012
12   C        31.4460  -23.3900  -12.8190  C.2        1 SUBUNIT     -0.0987
13   C        32.1700  -24.5410  -12.5870  C.2        1 SUBUNIT     -0.0278
14   C        32.0560  -25.2900  -11.3060  C.3        1 SUBUNIT     -0.0604
15   C        33.0230  -25.0300  -13.5490  C.2        1 SUBUNIT     -0.0987
16   C        33.1520  -24.3730  -14.7430  C.2        1 SUBUNIT     -0.1012
17   C        33.8430  -22.3370  -16.8370  C.2        1 SUBUNIT     -0.1285
18   C        33.5890  -21.6370  -18.0310  C.2        1 SUBUNIT      0.2005
19   C        34.5540  -21.1350  -19.0020  C.3        1 SUBUNIT      0.7749
20   F        34.5600  -21.7520  -20.2100  F          1 SUBUNIT     -0.2635
21   F        34.3020  -19.8280  -19.2230  F          1 SUBUNIT     -0.2635
22   F        35.8160  -21.2140  -18.5440  F          1 SUBUNIT     -0.2635
23   N        32.2900  -21.4240  -18.2010  N.2        1 SUBUNIT     -0.3637
24   N        25.3780  -22.2260  -18.6050  N.pl3      1 SUBUNIT     -0.7135
25   O        25.7720  -20.0390  -17.2910  O.2        1 SUBUNIT     -0.6178
26   O        25.4360  -22.1060  -15.9490  O.2        1 SUBUNIT     -0.6178
27   H        27.5851  -23.5854  -16.1258  H          1 SUBUNIT      0.1179
28   H        30.0491  -23.8279  -16.1012  H          1 SUBUNIT      0.1180
29   H        30.4259  -20.1026  -18.1419  H          1 SUBUNIT      0.1180
30   H        27.9701  -19.8520  -18.1536  H          1 SUBUNIT      0.1179
31   H        31.0089  -21.8348  -14.1963  H          1 SUBUNIT      0.1102
32   H        30.7841  -23.0044  -12.0634  H          1 SUBUNIT      0.1096
33   H        32.3455  -24.6619  -10.4571  H          1 SUBUNIT      0.0488
34   H        32.7044  -26.1724  -11.3083  H          1 SUBUNIT      0.0488
35   H        31.0280  -25.6282  -11.1393  H          1 SUBUNIT      0.0488
36   H        33.5887  -25.9268  -13.3658  H          1 SUBUNIT      0.1096
37   H        33.8292  -24.7475  -15.4906  H          1 SUBUNIT      0.1102
38   H        34.8000  -22.6331  -16.4443  H          1 SUBUNIT      0.1068
39   H        24.3968  -22.2175  -18.8357  H          1 SUBUNIT      0.3271
40   H        26.0365  -22.6773  -19.2204  H          1 SUBUNIT      0.3271
@<TRIPOS>BOND
     1    1    2 1
     2    1   24 1
     3    1   25 2
     4    1   26 2
     5    2    3 2
     6    2    7 1
     7    3    4 1
     8    4    5 2
     9    5    6 1
    10    5    8 1
    11    6    7 2
    12    8    9 1
    13    8   23 1
    14    9   10 1
    15    9   17 2
    16   10   11 2
    17   10   16 1
    18   11   12 1
    19   12   13 2
    20   13   14 1
    21   13   15 1
    22   15   16 2
    23   17   18 1
    24   18   19 1
    25   18   23 2
    26   19   20 1
    27   19   21 1
    28   19   22 1
    29    3   27 1
    30    4   28 1
    31    6   29 1
    32    7   30 1
    33   11   31 1
    34   12   32 1
    35   14   33 1
    36   14   34 1
    37   14   35 1
    38   15   36 1
    39   16   37 1
    40   17   38 1
    41   24   39 1
    42   24   40 1
