@<TRIPOS>MOLECULE
CHEMBL16847
   90    93     0     0     0
SMALL
USER_CHARGES

@<TRIPOS>ATOM
      1 C1         -0.0187    1.5258    0.0104 C.3       1 <0>        -0.1518
      2 C2          0.0021   -0.0041    0.0020 C.3       1 <0>        -0.1107
      3 C3          0.7182   -0.4975   -1.2568 C.3       1 <0>        -0.0992
      4 C4         -0.0892   -0.0968   -2.4931 C.3       1 <0>        -0.1585
      5 C5          0.8489   -2.0166   -1.2051 C.3       1 <0>         0.1504
      6 H1         -0.1575   -2.4590   -1.1518 H         1 <0>         0.0967
      7 C6          1.5574   -2.5528   -2.4126 C.2       1 <0>         0.5070
      8 O1          2.7675   -2.4309   -2.4751 O.2       1 <0>        -0.4873
      9 N1          0.9609   -3.1376   -3.4696 N.am      1 <0>        -0.6183
     10 C7         -0.3181   -2.6219   -3.9434 C.3       1 <0>         0.1115
     11 C8         -1.1997   -3.7201   -4.5302 C.3       1 <0>        -0.1358
     12 C9         -0.3757   -4.5323   -5.5336 C.3       1 <0>        -0.1170
     13 C10         0.7393   -5.2415   -4.7682 C.3       1 <0>        -0.1246
     14 C11         1.6798   -4.2275   -4.1225 C.3       1 <0>         0.1503
     15 H2          2.3708   -3.8320   -4.8613 H         1 <0>         0.0797
     16 C12         2.4658   -4.9519   -3.0430 C.2       1 <0>         0.5026
     17 O2          1.9015   -5.7028   -2.2735 O.2       1 <0>        -0.4930
     18 N2          3.8124   -4.7415   -2.9713 N.am      1 <0>        -0.7063
     19 C13         4.5019   -5.4090   -1.8333 C.3       1 <0>         0.1356
     20 H3          4.2117   -6.4632   -1.8042 H         1 <0>         0.1088
     21 C14         4.0247   -4.7151   -0.5860 C.2       1 <0>         0.5100
     22 O3          3.0130   -5.1091   -0.0282 O.2       1 <0>        -0.5084
     23 N3          4.7093   -3.6547   -0.0613 N.am      1 <0>        -0.7109
     24 C15         3.8886   -2.8833    0.9292 C.3       1 <0>         0.1305
     25 H4          3.3526   -3.5541    1.5902 H         1 <0>         0.1019
     26 C16         2.9243   -2.0971    0.0702 C.2       1 <0>         0.5202
     27 O4          3.3628   -1.1275   -0.5137 O.2       1 <0>        -0.4990
     28 N4          1.6294   -2.4634   -0.0262 N.am      1 <0>        -0.7214
     29 C17         4.7812   -1.9311    1.7244 C.3       1 <0>        -0.0387
     30 C18         5.7506   -2.7293    2.5575 C.2       1 <0>        -0.1713
     31 C19         5.5915   -3.0908    3.8405 C.2       1 <0>         0.0616
     32 N5          6.6783   -3.8077    4.2614 N.pl3     1 <0>        -0.5938
     33 H5          6.7921   -4.1762    5.1515 H         1 <0>         0.4168
     34 C20         7.5865   -3.9280    3.2335 C.ar      1 <0>         0.0957
     35 C21         7.0423   -3.2632    2.1191 C.ar      1 <0>        -0.0930
     36 C22         7.7498   -3.2260    0.9164 C.ar      1 <0>        -0.0784
     37 C23         8.9677   -3.8395    0.8264 C.ar      1 <0>        -0.1401
     38 C24         9.5069   -4.5001    1.9214 C.ar      1 <0>        -0.0997
     39 C25         8.8298   -4.5412    3.1209 C.ar      1 <0>        -0.1266
     40 C26         6.0157   -5.2990   -1.9956 C.3       1 <0>        -0.1289
     41 C27         6.4537   -6.0796   -3.2364 C.3       1 <0>        -0.1158
     42 C28         7.9710   -5.9694   -3.3991 C.3       1 <0>        -0.1187
     43 C29         8.4090   -6.7501   -4.6399 C.3       1 <0>        -0.1122
     44 C30         9.9263   -6.6398   -4.8025 C.3       1 <0>        -0.1729
     45 C31        10.3577   -7.4087   -6.0247 C.2       1 <0>         0.3511
     46 O5          9.5363   -7.9854   -6.6963 O.2       1 <0>        -0.4515
     47 C32        11.8141   -7.4580   -6.4087 C.3       1 <0>        -0.1774
     48 C33        11.9789   -8.2974   -7.6773 C.3       1 <0>        -0.1465
     49 H6          1.0039    1.9031    0.0027 H         1 <0>         0.0551
     50 H7         -0.5459    1.8868   -0.8726 H         1 <0>         0.0560
     51 H8         -0.5289    1.8773    0.9072 H         1 <0>         0.0537
     52 H9          0.5293   -0.3651    0.8851 H         1 <0>         0.0634
     53 H10        -1.0205   -0.3814    0.0098 H         1 <0>         0.0596
     54 H11         1.7103   -0.0491   -1.3098 H         1 <0>         0.1071
     55 H12        -1.0813   -0.5452   -2.4401 H         1 <0>         0.0596
     56 H13        -0.1826    0.9885   -2.5300 H         1 <0>         0.0685
     57 H14         0.4210   -0.4484   -3.3899 H         1 <0>         0.0569
     58 H15        -0.8489   -2.1451   -3.1151 H         1 <0>         0.0848
     59 H16        -0.1344   -1.8639   -4.7117 H         1 <0>         0.0632
     60 H17        -1.5524   -4.3753   -3.7345 H         1 <0>         0.0723
     61 H18        -2.0537   -3.2743   -5.0403 H         1 <0>         0.0808
     62 H19        -1.0149   -5.2675   -6.0200 H         1 <0>         0.0743
     63 H20         0.0545   -3.8647   -6.2781 H         1 <0>         0.0674
     64 H21         0.2978   -5.8719   -3.9930 H         1 <0>         0.0853
     65 H22         1.3045   -5.8741   -5.4557 H         1 <0>         0.0789
     66 H23         4.2914   -4.1972   -3.6138 H         1 <0>         0.4125
     67 H24         5.6179   -3.4033   -0.2781 H         1 <0>         0.4117
     68 H25         1.2124   -3.0174    0.6680 H         1 <0>         0.4129
     69 H26         5.3342   -1.2917    1.0363 H         1 <0>         0.0890
     70 H27         4.1636   -1.3140    2.3770 H         1 <0>         0.0868
     71 H28         4.7330   -2.8511    4.4502 H         1 <0>         0.1700
     72 H29         7.3361   -2.7144    0.0599 H         1 <0>         0.1150
     73 H30         9.5147   -3.8104   -0.1044 H         1 <0>         0.1223
     74 H31        10.4701   -4.9808    1.8346 H         1 <0>         0.1246
     75 H32         9.2572   -5.0588    3.9669 H         1 <0>         0.1190
     76 H33         6.2938   -4.2511   -2.1087 H         1 <0>         0.0742
     77 H34         6.5065   -5.7121   -1.1144 H         1 <0>         0.0856
     78 H35         6.1756   -7.1275   -3.1233 H         1 <0>         0.0672
     79 H36         5.9628   -5.6665   -4.1176 H         1 <0>         0.0654
     80 H37         8.2491   -4.9216   -3.5121 H         1 <0>         0.0646
     81 H38         8.4618   -6.3825   -2.5179 H         1 <0>         0.0655
     82 H39         8.1309   -7.7979   -4.5268 H         1 <0>         0.0673
     83 H40         7.9181   -6.3369   -5.5211 H         1 <0>         0.0670
     84 H41        10.2044   -5.5920   -4.9156 H         1 <0>         0.0978
     85 H42        10.4172   -7.0530   -3.9213 H         1 <0>         0.0978
     86 H43        12.1757   -6.4464   -6.5929 H         1 <0>         0.0972
     87 H44        12.3885   -7.9074   -5.5986 H         1 <0>         0.0972
     88 H45        13.0323   -8.3330   -7.9551 H         1 <0>         0.0610
     89 H46        11.6173   -9.3090   -7.4932 H         1 <0>         0.0593
     90 H47        11.4046   -7.8480   -8.4874 H         1 <0>         0.0593
@<TRIPOS>BOND
     1    1    2 1
     2    1   49 1
     3    1   50 1
     4    1   51 1
     5    2    3 1
     6    2   52 1
     7    2   53 1
     8    3    4 1
     9    3    5 1
    10    3   54 1
    11    4   55 1
    12    4   56 1
    13    4   57 1
    14    5    6 1
    15    5   28 1
    16    5    7 1
    17    7    8 2
    18    7    9 am
    19    9   14 1
    20    9   10 1
    21   10   11 1
    22   10   58 1
    23   10   59 1
    24   11   12 1
    25   11   60 1
    26   11   61 1
    27   12   13 1
    28   12   62 1
    29   12   63 1
    30   13   14 1
    31   13   64 1
    32   13   65 1
    33   14   15 1
    34   14   16 1
    35   16   17 2
    36   16   18 am
    37   18   19 1
    38   18   66 1
    39   19   20 1
    40   19   21 1
    41   19   40 1
    42   21   22 2
    43   21   23 am
    44   23   24 1
    45   23   67 1
    46   24   25 1
    47   24   26 1
    48   24   29 1
    49   26   27 2
    50   26   28 am
    51   28   68 1
    52   29   30 1
    53   29   69 1
    54   29   70 1
    55   30   35 1
    56   30   31 2
    57   31   32 1
    58   31   71 1
    59   32   33 1
    60   32   34 1
    61   34   39 ar
    62   34   35 ar
    63   35   36 ar
    64   36   37 ar
    65   36   72 1
    66   37   38 ar
    67   37   73 1
    68   38   39 ar
    69   38   74 1
    70   39   75 1
    71   40   41 1
    72   40   76 1
    73   40   77 1
    74   41   42 1
    75   41   78 1
    76   41   79 1
    77   42   43 1
    78   42   80 1
    79   42   81 1
    80   43   44 1
    81   43   82 1
    82   43   83 1
    83   44   45 1
    84   44   84 1
    85   44   85 1
    86   45   46 2
    87   45   47 1
    88   47   48 1
    89   47   86 1
    90   47   87 1
    91   48   88 1
    92   48   89 1
    93   48   90 1
@<TRIPOS>MOLECULE
CHEMBL16847__1
   90    93     0     0     0
SMALL
USER_CHARGES

@<TRIPOS>ATOM
      1 C1          0.2884    1.6372   -2.4819 C.3       1 <0>        -0.1500
      2 C2          0.1171    0.1173   -2.5223 C.3       1 <0>        -0.1291
      3 C3          0.7182   -0.4975   -1.2568 C.3       1 <0>        -0.0989
      4 C4         -0.0784   -0.0327   -0.0360 C.3       1 <0>        -0.1396
      5 C5          0.6595   -2.0189   -1.3532 C.3       1 <0>         0.1502
      6 H1         -0.3890   -2.3273   -1.4831 H         1 <0>         0.0967
      7 C6          1.4685   -2.5322   -2.5064 C.2       1 <0>         0.5066
      8 O1          2.6805   -2.5663   -2.3932 O.2       1 <0>        -0.4869
      9 N1          0.9679   -2.9346   -3.6907 N.am      1 <0>        -0.6186
     10 C7         -0.1581   -2.2134   -4.2721 C.3       1 <0>         0.1122
     11 C8         -1.0681   -3.1275   -5.0870 C.3       1 <0>        -0.1357
     12 C9         -0.2082   -3.9470   -6.0536 C.3       1 <0>        -0.1170
     13 C10         0.6913   -4.8640   -5.2278 C.3       1 <0>        -0.1246
     14 C11         1.6406   -4.0462   -4.3561 C.3       1 <0>         0.1503
     15 H2          2.4740   -3.6800   -4.9488 H         1 <0>         0.0797
     16 C12         2.1693   -4.9632   -3.2665 C.2       1 <0>         0.5026
     17 O2          1.4139   -5.6996   -2.6652 O.2       1 <0>        -0.4930
     18 N2          3.5063   -4.9400   -2.9933 N.am      1 <0>        -0.7064
     19 C13         3.9384   -5.7934   -1.8526 C.3       1 <0>         0.1357
     20 H3          3.5246   -6.7982   -1.9771 H         1 <0>         0.1089
     21 C14         3.3695   -5.1586   -0.6124 C.2       1 <0>         0.5100
     22 O3          2.2478   -5.4644   -0.2406 O.2       1 <0>        -0.5084
     23 N3          4.0905   -4.2501    0.1110 N.am      1 <0>        -0.7109
     24 C15         3.2309   -3.4701    1.0609 C.3       1 <0>         0.1305
     25 H4          2.5286   -4.1214    1.5677 H         1 <0>         0.1019
     26 C16         2.5022   -2.4886    0.1713 C.2       1 <0>         0.5200
     27 O4          3.1327   -1.5365   -0.2402 O.2       1 <0>        -0.4990
     28 N4          1.2011   -2.6701   -0.1362 N.am      1 <0>        -0.7211
     29 C17         4.1039   -2.7205    2.0667 C.3       1 <0>        -0.0387
     30 C18         4.8400   -3.7122    2.9302 C.2       1 <0>        -0.1713
     31 C19         4.4537   -4.1645    4.1335 C.2       1 <0>         0.0616
     32 N5          5.3749   -5.0541    4.6155 N.pl3     1 <0>        -0.5939
     33 H5          5.3131   -5.5137    5.4675 H         1 <0>         0.4168
     34 C20         6.4029   -5.1996    3.7110 C.ar      1 <0>         0.0957
     35 C21         6.1098   -4.3703    2.6128 C.ar      1 <0>        -0.0931
     36 C22         6.9848   -4.3178    1.5264 C.ar      1 <0>        -0.0784
     37 C23         8.1216   -5.0763    1.5338 C.ar      1 <0>        -0.1401
     38 C24         8.4132   -5.8991    2.6128 C.ar      1 <0>        -0.0997
     39 C25         7.5680   -5.9590    3.6995 C.ar      1 <0>        -0.1266
     40 C26         5.4620   -5.8703   -1.7985 C.3       1 <0>        -0.1290
     41 C27         5.9812   -6.5861   -3.0471 C.3       1 <0>        -0.1158
     42 C28         7.5083   -6.6631   -2.9928 C.3       1 <0>        -0.1187
     43 C29         8.0275   -7.3790   -4.2414 C.3       1 <0>        -0.1122
     44 C30         9.5546   -7.4560   -4.1872 C.3       1 <0>        -0.1730
     45 C31        10.0660   -8.1611   -5.4170 C.2       1 <0>         0.3511
     46 O5          9.2892   -8.5607   -6.2508 O.2       1 <0>        -0.4515
     47 C32        11.5467   -8.3675   -5.6062 C.3       1 <0>        -0.1774
     48 C33        11.7947   -9.1025   -6.9250 C.3       1 <0>        -0.1465
     49 H6         -0.2221    2.0372   -1.6058 H         1 <0>         0.0581
     50 H7          1.3491    1.8820   -2.4275 H         1 <0>         0.0553
     51 H8         -0.1399    2.0752   -3.3834 H         1 <0>         0.0553
     52 H9         -0.9437   -0.1274   -2.5766 H         1 <0>         0.0656
     53 H10         0.6276   -0.2826   -3.3984 H         1 <0>         0.0649
     54 H11         1.7559   -0.1796   -1.1560 H         1 <0>         0.1062
     55 H12        -1.1337   -0.2640   -0.1812 H         1 <0>         0.0530
     56 H13         0.2870   -0.5462    0.8533 H         1 <0>         0.0564
     57 H14         0.0438    1.0431    0.0896 H         1 <0>         0.0614
     58 H15        -0.7441   -1.7478   -3.4753 H         1 <0>         0.0840
     59 H16         0.2240   -1.4197   -4.9223 H         1 <0>         0.0636
     60 H17        -1.6082   -3.7998   -4.4214 H         1 <0>         0.0725
     61 H18        -1.7797   -2.5283   -5.6552 H         1 <0>         0.0809
     62 H19        -0.8517   -4.5441   -6.6979 H         1 <0>         0.0744
     63 H20         0.4020   -3.2774   -6.6572 H         1 <0>         0.0675
     64 H21         0.0700   -5.4983   -4.5915 H         1 <0>         0.0854
     65 H22         1.2722   -5.5008   -5.8983 H         1 <0>         0.0790
     66 H23         4.1350   -4.4078   -3.5032 H         1 <0>         0.4126
     67 H24         5.0443   -4.1025    0.0459 H         1 <0>         0.4117
     68 H25         0.6246   -3.2249    0.4319 H         1 <0>         0.4130
     69 H26         4.8232   -2.1001    1.5320 H         1 <0>         0.0891
     70 H27         3.4749   -2.0890    2.6941 H         1 <0>         0.0869
     71 H28         3.5497   -3.8697    4.6457 H         1 <0>         0.1701
     72 H29         6.7640   -3.6804    0.6830 H         1 <0>         0.1151
     73 H30         8.7982   -5.0354    0.6930 H         1 <0>         0.1223
     74 H31         9.3151   -6.4931    2.6036 H         1 <0>         0.1247
     75 H32         7.8031   -6.6033    4.5338 H         1 <0>         0.1190
     76 H33         5.8755   -4.8625   -1.7591 H         1 <0>         0.0742
     77 H34         5.7665   -6.4230   -0.9098 H         1 <0>         0.0856
     78 H35         5.5677   -7.5938   -3.0865 H         1 <0>         0.0672
     79 H36         5.6766   -6.0334   -3.9358 H         1 <0>         0.0654
     80 H37         7.9218   -5.6554   -2.9534 H         1 <0>         0.0646
     81 H38         7.8128   -7.2158   -2.1041 H         1 <0>         0.0655
     82 H39         7.6140   -8.3867   -4.2808 H         1 <0>         0.0673
     83 H40         7.7229   -6.8262   -5.1302 H         1 <0>         0.0670
     84 H41         9.9681   -6.4483   -4.1477 H         1 <0>         0.0977
     85 H42         9.8591   -8.0087   -3.2984 H         1 <0>         0.0978
     86 H43        12.0483   -7.4000   -5.6296 H         1 <0>         0.0972
     87 H44        11.9394   -8.9605   -4.7803 H         1 <0>         0.0972
     88 H45        12.8658   -9.2518   -7.0619 H         1 <0>         0.0610
     89 H46        11.2931  -10.0699   -6.9016 H         1 <0>         0.0593
     90 H47        11.4021   -8.5095   -7.7509 H         1 <0>         0.0593
@<TRIPOS>BOND
     1    1    2 1
     2    1   49 1
     3    1   50 1
     4    1   51 1
     5    2    3 1
     6    2   52 1
     7    2   53 1
     8    3    4 1
     9    3    5 1
    10    3   54 1
    11    4   55 1
    12    4   56 1
    13    4   57 1
    14    5    6 1
    15    5   28 1
    16    5    7 1
    17    7    8 2
    18    7    9 am
    19    9   14 1
    20    9   10 1
    21   10   11 1
    22   10   58 1
    23   10   59 1
    24   11   12 1
    25   11   60 1
    26   11   61 1
    27   12   13 1
    28   12   62 1
    29   12   63 1
    30   13   14 1
    31   13   64 1
    32   13   65 1
    33   14   15 1
    34   14   16 1
    35   16   17 2
    36   16   18 am
    37   18   19 1
    38   18   66 1
    39   19   20 1
    40   19   21 1
    41   19   40 1
    42   21   22 2
    43   21   23 am
    44   23   24 1
    45   23   67 1
    46   24   25 1
    47   24   26 1
    48   24   29 1
    49   26   27 2
    50   26   28 am
    51   28   68 1
    52   29   30 1
    53   29   69 1
    54   29   70 1
    55   30   35 1
    56   30   31 2
    57   31   32 1
    58   31   71 1
    59   32   33 1
    60   32   34 1
    61   34   39 ar
    62   34   35 ar
    63   35   36 ar
    64   36   37 ar
    65   36   72 1
    66   37   38 ar
    67   37   73 1
    68   38   39 ar
    69   38   74 1
    70   39   75 1
    71   40   41 1
    72   40   76 1
    73   40   77 1
    74   41   42 1
    75   41   78 1
    76   41   79 1
    77   42   43 1
    78   42   80 1
    79   42   81 1
    80   43   44 1
    81   43   82 1
    82   43   83 1
    83   44   45 1
    84   44   84 1
    85   44   85 1
    86   45   46 2
    87   45   47 1
    88   47   48 1
    89   47   86 1
    90   47   87 1
    91   48   88 1
    92   48   89 1
    93   48   90 1
@<TRIPOS>MOLECULE
CHEMBL279636
   63    65     0     0     0
SMALL
USER_CHARGES

@<TRIPOS>ATOM
      1 C1         -0.5062    2.0063   -0.3902 C.3       1 <0>        -0.1448
      2 C2         -0.3131    0.5013   -0.1931 C.3       1 <0>         0.1171
      3 H1          0.2732    0.0938   -1.0167 H         1 <0>         0.1215
      4 C3         -1.6572   -0.1829   -0.1351 C.2       1 <0>         0.5119
      5 O1         -2.6432    0.3317   -0.6186 O.2       1 <0>        -0.5252
      6 N1         -1.7271   -1.4102    0.4839 N.am      1 <0>        -0.7017
      7 C4         -3.1075   -1.9596    0.5368 C.3       1 <0>         0.1186
      8 H2         -3.7636   -1.2429    1.0305 H         1 <0>         0.1039
      9 C5         -3.1158   -3.2393    1.2938 C.2       1 <0>         0.5816
     10 O2         -3.5815   -4.2066    0.7296 O.2       1 <0>        -0.4464
     11 N2         -2.6603   -3.4263    2.5327 N.am      1 <0>        -0.6998
     12 C6         -3.5263   -3.3752    3.7274 C.3       1 <0>         0.1245
     13 C7         -2.7921   -4.1199    4.8451 C.3       1 <0>        -0.1262
     14 C8         -1.3159   -4.0747    4.4439 C.3       1 <0>        -0.1154
     15 C9         -1.2909   -3.7013    2.9650 C.3       1 <0>         0.1499
     16 H3         -0.8850   -4.5365    2.3832 H         1 <0>         0.0942
     17 C10        -0.4282   -2.4851    2.7503 C.2       1 <0>         0.4724
     18 O3         -0.9291   -1.4064    2.5128 O.2       1 <0>        -0.4833
     19 N3          0.9358   -2.6208    2.8291 N.am      1 <0>        -0.7246
     20 C11         1.6635   -1.3730    2.4603 C.3       1 <0>         0.1249
     21 H4          1.5030   -0.6102    3.2222 H         1 <0>         0.0980
     22 C12         1.1021   -0.9074    1.1398 C.2       1 <0>         0.5068
     23 O4          1.2895   -1.5549    0.1316 O.2       1 <0>        -0.5273
     24 N4          0.3828    0.2485    1.0918 N.am      1 <0>        -0.7073
     25 C13         3.1591   -1.6633    2.3202 C.3       1 <0>        -0.1551
     26 C14        -3.6091   -2.2107   -0.8867 C.3       1 <0>        -0.1231
     27 C15        -5.0842   -2.6147   -0.8438 C.3       1 <0>        -0.1216
     28 C16        -5.6214   -2.7361   -2.2712 C.3       1 <0>        -0.1137
     29 C17        -7.0965   -3.1402   -2.2283 C.3       1 <0>        -0.1128
     30 C18        -7.6337   -3.2616   -3.6558 C.3       1 <0>        -0.1605
     31 C19        -9.0866   -3.6596   -3.6135 C.2       1 <0>         0.3657
     32 O5         -9.6357   -3.8286   -2.5513 O.2       1 <0>        -0.4281
     33 C20        -9.8542   -3.8466   -4.8968 C.3       1 <0>        -0.0669
     34 H5         -9.5835   -4.7223   -5.4865 H         1 <0>         0.1527
     35 C21       -10.3028   -2.5917   -5.6485 C.3       1 <0>        -0.0122
     36 O6        -11.2179   -3.4203   -4.9251 O.3       1 <0>        -0.3346
     37 H6          0.4667    2.4969   -0.4176 H         1 <0>         0.0705
     38 H7         -1.0301    2.1855   -1.3291 H         1 <0>         0.0846
     39 H8         -1.0928    2.4085    0.4358 H         1 <0>         0.0660
     40 H9         -0.9546   -1.8695    0.8488 H         1 <0>         0.4101
     41 H10        -3.6951   -2.3388    4.0199 H         1 <0>         0.0617
     42 H11        -4.4778   -3.8639    3.5178 H         1 <0>         0.0723
     43 H12        -2.9411   -3.6140    5.7990 H         1 <0>         0.0872
     44 H13        -3.1374   -5.1521    4.9031 H         1 <0>         0.0807
     45 H14        -0.7905   -3.3209    5.0303 H         1 <0>         0.0821
     46 H15        -0.8565   -5.0519    4.5922 H         1 <0>         0.0923
     47 H16         1.3789   -3.4413    3.0960 H         1 <0>         0.4212
     48 H17         0.3292    0.8604    1.8425 H         1 <0>         0.4156
     49 H18         3.3127   -2.4117    1.5427 H         1 <0>         0.0774
     50 H19         3.6835   -0.7466    2.0506 H         1 <0>         0.0793
     51 H20         3.5467   -2.0385    3.2673 H         1 <0>         0.0767
     52 H21        -3.4986   -1.3008   -1.4766 H         1 <0>         0.0955
     53 H22        -3.0261   -3.0116   -1.3414 H         1 <0>         0.0648
     54 H23        -5.1836   -3.5737   -0.3354 H         1 <0>         0.0784
     55 H24        -5.6529   -1.8570   -0.3048 H         1 <0>         0.0583
     56 H25        -5.5220   -1.7771   -2.7796 H         1 <0>         0.0637
     57 H26        -5.0527   -3.4938   -2.8103 H         1 <0>         0.0632
     58 H27        -7.1959   -4.0992   -1.7199 H         1 <0>         0.0691
     59 H28        -7.6652   -2.3825   -1.6893 H         1 <0>         0.0681
     60 H29        -7.5343   -2.3026   -4.1642 H         1 <0>         0.1039
     61 H30        -7.0650   -4.0193   -4.1948 H         1 <0>         0.1048
     62 H31       -10.0454   -1.6234   -5.2194 H         1 <0>         0.1155
     63 H32       -10.3308   -2.6347   -6.7373 H         1 <0>         0.1238
@<TRIPOS>BOND
     1    1    2 1
     2    1   37 1
     3    1   38 1
     4    1   39 1
     5    2    3 1
     6    2   24 1
     7    2    4 1
     8    4    5 2
     9    4    6 am
    10    6    7 1
    11    6   40 1
    12    7    8 1
    13    7    9 1
    14    7   26 1
    15    9   10 2
    16    9   11 am
    17   11   15 1
    18   11   12 1
    19   12   13 1
    20   12   41 1
    21   12   42 1
    22   13   14 1
    23   13   43 1
    24   13   44 1
    25   14   15 1
    26   14   45 1
    27   14   46 1
    28   15   16 1
    29   15   17 1
    30   17   18 2
    31   17   19 am
    32   19   20 1
    33   19   47 1
    34   20   21 1
    35   20   22 1
    36   20   25 1
    37   22   23 2
    38   22   24 am
    39   24   48 1
    40   25   49 1
    41   25   50 1
    42   25   51 1
    43   26   27 1
    44   26   52 1
    45   26   53 1
    46   27   28 1
    47   27   54 1
    48   27   55 1
    49   28   29 1
    50   28   56 1
    51   28   57 1
    52   29   30 1
    53   29   58 1
    54   29   59 1
    55   30   31 1
    56   30   60 1
    57   30   61 1
    58   31   32 2
    59   31   33 1
    60   33   34 1
    61   33   36 1
    62   33   35 1
    63   35   36 1
    64   35   62 1
    65   35   63 1
@<TRIPOS>MOLECULE
CHEMBL406800
   19    20     0     0     0
SMALL
USER_CHARGES

@<TRIPOS>ATOM
      1 C1         -0.0169    1.3962    0.0097 C.ar      1 <0>        -0.1552
      2 C2          1.1796    2.0807    0.0020 C.ar      1 <0>         0.1130
      3 N1          2.3303    1.4343   -0.0129 N.ar      1 <0>        -0.4802
      4 C3          2.3933    0.1158   -0.0206 C.ar      1 <0>         0.1146
      5 C4          1.2457   -0.6478   -0.0138 C.ar      1 <0>        -0.1664
      6 C5          0.0021   -0.0041    0.0020 C.ar      1 <0>         0.0212
      7 C6         -1.2552   -0.7808    0.0103 C.2       1 <0>         0.0527
      8 C7         -2.5020   -0.2762    0.0196 C.2       1 <0>         0.0321
      9 N2         -3.3858   -1.3354    0.0250 N.pl3     1 <0>        -0.5570
     10 H1         -4.3533   -1.2669    0.0316 H         1 <0>         0.4528
     11 C8         -2.6771   -2.4805    0.0191 C.2       1 <0>         0.4757
     12 S1         -3.3313   -4.0625    0.0220 S.2       1 <0>        -0.6068
     13 N3         -1.3659   -2.1703    0.0040 N.pl3     1 <0>        -0.5579
     14 H2         -0.6297   -2.8018   -0.0067 H         1 <0>         0.4485
     15 H3         -0.9547    1.9317    0.0260 H         1 <0>         0.1433
     16 H4          1.1754    3.1607    0.0078 H         1 <0>         0.1654
     17 H5          3.3571   -0.3713   -0.0328 H         1 <0>         0.1640
     18 H6          1.3047   -1.7262   -0.0209 H         1 <0>         0.1346
     19 H7         -2.7643    0.7715    0.0222 H         1 <0>         0.2058
@<TRIPOS>BOND
     1    1    6 ar
     2    1    2 ar
     3    1   15 1
     4    2    3 ar
     5    2   16 1
     6    3    4 ar
     7    4    5 ar
     8    4   17 1
     9    5    6 ar
    10    5   18 1
    11    6    7 1
    12    7   13 1
    13    7    8 2
    14    8    9 1
    15    8   19 1
    16    9   10 1
    17    9   11 1
    18   11   12 2
    19   11   13 1
    20   13   14 1
@<TRIPOS>MOLECULE
CHEMBL485514
   48    50     0     0     0
SMALL
USER_CHARGES

@<TRIPOS>ATOM
      1 C1         -0.1260    0.9941    0.5153 C.ar      1 <0>        -0.1030
      2 C2          1.0069    1.6575    0.9513 C.ar      1 <0>        -0.1192
      3 C3          2.2597    1.1144    0.7351 C.ar      1 <0>        -0.0783
      4 C4          2.3825   -0.1052    0.0760 C.ar      1 <0>        -0.0838
      5 C5          1.2326   -0.7798   -0.3673 C.ar      1 <0>        -0.0377
      6 C6         -0.0199   -0.2185   -0.1411 C.ar      1 <0>        -0.0979
      7 C7          1.6479   -2.0392   -1.0299 C.ar      1 <0>        -0.0499
      8 C8          0.9159   -3.0561   -1.6341 C.ar      1 <0>        -0.1045
      9 C9          1.5680   -4.1429   -2.1875 C.ar      1 <0>        -0.1033
     10 C10         2.9481   -4.2289   -2.1458 C.ar      1 <0>        -0.1275
     11 C11         3.6915   -3.2275   -1.5493 C.ar      1 <0>        -0.0546
     12 C12         3.0495   -2.1277   -0.9881 C.ar      1 <0>        -0.0813
     13 C13         3.5590   -0.9228   -0.2958 C.2       1 <0>         0.0571
     14 C14         4.8609   -0.6239   -0.0479 C.2       1 <0>        -0.1854
     15 C15         5.8543   -1.6978    0.0470 C.2       1 <0>         0.5427
     16 O1          5.4956   -2.8604    0.0436 O.2       1 <0>        -0.5260
     17 N1          7.1650   -1.3972    0.1379 N.am      1 <0>        -0.7261
     18 C16         8.1577   -2.4704    0.2327 C.3       1 <0>         0.1185
     19 C17         9.5588   -1.8625    0.3243 C.3       1 <0>        -0.1328
     20 C18        10.5956   -2.9833    0.4233 C.3       1 <0>        -0.1164
     21 C19        11.9966   -2.3753    0.5148 C.3       1 <0>        -0.1055
     22 C20        13.0334   -3.4961    0.6138 C.3       1 <0>        -0.1272
     23 C21        14.4134   -2.8973    0.7040 C.2       1 <0>         0.5212
     24 O2         14.5538   -1.6928    0.6904 O.2       1 <0>        -0.5194
     25 N2         15.4915   -3.7004    0.7997 N.am      1 <0>        -0.5999
     26 O3         16.7882   -3.1378    0.8844 O.3       1 <0>        -0.3205
     27 H1         -1.1007    1.4242    0.6928 H         1 <0>         0.1309
     28 H2          0.9123    2.6041    1.4625 H         1 <0>         0.1317
     29 H3          3.1416    1.6358    1.0768 H         1 <0>         0.1287
     30 H4         -0.9095   -0.7297   -0.4781 H         1 <0>         0.1279
     31 H5         -0.1618   -2.9971   -1.6708 H         1 <0>         0.1249
     32 H6          0.9957   -4.9303   -2.6553 H         1 <0>         0.1278
     33 H7          3.4469   -5.0823   -2.5808 H         1 <0>         0.1278
     34 H8          4.7688   -3.2988   -1.5186 H         1 <0>         0.1516
     35 H9          5.1639    0.4049    0.0793 H         1 <0>         0.1418
     36 H10         7.4510   -0.4704    0.1407 H         1 <0>         0.4024
     37 H11         7.9623   -3.0686    1.1228 H         1 <0>         0.0694
     38 H12         8.0936   -3.1039   -0.6520 H         1 <0>         0.0692
     39 H13         9.7542   -1.2644   -0.5658 H         1 <0>         0.0721
     40 H14         9.6229   -1.2291    1.2090 H         1 <0>         0.0720
     41 H15        10.4002   -3.5814    1.3133 H         1 <0>         0.0688
     42 H16        10.5315   -3.6167   -0.4615 H         1 <0>         0.0688
     43 H17        12.1920   -1.7772   -0.3752 H         1 <0>         0.0741
     44 H18        12.0607   -1.7419    1.3995 H         1 <0>         0.0741
     45 H19        12.8380   -4.0943    1.5038 H         1 <0>         0.1002
     46 H20        12.9693   -4.1296   -0.2709 H         1 <0>         0.1002
     47 H21        15.3792   -4.6638    0.8105 H         1 <0>         0.4084
     48 H22        17.4973   -3.7920    0.9499 H         1 <0>         0.3880
@<TRIPOS>BOND
     1    1    6 ar
     2    1    2 ar
     3    1   27 1
     4    2    3 ar
     5    2   28 1
     6    3    4 ar
     7    3   29 1
     8    4   13 1
     9    4    5 ar
    10    5    6 ar
    11    5    7 1
    12    6   30 1
    13    7   12 ar
    14    7    8 ar
    15    8    9 ar
    16    8   31 1
    17    9   10 ar
    18    9   32 1
    19   10   11 ar
    20   10   33 1
    21   11   12 ar
    22   11   34 1
    23   12   13 1
    24   13   14 2
    25   14   15 1
    26   14   35 1
    27   15   16 2
    28   15   17 am
    29   17   18 1
    30   17   36 1
    31   18   19 1
    32   18   37 1
    33   18   38 1
    34   19   20 1
    35   19   39 1
    36   19   40 1
    37   20   21 1
    38   20   41 1
    39   20   42 1
    40   21   22 1
    41   21   43 1
    42   21   44 1
    43   22   23 1
    44   22   45 1
    45   22   46 1
    46   23   24 2
    47   23   25 am
    48   25   26 1
    49   25   47 1
    50   26   48 1
@<TRIPOS>MOLECULE
CHEMBL1095437
   64    67     0     0     0
SMALL
USER_CHARGES

@<TRIPOS>ATOM
      1 C1          0.2147    1.4836   -0.0224 C.3       1 <0>        -0.1006
      2 C2          0.1040   -0.0192   -0.0101 C.2       1 <0>         0.0666
      3 C3         -0.0860   -0.8181   -1.0798 C.2       1 <0>         0.0431
      4 N1         -0.1283   -2.0867   -0.6568 N.pl3     1 <0>        -0.4660
      5 C4          0.0292   -2.1141    0.6478 C.cat     1 <0>         0.3639
      6 N2          0.1833   -0.8323    1.0883 N.pl3     1 <0>        -0.3981
      7 C5          0.3917   -0.4064    2.4744 C.3       1 <0>         0.0832
      8 C6          1.8896   -0.2368    2.7361 C.3       1 <0>         0.0391
      9 N3          2.1073    0.0663    4.1569 N.3       1 <0>        -0.5305
     10 C7          1.5470    1.3796    4.5072 C.3       1 <0>         0.0081
     11 C8          1.7423    1.6286    6.0052 C.3       1 <0>         0.0619
     12 O1          3.1336    1.5316    6.3220 O.3       1 <0>        -0.3787
     13 C9          3.7117    0.2652    5.9944 C.3       1 <0>         0.0622
     14 C10         3.5363    0.0023    4.4963 C.3       1 <0>         0.0193
     15 C11         0.0421   -3.3279    1.4933 C.ar      1 <0>        -0.0871
     16 C12        -0.5642   -3.3106    2.7516 C.ar      1 <0>        -0.0700
     17 C13        -0.5535   -4.4419    3.5436 C.ar      1 <0>        -0.1008
     18 C14         0.0554   -5.5981    3.0991 C.ar      1 <0>        -0.0596
     19 C15         0.6666   -5.6303    1.8412 C.ar      1 <0>        -0.0523
     20 C16         0.6536   -4.4911    1.0340 C.ar      1 <0>        -0.0566
     21 C17         1.3169   -6.8635    1.3675 C.2       1 <0>        -0.0348
     22 C18         1.3238   -7.9637    2.1463 C.2       1 <0>        -0.1734
     23 C19         1.9705   -9.1901    1.6753 C.2       1 <0>         0.5550
     24 O2          2.5017   -9.2161    0.5807 O.2       1 <0>        -0.5182
     25 N4          1.9774  -10.2901    2.4539 N.am      1 <0>        -0.5889
     26 O3          2.6027  -11.4761    1.9984 O.3       1 <0>        -0.3110
     27 C20        -0.2272   -0.3599   -2.5085 C.3       1 <0>        -0.0156
     28 C21         1.1401   -0.1930   -3.1199 C.ar      1 <0>        -0.1065
     29 C22         1.7929    1.0224   -3.0320 C.ar      1 <0>        -0.1091
     30 C23         3.0470    1.1755   -3.5928 C.ar      1 <0>        -0.1132
     31 C24         3.6486    0.1131   -4.2413 C.ar      1 <0>        -0.1062
     32 C25         2.9962   -1.1025   -4.3284 C.ar      1 <0>        -0.1125
     33 C26         1.7438   -1.2568   -3.7638 C.ar      1 <0>        -0.1139
     34 H1          1.2580    1.7701   -0.1549 H         1 <0>         0.1020
     35 H2         -0.3793    1.8850   -0.8434 H         1 <0>         0.1085
     36 H3         -0.1545    1.8829    0.9223 H         1 <0>         0.0904
     37 H4         -0.1163    0.5431    2.6431 H         1 <0>         0.1229
     38 H5         -0.0122   -1.1598    3.1507 H         1 <0>         0.1321
     39 H6          2.4103   -1.1588    2.4774 H         1 <0>         0.0899
     40 H7          2.2746    0.5810    2.1269 H         1 <0>         0.0545
     41 H8          2.0584    2.1568    3.9393 H         1 <0>         0.0525
     42 H9          0.4829    1.3960    4.2713 H         1 <0>         0.0858
     43 H10         1.3798    2.6247    6.2588 H         1 <0>         0.1046
     44 H11         1.1867    0.8827    6.5736 H         1 <0>         0.0638
     45 H12         4.7735    0.2753    6.2402 H         1 <0>         0.1057
     46 H13         3.2134   -0.5203    6.5625 H         1 <0>         0.0643
     47 H14         3.9244   -0.9866    4.2524 H         1 <0>         0.0911
     48 H15         4.0795    0.7575    3.9283 H         1 <0>         0.0512
     49 H16        -1.0426   -2.4096    3.1063 H         1 <0>         0.1384
     50 H17        -1.0234   -4.4217    4.5158 H         1 <0>         0.1500
     51 H18         0.0601   -6.4792    3.7235 H         1 <0>         0.1467
     52 H19         1.1199   -4.5108    0.0601 H         1 <0>         0.1397
     53 H20         1.7883   -6.8865    0.3961 H         1 <0>         0.1463
     54 H21         0.8523   -7.9406    3.1177 H         1 <0>         0.1389
     55 H22         1.5540  -10.2694    3.3264 H         1 <0>         0.4111
     56 H23         2.5564  -12.2109    2.6253 H         1 <0>         0.3939
     57 H24        -0.7900   -1.1023   -3.0743 H         1 <0>         0.1051
     58 H25        -0.7553    0.5933   -2.5339 H         1 <0>         0.1197
     59 H26         1.3229    1.8524   -2.5254 H         1 <0>         0.1253
     60 H27         3.5567    2.1252   -3.5247 H         1 <0>         0.1292
     61 H28         4.6281    0.2330   -4.6801 H         1 <0>         0.1290
     62 H29         3.4660   -1.9323   -4.8353 H         1 <0>         0.1287
     63 H30         1.2357   -2.2076   -3.8287 H         1 <0>         0.1204
     64 H31        -0.2555   -2.8636   -1.2235 H         1 <0>         0.4596
@<TRIPOS>BOND
     1    1    2 1
     2    1   34 1
     3    1   35 1
     4    1   36 1
     5    2    6 1
     6    2    3 2
     7    3    4 1
     8    3   27 1
     9    4    5 2
    10    4   64 1
    11    5    6 1
    12    5   15 1
    13    6    7 1
    14    7    8 1
    15    7   37 1
    16    7   38 1
    17    8    9 1
    18    8   39 1
    19    8   40 1
    20    9   14 1
    21    9   10 1
    22   10   11 1
    23   10   41 1
    24   10   42 1
    25   11   12 1
    26   11   43 1
    27   11   44 1
    28   12   13 1
    29   13   14 1
    30   13   45 1
    31   13   46 1
    32   14   47 1
    33   14   48 1
    34   15   20 ar
    35   15   16 ar
    36   16   17 ar
    37   16   49 1
    38   17   18 ar
    39   17   50 1
    40   18   19 ar
    41   18   51 1
    42   19   20 ar
    43   19   21 1
    44   20   52 1
    45   21   22 2
    46   21   53 1
    47   22   23 1
    48   22   54 1
    49   23   24 2
    50   23   25 am
    51   25   26 1
    52   25   55 1
    53   26   56 1
    54   27   28 1
    55   27   57 1
    56   27   58 1
    57   28   33 ar
    58   28   29 ar
    59   29   30 ar
    60   29   59 1
    61   30   31 ar
    62   30   60 1
    63   31   32 ar
    64   31   61 1
    65   32   33 ar
    66   32   62 1
    67   33   63 1
@<TRIPOS>MOLECULE
CHEMBL1095437__1
   63    66     0     0     0
SMALL
USER_CHARGES

@<TRIPOS>ATOM
      1 C1         -0.1581    1.4928    0.1432 C.3       1 <0>        -0.0814
      2 C2         -0.0574   -0.0085    0.0596 C.2       1 <0>        -0.0034
      3 C3         -0.2336   -0.7639   -1.0436 C.2       1 <0>         0.0174
      4 N1         -0.0597   -2.0474   -0.7084 N.2       1 <0>        -0.4575
      5 C4          0.2210   -2.1264    0.5732 C.2       1 <0>         0.2368
      6 N2          0.2361   -0.8631    1.0878 N.pl3     1 <0>        -0.4460
      7 C5          0.5118   -0.4917    2.4779 C.3       1 <0>         0.0961
      8 C6         -0.8078   -0.3499    3.2392 C.3       1 <0>         0.0363
      9 N3         -0.5314    0.0225    4.6330 N.3       1 <0>        -0.5320
     10 C7          0.1587   -1.0649    5.3420 C.3       1 <0>         0.0064
     11 C8          0.4799   -0.6133    6.7691 C.3       1 <0>         0.0639
     12 O1         -0.7301   -0.2224    7.4237 O.3       1 <0>        -0.3827
     13 C9         -1.4278    0.8353    6.7604 C.3       1 <0>         0.0634
     14 C10        -1.7682    0.3984    5.3331 C.3       1 <0>         0.0184
     15 C11         0.4813   -3.3721    1.3276 C.ar      1 <0>        -0.0065
     16 C12         0.3388   -3.3912    2.7171 C.ar      1 <0>        -0.1200
     17 C13         0.5815   -4.5523    3.4244 C.ar      1 <0>        -0.1151
     18 C14         0.9658   -5.7024    2.7653 C.ar      1 <0>        -0.0915
     19 C15         1.1126   -5.6983    1.3740 C.ar      1 <0>        -0.0733
     20 C16         0.8630   -4.5286    0.6535 C.ar      1 <0>        -0.0500
     21 C17         1.5236   -6.9250    0.6712 C.2       1 <0>        -0.0022
     22 C18         1.7591   -8.0544    1.3683 C.2       1 <0>        -0.2082
     23 C19         2.1679   -9.2745    0.6693 C.2       1 <0>         0.5603
     24 O2          2.2949   -9.2688   -0.5410 O.2       1 <0>        -0.5225
     25 N4          2.4033  -10.4037    1.3663 N.am      1 <0>        -0.5935
     26 O3          2.7986  -11.5835    0.6904 O.3       1 <0>        -0.3155
     27 C20        -0.5697   -0.2497   -2.4198 C.3       1 <0>         0.0035
     28 C21         0.7033    0.0323   -3.1754 C.ar      1 <0>        -0.0743
     29 C22         1.2904    1.2814   -3.0986 C.ar      1 <0>        -0.1160
     30 C23         2.4581    1.5400   -3.7917 C.ar      1 <0>        -0.1215
     31 C24         3.0390    0.5494   -4.5613 C.ar      1 <0>        -0.1242
     32 C25         2.4523   -0.6999   -4.6375 C.ar      1 <0>        -0.1195
     33 C26         1.2869   -0.9599   -3.9409 C.ar      1 <0>        -0.1057
     34 H1          0.8183    1.9341   -0.0563 H         1 <0>         0.0762
     35 H2         -0.8762    1.8504   -0.5948 H         1 <0>         0.0848
     36 H3         -0.4895    1.7797    1.1412 H         1 <0>         0.0666
     37 H4          1.1204   -1.2649    2.9467 H         1 <0>         0.1011
     38 H5          1.0483    0.4568    2.5009 H         1 <0>         0.1042
     39 H6         -1.4165    0.4233    2.7703 H         1 <0>         0.0891
     40 H7         -1.3443   -1.2984    3.2161 H         1 <0>         0.0484
     41 H8         -0.4848   -1.9441    5.3745 H         1 <0>         0.0493
     42 H9          1.0842   -1.3095    4.8207 H         1 <0>         0.0875
     43 H10         0.9403   -1.4359    7.3163 H         1 <0>         0.1015
     44 H11         1.1663    0.2329    6.7374 H         1 <0>         0.0627
     45 H12        -2.3470    1.0603    7.3012 H         1 <0>         0.1018
     46 H13        -0.7968    1.7235    6.7284 H         1 <0>         0.0625
     47 H14        -2.2494    1.2218    4.8054 H         1 <0>         0.0899
     48 H15        -2.4425   -0.4574    5.3656 H         1 <0>         0.0473
     49 H16         0.0384   -2.4952    3.2398 H         1 <0>         0.1304
     50 H17         0.4702   -4.5603    4.4986 H         1 <0>         0.1316
     51 H18         1.1540   -6.6070    3.3245 H         1 <0>         0.1327
     52 H19         0.9701   -4.5200   -0.4211 H         1 <0>         0.1429
     53 H20         1.6364   -6.9199   -0.4029 H         1 <0>         0.1423
     54 H21         1.6463   -8.0595    2.4424 H         1 <0>         0.1351
     55 H22         2.3021  -10.4083    2.3310 H         1 <0>         0.4094
     56 H23         2.9443  -12.3409    1.2736 H         1 <0>         0.3888
     57 H24        -1.1518   -0.9995   -2.9556 H         1 <0>         0.0872
     58 H25        -1.1514    0.6679   -2.3328 H         1 <0>         0.0846
     59 H26         0.8367    2.0553   -2.4973 H         1 <0>         0.1192
     60 H27         2.9165    2.5161   -3.7322 H         1 <0>         0.1198
     61 H28         3.9509    0.7518   -5.1034 H         1 <0>         0.1194
     62 H29         2.9059   -1.4737   -5.2390 H         1 <0>         0.1207
     63 H30         0.8306   -1.9371   -3.9974 H         1 <0>         0.1228
@<TRIPOS>BOND
     1    1    2 1
     2    1   34 1
     3    1   35 1
     4    1   36 1
     5    2    6 1
     6    2    3 2
     7    3    4 1
     8    3   27 1
     9    4    5 2
    10    5    6 1
    11    5   15 1
    12    6    7 1
    13    7    8 1
    14    7   37 1
    15    7   38 1
    16    8    9 1
    17    8   39 1
    18    8   40 1
    19    9   14 1
    20    9   10 1
    21   10   11 1
    22   10   41 1
    23   10   42 1
    24   11   12 1
    25   11   43 1
    26   11   44 1
    27   12   13 1
    28   13   14 1
    29   13   45 1
    30   13   46 1
    31   14   47 1
    32   14   48 1
    33   15   20 ar
    34   15   16 ar
    35   16   17 ar
    36   16   49 1
    37   17   18 ar
    38   17   50 1
    39   18   19 ar
    40   18   51 1
    41   19   20 ar
    42   19   21 1
    43   20   52 1
    44   21   22 2
    45   21   53 1
    46   22   23 1
    47   22   54 1
    48   23   24 2
    49   23   25 am
    50   25   26 1
    51   25   55 1
    52   26   56 1
    53   27   28 1
    54   27   57 1
    55   27   58 1
    56   28   33 ar
    57   28   29 ar
    58   29   30 ar
    59   29   59 1
    60   30   31 ar
    61   30   60 1
    62   31   32 ar
    63   31   61 1
    64   32   33 ar
    65   32   62 1
    66   33   63 1
@<TRIPOS>MOLECULE
CHEMBL1095120
   66    69     0     0     0
SMALL
USER_CHARGES

@<TRIPOS>ATOM
      1 C1          2.2656    0.1945    0.3935 C.3       1 <0>        -0.0817
      2 C2          0.9844   -0.5658    0.1668 C.2       1 <0>         0.0455
      3 C3          0.2692   -0.5975   -0.9929 C.2       1 <0>         0.0318
      4 N1         -0.8213   -1.4060   -0.7630 N.pl3     1 <0>        -0.4616
      5 C4         -0.7298   -1.8370    0.5287 C.2       1 <0>         0.2199
      6 N2          0.3585   -1.3282    1.0649 N.2       1 <0>        -0.4389
      7 C5         -1.6901   -2.7312    1.2099 C.ar      1 <0>        -0.0379
      8 C6         -2.0999   -3.9171    0.5948 C.ar      1 <0>        -0.1082
      9 C7         -2.9971   -4.7541    1.2282 C.ar      1 <0>        -0.1098
     10 C8         -3.4960   -4.4272    2.4730 C.ar      1 <0>        -0.0865
     11 C9         -3.0950   -3.2432    3.1013 C.ar      1 <0>        -0.0571
     12 C10        -2.1837   -2.3960    2.4681 C.ar      1 <0>        -0.0634
     13 C11        -3.6282   -2.8945    4.4287 C.2       1 <0>        -0.0324
     14 C12        -4.5040   -3.7165    5.0404 C.2       1 <0>        -0.1778
     15 C13        -5.0343   -3.3697    6.3605 C.2       1 <0>         0.5543
     16 O1         -4.6843   -2.3394    6.9054 O.2       1 <0>        -0.5174
     17 N3         -5.9100   -4.1916    6.9722 N.am      1 <0>        -0.5899
     18 O2         -6.4228   -3.8562    8.2487 O.3       1 <0>        -0.3113
     19 C14        -1.8779   -1.7394   -1.7214 C.3       1 <0>         0.1232
     20 H1         -1.6423   -2.6857   -2.2084 H         1 <0>         0.1303
     21 C15        -1.9797   -0.6333   -2.7756 C.3       1 <0>        -0.1914
     22 C16        -2.3866    0.6748   -2.0911 C.3       1 <0>        -0.1445
     23 C17        -3.7044    0.4640   -1.3426 C.3       1 <0>        -0.0157
     24 N4         -3.5345   -0.5866   -0.3318 N.4       1 <0>        -0.3782
     25 C18        -3.2144   -1.8618   -0.9864 C.3       1 <0>        -0.0536
     26 C19        -4.7786   -0.7312    0.4360 C.3       1 <0>         0.0218
     27 C20        -4.6030   -1.8261    1.4901 C.3       1 <0>        -0.2163
     28 C21        -5.1084    0.5936    1.1267 C.3       1 <0>        -0.1837
     29 C22         0.5996    0.1013   -2.2528 C.ar      1 <0>        -0.0269
     30 C23         0.6511   -0.6069   -3.4546 C.ar      1 <0>        -0.1097
     31 C24         0.9597    0.0515   -4.6270 C.ar      1 <0>        -0.1146
     32 C25         1.2178    1.4107   -4.6134 C.ar      1 <0>        -0.1021
     33 C26         1.1689    2.1186   -3.4256 C.ar      1 <0>        -0.1086
     34 C27         0.8559    1.4735   -2.2470 C.ar      1 <0>        -0.0987
     35 H2          3.1143   -0.4378    0.1327 H         1 <0>         0.0782
     36 H3          2.2731    1.0882   -0.2304 H         1 <0>         0.0764
     37 H4          2.3362    0.4829    1.4423 H         1 <0>         0.0798
     38 H5         -1.7139   -4.1796   -0.3792 H         1 <0>         0.1333
     39 H6         -3.3104   -5.6689    0.7471 H         1 <0>         0.1443
     40 H7         -4.1974   -5.0864    2.9627 H         1 <0>         0.1426
     41 H8         -1.8668   -1.4828    2.9497 H         1 <0>         0.1459
     42 H9         -3.3176   -1.9802    4.9122 H         1 <0>         0.1461
     43 H10        -4.8147   -4.6309    4.5568 H         1 <0>         0.1378
     44 H11        -6.1890   -5.0129    6.5379 H         1 <0>         0.4104
     45 H12        -7.0433   -4.5059    8.6064 H         1 <0>         0.3935
     46 H13        -1.0134   -0.5044   -3.2632 H         1 <0>         0.1439
     47 H14        -2.7303   -0.9051   -3.5178 H         1 <0>         0.1026
     48 H15        -1.6110    0.9730   -1.3857 H         1 <0>         0.0902
     49 H16        -2.5153    1.4540   -2.8424 H         1 <0>         0.1182
     50 H17        -3.9971    1.3935   -0.8542 H         1 <0>         0.1352
     51 H18        -4.4793    0.1661   -2.0489 H         1 <0>         0.1320
     52 H19        -3.9998   -2.1102   -1.7004 H         1 <0>         0.1491
     53 H20        -3.1449   -2.6490   -0.2357 H         1 <0>         0.1607
     54 H21        -5.5917   -1.0022   -0.2374 H         1 <0>         0.1367
     55 H22        -3.7899   -1.5551    2.1635 H         1 <0>         0.1024
     56 H23        -5.5261   -1.9334    2.0598 H         1 <0>         0.1097
     57 H24        -4.3680   -2.7699    0.9980 H         1 <0>         0.0829
     58 H25        -4.2953    0.8646    1.8001 H         1 <0>         0.0806
     59 H26        -5.2335    1.3736    0.3757 H         1 <0>         0.0820
     60 H27        -6.0315    0.4863    1.6964 H         1 <0>         0.1092
     61 H28         0.4502   -1.6680   -3.4665 H         1 <0>         0.1234
     62 H29         1.0002   -0.4954   -5.5574 H         1 <0>         0.1321
     63 H30         1.4589    1.9214   -5.5340 H         1 <0>         0.1314
     64 H31         1.3721    3.1793   -3.4217 H         1 <0>         0.1331
     65 H32         0.8134    2.0281   -1.3212 H         1 <0>         0.1298
     66 H33        -2.7838   -0.3328    0.2928 H         1 <0>         0.4175
@<TRIPOS>BOND
     1    1    2 1
     2    1   35 1
     3    1   36 1
     4    1   37 1
     5    2    6 1
     6    2    3 2
     7    3    4 1
     8    3   29 1
     9    4    5 1
    10    4   19 1
    11    5    6 2
    12    5    7 1
    13    7   12 ar
    14    7    8 ar
    15    8    9 ar
    16    8   38 1
    17    9   10 ar
    18    9   39 1
    19   10   11 ar
    20   10   40 1
    21   11   12 ar
    22   11   13 1
    23   12   41 1
    24   13   14 2
    25   13   42 1
    26   14   15 1
    27   14   43 1
    28   15   16 2
    29   15   17 am
    30   17   18 1
    31   17   44 1
    32   18   45 1
    33   19   20 1
    34   19   25 1
    35   19   21 1
    36   21   22 1
    37   21   46 1
    38   21   47 1
    39   22   23 1
    40   22   48 1
    41   22   49 1
    42   23   24 1
    43   23   50 1
    44   23   51 1
    45   24   25 1
    46   24   26 1
    47   24   66 1
    48   25   52 1
    49   25   53 1
    50   26   27 1
    51   26   28 1
    52   26   54 1
    53   27   55 1
    54   27   56 1
    55   27   57 1
    56   28   58 1
    57   28   59 1
    58   28   60 1
    59   29   34 ar
    60   29   30 ar
    61   30   31 ar
    62   30   61 1
    63   31   32 ar
    64   31   62 1
    65   32   33 ar
    66   32   63 1
    67   33   34 ar
    68   33   64 1
    69   34   65 1
@<TRIPOS>MOLECULE
CHEMBL1095120__1
   67    70     0     0     0
SMALL
USER_CHARGES

@<TRIPOS>ATOM
      1 C1         -1.7236   -0.8315   -0.9466 C.3       1 <0>        -0.1093
      2 C2         -0.8065   -1.8424   -1.5854 C.2       1 <0>         0.0831
      3 C3          0.0940   -1.5895   -2.5766 C.2       1 <0>         0.0763
      4 N1          0.7160   -2.7847   -2.8601 N.pl3     1 <0>        -0.4137
      5 C4          0.1710   -3.7216   -2.0307 C.cat     1 <0>         0.3678
      6 N2         -0.7325   -3.1374   -1.2738 N.pl3     1 <0>        -0.4558
      7 C5          0.5389   -5.1529   -1.9863 C.ar      1 <0>        -0.1207
      8 C6         -0.0317   -6.0507   -2.8924 C.ar      1 <0>        -0.0628
      9 C7          0.3095   -7.3883   -2.8530 C.ar      1 <0>        -0.1032
     10 C8          1.2162   -7.8492   -1.9199 C.ar      1 <0>        -0.0506
     11 C9          1.7957   -6.9621   -1.0063 C.ar      1 <0>        -0.0549
     12 C10         1.4589   -5.6078   -1.0451 C.ar      1 <0>        -0.0555
     13 C11         2.7621   -7.4544   -0.0105 C.2       1 <0>        -0.0545
     14 C12         3.0897   -8.7616    0.0218 C.2       1 <0>        -0.1541
     15 C13         4.0508   -9.2512    1.0122 C.2       1 <0>         0.5512
     16 O1          4.5537   -8.4780    1.8060 O.2       1 <0>        -0.5180
     17 N3          4.3783  -10.5582    1.0445 N.am      1 <0>        -0.5856
     18 O2          5.3077  -11.0316    2.0022 O.3       1 <0>        -0.3083
     19 C14         1.7622   -3.0080   -3.8610 C.3       1 <0>         0.1199
     20 H1          1.3247   -2.9741   -4.8587 H         1 <0>         0.1633
     21 C15         2.4056   -4.3786   -3.6311 C.3       1 <0>        -0.1695
     22 C16         3.0837   -4.3893   -2.2580 C.3       1 <0>        -0.1922
     23 C17         4.1041   -3.2510   -2.1902 C.3       1 <0>        -0.0182
     24 N4          3.4233   -1.9662   -2.3912 N.4       1 <0>        -0.3851
     25 C18         2.8310   -1.9202   -3.7345 C.3       1 <0>        -0.0486
     26 C19         4.3930   -0.8722   -2.2480 C.3       1 <0>         0.0168
     27 C20         3.8206    0.4018   -2.8727 C.3       1 <0>        -0.2251
     28 C21         4.6737   -0.6306   -0.7634 C.3       1 <0>        -0.1846
     29 C22         0.3523   -0.2853   -3.2226 C.ar      1 <0>        -0.0909
     30 C23         1.3647    0.5469   -2.7418 C.ar      1 <0>        -0.1146
     31 C24         1.6008    1.7626   -3.3496 C.ar      1 <0>        -0.1162
     32 C25         0.8367    2.1577   -4.4333 C.ar      1 <0>        -0.0727
     33 C26        -0.1687    1.3378   -4.9145 C.ar      1 <0>        -0.1011
     34 C27        -0.4114    0.1171   -4.3196 C.ar      1 <0>        -0.0718
     35 H2         -1.2243   -0.3780   -0.0903 H         1 <0>         0.1090
     36 H3         -1.9739   -0.0581   -1.6728 H         1 <0>         0.1127
     37 H4         -2.6358   -1.3272   -0.6147 H         1 <0>         0.1018
     38 H5         -0.7419   -5.6976   -3.6254 H         1 <0>         0.1429
     39 H6         -0.1355   -8.0772   -3.5556 H         1 <0>         0.1543
     40 H7          1.4785   -8.8965   -1.8948 H         1 <0>         0.1506
     41 H8          1.9060   -4.9172   -0.3455 H         1 <0>         0.1475
     42 H9          3.2084   -6.7683    0.6940 H         1 <0>         0.1465
     43 H10         2.6433   -9.4477   -0.6827 H         1 <0>         0.1404
     44 H11         3.9774  -11.1744    0.4118 H         1 <0>         0.4123
     45 H12         5.4790  -11.9818    1.9477 H         1 <0>         0.3979
     46 H13         1.6381   -5.1518   -3.6646 H         1 <0>         0.1267
     47 H14         3.1486   -4.5671   -4.4060 H         1 <0>         0.1281
     48 H15         2.3327   -4.2518   -1.4801 H         1 <0>         0.1123
     49 H16         3.5915   -5.3425   -2.1103 H         1 <0>         0.1368
     50 H17         4.5889   -3.2559   -1.2139 H         1 <0>         0.1429
     51 H18         4.8547   -3.3896   -2.9683 H         1 <0>         0.1431
     52 H19         3.6087   -2.0872   -4.4797 H         1 <0>         0.1697
     53 H20         2.3757   -0.9435   -3.8983 H         1 <0>         0.1662
     54 H21         5.3204   -1.1401   -2.7542 H         1 <0>         0.1478
     55 H22         4.6004    0.9107   -3.4392 H         1 <0>         0.1101
     56 H23         2.9982    0.1418   -3.5391 H         1 <0>         0.1022
     57 H24         3.4554    1.0605   -2.0847 H         1 <0>         0.1012
     58 H25         5.0815   -1.5382   -0.3184 H         1 <0>         0.0843
     59 H26         5.3932    0.1812   -0.6571 H         1 <0>         0.1175
     60 H27         3.7463   -0.3627   -0.2572 H         1 <0>         0.0786
     61 H28         1.9615    0.2398   -1.8957 H         1 <0>         0.1254
     62 H29         2.3835    2.4075   -2.9784 H         1 <0>         0.1461
     63 H30         1.0256    3.1104   -4.9055 H         1 <0>         0.1452
     64 H31        -0.7619    1.6525   -5.7604 H         1 <0>         0.1462
     65 H32        -1.1932   -0.5241   -4.6992 H         1 <0>         0.1365
     66 H33         2.6956   -1.8606   -1.7003 H         1 <0>         0.4072
     67 H34        -1.2650   -3.5807   -0.5950 H         1 <0>         0.4692
@<TRIPOS>BOND
     1    1    2 1
     2    1   35 1
     3    1   36 1
     4    1   37 1
     5    2    6 1
     6    2    3 2
     7    3    4 1
     8    3   29 1
     9    4    5 1
    10    4   19 1
    11    5    6 2
    12    5    7 1
    13    6   67 1
    14    7   12 ar
    15    7    8 ar
    16    8    9 ar
    17    8   38 1
    18    9   10 ar
    19    9   39 1
    20   10   11 ar
    21   10   40 1
    22   11   12 ar
    23   11   13 1
    24   12   41 1
    25   13   14 2
    26   13   42 1
    27   14   15 1
    28   14   43 1
    29   15   16 2
    30   15   17 am
    31   17   18 1
    32   17   44 1
    33   18   45 1
    34   19   20 1
    35   19   25 1
    36   19   21 1
    37   21   22 1
    38   21   46 1
    39   21   47 1
    40   22   23 1
    41   22   48 1
    42   22   49 1
    43   23   24 1
    44   23   50 1
    45   23   51 1
    46   24   25 1
    47   24   26 1
    48   24   66 1
    49   25   52 1
    50   25   53 1
    51   26   27 1
    52   26   28 1
    53   26   54 1
    54   27   55 1
    55   27   56 1
    56   27   57 1
    57   28   58 1
    58   28   59 1
    59   28   60 1
    60   29   34 ar
    61   29   30 ar
    62   30   31 ar
    63   30   61 1
    64   31   32 ar
    65   31   62 1
    66   32   33 ar
    67   32   63 1
    68   33   34 ar
    69   33   64 1
    70   34   65 1
@<TRIPOS>MOLECULE
CHEMBL1097761
   53    56     0     0     0
SMALL
USER_CHARGES

@<TRIPOS>ATOM
      1 C1          1.4800    1.8904   -1.3941 C.ar      1 <0>        -0.1219
      2 C2          2.7953    2.3107   -1.3306 C.ar      1 <0>        -0.1187
      3 C3          3.7996    1.4001   -1.0601 C.ar      1 <0>        -0.1165
      4 C4          3.4885    0.0693   -0.8526 C.ar      1 <0>        -0.0860
      5 C5          2.1730   -0.3508   -0.9151 C.ar      1 <0>        -0.1130
      6 C6          1.1689    0.5595   -1.1870 C.ar      1 <0>        -0.1158
      7 C7          4.5834   -0.9235   -0.5586 C.3       1 <0>        -0.0785
      8 C8          4.8059   -1.0047    0.9530 C.3       1 <0>        -0.1373
      9 C9          5.9175   -2.0127    1.2514 C.3       1 <0>         0.0968
     10 N1          6.1306   -2.0905    2.6987 N.pl3     1 <0>        -0.4810
     11 C10         6.9232   -1.2510    3.4566 C.ar      1 <0>         0.0549
     12 C11         7.7185   -0.1517    3.1635 C.ar      1 <0>        -0.1110
     13 C12         8.4031    0.4860    4.1763 C.ar      1 <0>        -0.0981
     14 C13         8.3025    0.0365    5.4855 C.ar      1 <0>        -0.1271
     15 C14         7.5251   -1.0434    5.7937 C.ar      1 <0>        -0.0623
     16 C15         6.8211   -1.7066    4.7831 C.ar      1 <0>         0.0481
     17 N2          5.9909   -2.7777    4.7754 N.2       1 <0>        -0.4767
     18 C16         5.5767   -3.0050    3.5533 C.2       1 <0>         0.3182
     19 C17         4.6526   -4.0897    3.1560 C.ar      1 <0>        -0.0261
     20 C18         4.5024   -5.2143    3.9708 C.ar      1 <0>        -0.0561
     21 C19         3.6402   -6.2286    3.6031 C.ar      1 <0>        -0.1176
     22 C20         2.9207   -6.1401    2.4286 C.ar      1 <0>        -0.0839
     23 C21         3.0608   -5.0198    1.6025 C.ar      1 <0>        -0.0765
     24 C22         3.9269   -3.9889    1.9724 C.ar      1 <0>        -0.0927
     25 C23         2.2933   -4.9255    0.3497 C.2       1 <0>        -0.0063
     26 C24         1.4539   -5.9196   -0.0030 C.2       1 <0>        -0.2050
     27 C25         0.6905   -5.8259   -1.2490 C.2       1 <0>         0.5601
     28 O1          0.8138   -4.8505   -1.9662 O.2       1 <0>        -0.5227
     29 N3         -0.1487   -6.8198   -1.6016 N.am      1 <0>        -0.5928
     30 O2         -0.8869   -6.7291   -2.8065 O.3       1 <0>        -0.3151
     31 H1          0.6949    2.6026   -1.6010 H         1 <0>         0.1215
     32 H2          3.0384    3.3504   -1.4928 H         1 <0>         0.1218
     33 H3          4.8274    1.7284   -1.0112 H         1 <0>         0.1202
     34 H4          1.9299   -1.3906   -0.7533 H         1 <0>         0.1220
     35 H5          0.1412    0.2312   -1.2363 H         1 <0>         0.1225
     36 H6          4.2955   -1.9045   -0.9367 H         1 <0>         0.0781
     37 H7          5.5048   -0.6029   -1.0448 H         1 <0>         0.0790
     38 H8          5.0938   -0.0238    1.3310 H         1 <0>         0.0782
     39 H9          3.8845   -1.3254    1.4391 H         1 <0>         0.0760
     40 H10         5.6296   -2.9937    0.8733 H         1 <0>         0.1030
     41 H11         6.8389   -1.6921    0.7652 H         1 <0>         0.0957
     42 H12         7.8008    0.2024    2.1466 H         1 <0>         0.1221
     43 H13         9.0224    1.3412    3.9492 H         1 <0>         0.1311
     44 H14         8.8447    0.5455    6.2686 H         1 <0>         0.1308
     45 H15         7.4543   -1.3849    6.8158 H         1 <0>         0.1302
     46 H16         5.0625   -5.2911    4.8910 H         1 <0>         0.1410
     47 H17         3.5286   -7.0955    4.2376 H         1 <0>         0.1374
     48 H18         2.2487   -6.9371    2.1466 H         1 <0>         0.1339
     49 H19         4.0362   -3.1194    1.3413 H         1 <0>         0.1416
     50 H20         2.4027   -4.0599   -0.2869 H         1 <0>         0.1389
     51 H21         1.3445   -6.7852    0.6336 H         1 <0>         0.1364
     52 H22        -0.2470   -7.5972   -1.0299 H         1 <0>         0.4098
     53 H23        -1.4612   -7.4889   -2.9740 H         1 <0>         0.3895
@<TRIPOS>BOND
     1    1    6 ar
     2    1    2 ar
     3    1   31 1
     4    2    3 ar
     5    2   32 1
     6    3    4 ar
     7    3   33 1
     8    4    5 ar
     9    4    7 1
    10    5    6 ar
    11    5   34 1
    12    6   35 1
    13    7    8 1
    14    7   36 1
    15    7   37 1
    16    8    9 1
    17    8   38 1
    18    8   39 1
    19    9   10 1
    20    9   40 1
    21    9   41 1
    22   10   18 1
    23   10   11 1
    24   11   16 ar
    25   11   12 ar
    26   12   13 ar
    27   12   42 1
    28   13   14 ar
    29   13   43 1
    30   14   15 ar
    31   14   44 1
    32   15   16 ar
    33   15   45 1
    34   16   17 1
    35   17   18 2
    36   18   19 1
    37   19   24 ar
    38   19   20 ar
    39   20   21 ar
    40   20   46 1
    41   21   22 ar
    42   21   47 1
    43   22   23 ar
    44   22   48 1
    45   23   24 ar
    46   23   25 1
    47   24   49 1
    48   25   26 2
    49   25   50 1
    50   26   27 1
    51   26   51 1
    52   27   28 2
    53   27   29 am
    54   29   30 1
    55   29   52 1
    56   30   53 1
@<TRIPOS>MOLECULE
CHEMBL1097761__1
   54    57     0     0     0
SMALL
USER_CHARGES

@<TRIPOS>ATOM
      1 C1          9.7727   -4.3211   -3.2489 C.ar      1 <0>        -0.1153
      2 C2          8.5719   -4.9542   -2.9879 C.ar      1 <0>        -0.1161
      3 C3          7.5902   -4.3032   -2.2644 C.ar      1 <0>        -0.1155
      4 C4          7.8096   -3.0192   -1.8015 C.ar      1 <0>        -0.0955
      5 C5          9.0107   -2.3865   -2.0617 C.ar      1 <0>        -0.1155
      6 C6          9.9918   -3.0369   -2.7864 C.ar      1 <0>        -0.1154
      7 C7          6.7390   -2.3092   -1.0136 C.3       1 <0>        -0.0736
      8 C8          6.9228   -2.6032    0.4766 C.3       1 <0>        -0.1345
      9 C9          5.8359   -1.8823    1.2765 C.3       1 <0>         0.0862
     10 N1          6.0325   -2.1357    2.7060 N.pl3     1 <0>        -0.4219
     11 C10         6.6979   -1.3191    3.5991 C.ar      1 <0>         0.0818
     12 C11         7.3506   -0.0991    3.4875 C.ar      1 <0>        -0.0894
     13 C12         7.9306    0.4701    4.6015 C.ar      1 <0>        -0.0649
     14 C13         7.8661   -0.1681    5.8322 C.ar      1 <0>        -0.0784
     15 C14         7.2283   -1.3689    5.9620 C.ar      1 <0>        -0.0768
     16 C15         6.6325   -1.9658    4.8461 C.ar      1 <0>         0.0502
     17 N2          5.9466   -3.1202    4.6625 N.pl3     1 <0>        -0.4892
     18 C16         5.5858   -3.2231    3.4070 C.cat     1 <0>         0.4433
     19 C17         4.8153   -4.3478    2.8327 C.ar      1 <0>        -0.1004
     20 C18         3.8391   -4.1044    1.8636 C.ar      1 <0>        -0.0679
     21 C19         3.1183   -5.1522    1.3251 C.ar      1 <0>        -0.1030
     22 C20         3.3557   -6.4471    1.7396 C.ar      1 <0>        -0.0551
     23 C21         4.3302   -6.7060    2.7094 C.ar      1 <0>        -0.0519
     24 C22         5.0658   -5.6510    3.2529 C.ar      1 <0>        -0.0510
     25 C23         4.5833   -8.0874    3.1514 C.2       1 <0>        -0.0362
     26 C24         3.8756   -9.1050    2.6216 C.2       1 <0>        -0.1716
     27 C25         4.1273  -10.4789    3.0612 C.2       1 <0>         0.5546
     28 O1          4.9754  -10.7020    3.9049 O.2       1 <0>        -0.5173
     29 N3          3.4196  -11.4963    2.5315 N.am      1 <0>        -0.5889
     30 O2          3.6630  -12.8248    2.9566 O.3       1 <0>        -0.3107
     31 H1         10.5413   -4.8313   -3.8103 H         1 <0>         0.1256
     32 H2          8.4005   -5.9573   -3.3495 H         1 <0>         0.1248
     33 H3          6.6518   -4.7976   -2.0610 H         1 <0>         0.1201
     34 H4          9.1819   -1.3832   -1.7004 H         1 <0>         0.1211
     35 H5         10.9301   -2.5424   -2.9901 H         1 <0>         0.1255
     36 H6          6.8145   -1.2352   -1.1840 H         1 <0>         0.0819
     37 H7          5.7583   -2.6600   -1.3349 H         1 <0>         0.0812
     38 H8          6.8473   -3.6772    0.6470 H         1 <0>         0.0804
     39 H9          7.9035   -2.2524    0.7979 H         1 <0>         0.0821
     40 H10         5.8950   -0.8107    1.0860 H         1 <0>         0.1244
     41 H11         4.8563   -2.2518    0.9734 H         1 <0>         0.1195
     42 H12         7.4042    0.4020    2.5323 H         1 <0>         0.1511
     43 H13         8.4389    1.4191    4.5156 H         1 <0>         0.1572
     44 H14         8.3251    0.2893    6.6962 H         1 <0>         0.1572
     45 H15         7.1845   -1.8569    6.9244 H         1 <0>         0.1532
     46 H16         3.6472   -3.0937    1.5348 H         1 <0>         0.1409
     47 H17         2.3650   -4.9573    0.5762 H         1 <0>         0.1517
     48 H18         2.7880   -7.2617    1.3149 H         1 <0>         0.1482
     49 H19         5.8226   -5.8447    3.9986 H         1 <0>         0.1426
     50 H20         5.3360   -8.2855    3.9001 H         1 <0>         0.1474
     51 H21         3.1229   -8.9069    1.8728 H         1 <0>         0.1390
     52 H22         2.7436  -11.3184    1.8590 H         1 <0>         0.4111
     53 H23         3.1074  -13.4853    2.5206 H         1 <0>         0.3940
     54 H24         5.7491   -3.7692    5.3558 H         1 <0>         0.4601
@<TRIPOS>BOND
     1    1    6 ar
     2    1    2 ar
     3    1   31 1
     4    2    3 ar
     5    2   32 1
     6    3    4 ar
     7    3   33 1
     8    4    5 ar
     9    4    7 1
    10    5    6 ar
    11    5   34 1
    12    6   35 1
    13    7    8 1
    14    7   36 1
    15    7   37 1
    16    8    9 1
    17    8   38 1
    18    8   39 1
    19    9   10 1
    20    9   40 1
    21    9   41 1
    22   10   18 1
    23   10   11 1
    24   11   16 ar
    25   11   12 ar
    26   12   13 ar
    27   12   42 1
    28   13   14 ar
    29   13   43 1
    30   14   15 ar
    31   14   44 1
    32   15   16 ar
    33   15   45 1
    34   16   17 1
    35   17   18 2
    36   17   54 1
    37   18   19 1
    38   19   24 ar
    39   19   20 ar
    40   20   21 ar
    41   20   46 1
    42   21   22 ar
    43   21   47 1
    44   22   23 ar
    45   22   48 1
    46   23   24 ar
    47   23   25 1
    48   24   49 1
    49   25   26 2
    50   25   50 1
    51   26   27 1
    52   26   51 1
    53   27   28 2
    54   27   29 am
    55   29   30 1
    56   29   52 1
    57   30   53 1
@<TRIPOS>MOLECULE
CHEMBL1099096
   50    53     0     0     0
SMALL
USER_CHARGES

@<TRIPOS>ATOM
      1 C1         -0.2000    1.2900    1.6189 C.ar      1 <0>        -0.1177
      2 C2          0.9154    1.9747    1.1741 C.ar      1 <0>        -0.1150
      3 C3          2.0756    1.2854    0.8744 C.ar      1 <0>        -0.1160
      4 C4          2.1204   -0.0885    1.0200 C.ar      1 <0>        -0.0883
      5 C5          1.0053   -0.7731    1.4657 C.ar      1 <0>        -0.1122
      6 C6         -0.1553   -0.0840    1.7641 C.ar      1 <0>        -0.1154
      7 C7          3.3849   -0.8400    0.6923 C.3       1 <0>        -0.1018
      8 C8          4.2603   -0.9354    1.9435 C.3       1 <0>         0.1051
      9 N1          5.4895   -1.6660    1.6250 N.pl3     1 <0>        -0.4824
     10 C9          5.6485   -3.0378    1.6157 C.ar      1 <0>         0.0542
     11 C10         4.8027   -4.1078    1.8742 C.ar      1 <0>        -0.1121
     12 C11         5.2817   -5.3970    1.7752 C.ar      1 <0>        -0.0974
     13 C12         6.6025   -5.6316    1.4193 C.ar      1 <0>        -0.1270
     14 C13         7.4498   -4.5920    1.1611 C.ar      1 <0>        -0.0612
     15 C14         6.9867   -3.2754    1.2550 C.ar      1 <0>         0.0487
     16 N2          7.5703   -2.0672    1.0649 N.2       1 <0>        -0.4749
     17 C15         6.6933   -1.1166    1.2752 C.2       1 <0>         0.3182
     18 C16         6.9648    0.3328    1.1567 C.ar      1 <0>        -0.0264
     19 C17         5.9126    1.2265    0.9438 C.ar      1 <0>        -0.1079
     20 C18         6.1625    2.5803    0.8331 C.ar      1 <0>        -0.1169
     21 C19         7.4525    3.0611    0.9315 C.ar      1 <0>        -0.0839
     22 C20         8.5163    2.1779    1.1447 C.ar      1 <0>        -0.0759
     23 C21         8.2685    0.8090    1.2630 C.ar      1 <0>        -0.0423
     24 C22         9.8924    2.6910    1.2496 C.2       1 <0>        -0.0030
     25 C23        10.1287    4.0136    1.1401 C.2       1 <0>        -0.2072
     26 C24        11.4972    4.5239    1.2444 C.2       1 <0>         0.5601
     27 O1         12.4212    3.7540    1.4299 O.2       1 <0>        -0.5222
     28 N3         11.7335    5.8463    1.1350 N.am      1 <0>        -0.5935
     29 O2         13.0569    6.3397    1.2359 O.3       1 <0>        -0.3154
     30 H1         -1.1050    1.8290    1.8574 H         1 <0>         0.1239
     31 H2          0.8803    3.0481    1.0603 H         1 <0>         0.1248
     32 H3          2.9468    1.8203    0.5261 H         1 <0>         0.1217
     33 H4          1.0403   -1.8466    1.5791 H         1 <0>         0.1224
     34 H5         -1.0266   -0.6189    2.1119 H         1 <0>         0.1245
     35 H6          3.1326   -1.8430    0.3481 H         1 <0>         0.0854
     36 H7          3.9282   -0.3127   -0.0918 H         1 <0>         0.0836
     37 H8          4.5126    0.0676    2.2878 H         1 <0>         0.1043
     38 H9          3.7171   -1.4627    2.7277 H         1 <0>         0.0955
     39 H10         3.7741   -3.9312    2.1519 H         1 <0>         0.1217
     40 H11         4.6246   -6.2301    1.9765 H         1 <0>         0.1313
     41 H12         6.9640   -6.6466    1.3460 H         1 <0>         0.1311
     42 H13         8.4758   -4.7861    0.8852 H         1 <0>         0.1309
     43 H14         4.9006    0.8577    0.8650 H         1 <0>         0.1376
     44 H15         5.3446    3.2661    0.6685 H         1 <0>         0.1350
     45 H16         7.6411    4.1209    0.8433 H         1 <0>         0.1343
     46 H17         9.0848    0.1224    1.4321 H         1 <0>         0.1448
     47 H18        10.7124    2.0077    1.4142 H         1 <0>         0.1430
     48 H19         9.3087    4.6969    0.9755 H         1 <0>         0.1354
     49 H20        10.9970    6.4600    0.9872 H         1 <0>         0.4094
     50 H21        13.1267    7.2999    1.1448 H         1 <0>         0.3889
@<TRIPOS>BOND
     1    1    6 ar
     2    1    2 ar
     3    1   30 1
     4    2    3 ar
     5    2   31 1
     6    3    4 ar
     7    3   32 1
     8    4    5 ar
     9    4    7 1
    10    5    6 ar
    11    5   33 1
    12    6   34 1
    13    7    8 1
    14    7   35 1
    15    7   36 1
    16    8    9 1
    17    8   37 1
    18    8   38 1
    19    9   17 1
    20    9   10 1
    21   10   15 ar
    22   10   11 ar
    23   11   12 ar
    24   11   39 1
    25   12   13 ar
    26   12   40 1
    27   13   14 ar
    28   13   41 1
    29   14   15 ar
    30   14   42 1
    31   15   16 1
    32   16   17 2
    33   17   18 1
    34   18   23 ar
    35   18   19 ar
    36   19   20 ar
    37   19   43 1
    38   20   21 ar
    39   20   44 1
    40   21   22 ar
    41   21   45 1
    42   22   23 ar
    43   22   24 1
    44   23   46 1
    45   24   25 2
    46   24   47 1
    47   25   26 1
    48   25   48 1
    49   26   27 2
    50   26   28 am
    51   28   29 1
    52   28   49 1
    53   29   50 1
@<TRIPOS>MOLECULE
CHEMBL1099096__1
   51    54     0     0     0
SMALL
USER_CHARGES

@<TRIPOS>ATOM
      1 C1          0.0884    0.8196    3.9766 C.ar      1 <0>        -0.1075
      2 C2          0.2896   -0.5480    3.9734 C.ar      1 <0>        -0.1133
      3 C3          1.5539   -1.0601    3.7490 C.ar      1 <0>        -0.1106
      4 C4          2.6168   -0.2046    3.5274 C.ar      1 <0>        -0.1025
      5 C5          2.4154    1.1630    3.5298 C.ar      1 <0>        -0.1108
      6 C6          1.1515    1.6751    3.7555 C.ar      1 <0>        -0.1141
      7 C7          3.9952   -0.7628    3.2838 C.3       1 <0>        -0.0930
      8 C8          4.1961   -0.9889    1.7840 C.3       1 <0>         0.0921
      9 N1          5.5153   -1.5824    1.5520 N.pl3     1 <0>        -0.4228
     10 C9          5.7948   -2.9269    1.4055 C.ar      1 <0>         0.0817
     11 C10         5.0213   -4.0794    1.4217 C.ar      1 <0>        -0.0897
     12 C11         5.6209   -5.3076    1.2398 C.ar      1 <0>        -0.0646
     13 C12         6.9914   -5.3990    1.0407 C.ar      1 <0>        -0.0783
     14 C13         7.7692   -4.2765    1.0216 C.ar      1 <0>        -0.0766
     15 C14         7.1834   -3.0194    1.2039 C.ar      1 <0>         0.0505
     16 N2          7.6772   -1.7577    1.2355 N.pl3     1 <0>        -0.4886
     17 C15         6.7002   -0.9074    1.4341 C.cat     1 <0>         0.4432
     18 C16         6.8551    0.5612    1.5219 C.ar      1 <0>        -0.1011
     19 C17         5.8919    1.4013    0.9584 C.ar      1 <0>        -0.0678
     20 C18         6.0333    2.7728    1.0391 C.ar      1 <0>        -0.1032
     21 C19         7.1265    3.3243    1.6761 C.ar      1 <0>        -0.0549
     22 C20         8.0992    2.4954    2.2451 C.ar      1 <0>        -0.0521
     23 C21         7.9582    1.1083    2.1714 C.ar      1 <0>        -0.0508
     24 C22         9.2653    3.0839    2.9245 C.2       1 <0>        -0.0362
     25 C23         9.3968    4.4234    2.9990 C.2       1 <0>        -0.1715
     26 C24        10.5565    5.0088    3.6747 C.2       1 <0>         0.5546
     27 O1         11.4016    4.2860    4.1691 O.2       1 <0>        -0.5175
     28 N3         10.6881    6.3480    3.7492 N.am      1 <0>        -0.5889
     29 O2         11.8095    6.9141    4.4026 O.3       1 <0>        -0.3107
     30 H1         -0.9001    1.2196    4.1475 H         1 <0>         0.1285
     31 H2         -0.5408   -1.2164    4.1466 H         1 <0>         0.1286
     32 H3          1.7112   -2.1286    3.7472 H         1 <0>         0.1230
     33 H4          3.2460    1.8314    3.3570 H         1 <0>         0.1220
     34 H5          0.9942    2.7436    3.7577 H         1 <0>         0.1280
     35 H6          4.7424   -0.0578    3.6482 H         1 <0>         0.0868
     36 H7          4.1019   -1.7105    3.8116 H         1 <0>         0.0885
     37 H8          3.4242   -1.6623    1.4115 H         1 <0>         0.1247
     38 H9          4.1297   -0.0351    1.2606 H         1 <0>         0.1203
     39 H10         3.9544   -4.0144    1.5765 H         1 <0>         0.1510
     40 H11         5.0200   -6.2049    1.2526 H         1 <0>         0.1573
     41 H12         7.4476   -6.3678    0.8999 H         1 <0>         0.1573
     42 H13         8.8348   -4.3593    0.8662 H         1 <0>         0.1534
     43 H14         5.0341    0.9771    0.4578 H         1 <0>         0.1407
     44 H15         5.2850    3.4168    0.6014 H         1 <0>         0.1518
     45 H16         7.2313    4.3976    1.7350 H         1 <0>         0.1483
     46 H17         8.7033    0.4629    2.6125 H         1 <0>         0.1430
     47 H18        10.0153    2.4425    3.3633 H         1 <0>         0.1475
     48 H19         8.6468    5.0649    2.5603 H         1 <0>         0.1390
     49 H20        10.0145    6.9242    3.3551 H         1 <0>         0.4111
     50 H21        11.8166    7.8811    4.4051 H         1 <0>         0.3941
     51 H22         8.6109   -1.5200    1.1238 H         1 <0>         0.4603
@<TRIPOS>BOND
     1    1    6 ar
     2    1    2 ar
     3    1   30 1
     4    2    3 ar
     5    2   31 1
     6    3    4 ar
     7    3   32 1
     8    4    5 ar
     9    4    7 1
    10    5    6 ar
    11    5   33 1
    12    6   34 1
    13    7    8 1
    14    7   35 1
    15    7   36 1
    16    8    9 1
    17    8   37 1
    18    8   38 1
    19    9   17 1
    20    9   10 1
    21   10   15 ar
    22   10   11 ar
    23   11   12 ar
    24   11   39 1
    25   12   13 ar
    26   12   40 1
    27   13   14 ar
    28   13   41 1
    29   14   15 ar
    30   14   42 1
    31   15   16 1
    32   16   17 2
    33   16   51 1
    34   17   18 1
    35   18   23 ar
    36   18   19 ar
    37   19   20 ar
    38   19   43 1
    39   20   21 ar
    40   20   44 1
    41   21   22 ar
    42   21   45 1
    43   22   23 ar
    44   22   24 1
    45   23   46 1
    46   24   25 2
    47   24   47 1
    48   25   26 1
    49   25   48 1
    50   26   27 2
    51   26   28 am
    52   28   29 1
    53   28   49 1
    54   29   50 1
@<TRIPOS>MOLECULE
CHEMBL1213457
   41    42     0     0     0
SMALL
USER_CHARGES

@<TRIPOS>ATOM
      1 C1         -0.0169    1.3948    0.0097 C.ar      1 <0>        -0.0960
      2 C2          1.1658    2.0986    0.0022 C.ar      1 <0>        -0.0551
      3 C3          2.3850    1.4166   -0.0131 C.ar      1 <0>        -0.1208
      4 C4          2.4051    0.0196   -0.0213 C.ar      1 <0>        -0.0886
      5 C5          1.2235   -0.6861   -0.0142 C.ar      1 <0>        -0.1073
      6 C6          0.0021   -0.0041    0.0020 C.ar      1 <0>        -0.0480
      7 C7         -1.2625   -0.7580    0.0105 C.2       1 <0>        -0.0130
      8 C8         -1.2437   -2.1054    0.0031 C.2       1 <0>        -0.1978
      9 C9         -2.5029   -2.8561    0.0116 C.2       1 <0>         0.5590
     10 O1         -3.5649   -2.2625    0.0253 O.2       1 <0>        -0.5210
     11 N1         -2.4841   -4.2037    0.0042 N.am      1 <0>        -0.5927
     12 O2         -3.7003   -4.9288    0.0124 O.3       1 <0>        -0.3146
     13 C10         3.6545    2.1734   -0.0212 C.2       1 <0>         0.5756
     14 O3          3.6376    3.3894   -0.0145 O.2       1 <0>        -0.4883
     15 N2          4.8310    1.5160   -0.0359 N.am      1 <0>        -0.5830
     16 N3          6.0343    2.2334   -0.0436 N.2       1 <0>        -0.1987
     17 C11         7.1679    1.5998   -0.0578 C.2       1 <0>         0.1023
     18 C12         8.4331    2.3541   -0.0658 C.ar      1 <0>        -0.0810
     19 C13         9.6546    1.6747   -0.0869 C.ar      1 <0>        -0.0658
     20 C14        10.8370    2.3823   -0.0939 C.ar      1 <0>        -0.1442
     21 C15        10.8217    3.7712   -0.0805 C.ar      1 <0>         0.1130
     22 C16         9.6127    4.4580   -0.0599 C.ar      1 <0>         0.0476
     23 C17         8.4164    3.7554   -0.0581 C.ar      1 <0>         0.1394
     24 O4          7.2330    4.4235   -0.0433 O.3       1 <0>        -0.4640
     25 O5          9.6030    5.8189   -0.0468 O.3       1 <0>        -0.4785
     26 O6         11.9927    4.4615   -0.0870 O.3       1 <0>        -0.4854
     27 H1         -0.9592    1.9222    0.0260 H         1 <0>         0.1420
     28 H2          1.1513    3.1785    0.0078 H         1 <0>         0.1454
     29 H3          3.3481   -0.5067   -0.0335 H         1 <0>         0.1283
     30 H4          1.2392   -1.7659   -0.0213 H         1 <0>         0.1367
     31 H5         -2.2052   -0.2312    0.0227 H         1 <0>         0.1443
     32 H6         -0.3010   -2.6323   -0.0091 H         1 <0>         0.1363
     33 H7         -1.6374   -4.6769   -0.0068 H         1 <0>         0.4098
     34 H8         -3.5858   -5.8890    0.0061 H         1 <0>         0.3897
     35 H9          4.8445    0.5461   -0.0413 H         1 <0>         0.3840
     36 H10         7.1830    0.5200   -0.0637 H         1 <0>         0.1248
     37 H11         9.6716    0.5949   -0.0974 H         1 <0>         0.1417
     38 H12        11.7794    1.8550   -0.1095 H         1 <0>         0.1424
     39 H13         6.8989    4.6121    0.8444 H         1 <0>         0.3977
     40 H14         9.5900    6.2206   -0.9263 H         1 <0>         0.3907
     41 H15        12.3216    4.6696   -0.9722 H         1 <0>         0.3932
@<TRIPOS>BOND
     1    1    6 ar
     2    1    2 ar
     3    1   27 1
     4    2    3 ar
     5    2   28 1
     6    3    4 ar
     7    3   13 1
     8    4    5 ar
     9    4   29 1
    10    5    6 ar
    11    5   30 1
    12    6    7 1
    13    7    8 2
    14    7   31 1
    15    8    9 1
    16    8   32 1
    17    9   10 2
    18    9   11 am
    19   11   12 1
    20   11   33 1
    21   12   34 1
    22   13   14 2
    23   13   15 am
    24   15   16 1
    25   15   35 1
    26   16   17 2
    27   17   18 1
    28   17   36 1
    29   18   23 ar
    30   18   19 ar
    31   19   20 ar
    32   19   37 1
    33   20   21 ar
    34   20   38 1
    35   21   22 ar
    36   21   26 1
    37   22   23 ar
    38   22   25 1
    39   23   24 1
    40   24   39 1
    41   25   40 1
    42   26   41 1
@<TRIPOS>MOLECULE
CHEMBL1213458
   37    38     0     0     0
SMALL
USER_CHARGES

@<TRIPOS>ATOM
      1 C1         -0.0231    1.4604    0.0108 C.3       1 <0>         0.0590
      2 N1          0.0014   -0.0043    0.0021 N.pl3     1 <0>        -0.3934
      3 C2         -0.0868   -0.7975   -1.1081 C.2       1 <0>         0.0520
      4 C3         -0.0266   -2.1207   -0.7017 C.2       1 <0>        -0.1683
      5 C4          0.1007   -2.1294    0.6826 C.2       1 <0>        -0.1220
      6 C5          0.1228   -0.8107    1.1073 C.2       1 <0>        -0.0673
      7 C6          0.2464   -0.3703    2.4497 C.2       1 <0>         0.4181
      8 O1          0.2510    0.8174    2.7009 O.2       1 <0>        -0.4565
      9 C7          0.3721   -1.3767    3.5643 C.3       1 <0>        -0.1153
     10 C8          0.4886   -0.6548    4.8821 C.ar      1 <0>        -0.0766
     11 C9          1.7330   -0.2987    5.3675 C.ar      1 <0>        -0.1073
     12 C10         1.8398    0.3634    6.5762 C.ar      1 <0>        -0.1185
     13 C11         0.7022    0.6698    7.2993 C.ar      1 <0>        -0.1189
     14 C12        -0.5422    0.3145    6.8135 C.ar      1 <0>        -0.1186
     15 C13        -0.6493   -0.3438    5.6027 C.ar      1 <0>        -0.1075
     16 C14        -0.2221   -0.3291   -2.4892 C.2       1 <0>         0.0072
     17 C15        -0.4042   -1.2193   -3.4900 C.2       1 <0>        -0.1897
     18 C16        -0.4282   -0.7623   -4.8810 C.2       1 <0>         0.5616
     19 O2         -0.2842    0.4189   -5.1360 O.2       1 <0>        -0.5248
     20 N2         -0.6098   -1.6498   -5.8789 N.am      1 <0>        -0.5915
     21 O3         -0.6330   -1.2079   -7.2240 O.3       1 <0>        -0.3149
     22 H1          0.9983    1.8409    0.0138 H         1 <0>         0.0845
     23 H2         -0.5423    1.8204   -0.8775 H         1 <0>         0.0893
     24 H3         -0.5436    1.8098    0.9024 H         1 <0>         0.1038
     25 H4         -0.0705   -2.9880   -1.3437 H         1 <0>         0.1523
     26 H5          0.1730   -3.0043    1.3118 H         1 <0>         0.1554
     27 H6         -0.5102   -2.0166    3.5773 H         1 <0>         0.1110
     28 H7          1.2611   -1.9868    3.4045 H         1 <0>         0.1111
     29 H8          2.6217   -0.5381    4.8025 H         1 <0>         0.1197
     30 H9          2.8120    0.6410    6.9558 H         1 <0>         0.1224
     31 H10         0.7857    1.1865    8.2441 H         1 <0>         0.1219
     32 H11        -1.4310    0.5536    7.3786 H         1 <0>         0.1224
     33 H12        -1.6218   -0.6181    5.2213 H         1 <0>         0.1197
     34 H13        -0.1764    0.7275   -2.7080 H         1 <0>         0.1387
     35 H14        -0.5321   -2.2675   -3.2638 H         1 <0>         0.1401
     36 H15        -0.7246   -2.5913   -5.6757 H         1 <0>         0.4109
     37 H16        -0.7685   -1.9161   -7.8684 H         1 <0>         0.3898
@<TRIPOS>BOND
     1    1    2 1
     2    1   22 1
     3    1   23 1
     4    1   24 1
     5    2    6 1
     6    2    3 1
     7    3    4 2
     8    3   16 1
     9    4    5 1
    10    4   25 1
    11    5    6 2
    12    5   26 1
    13    6    7 1
    14    7    8 2
    15    7    9 1
    16    9   10 1
    17    9   27 1
    18    9   28 1
    19   10   15 ar
    20   10   11 ar
    21   11   12 ar
    22   11   29 1
    23   12   13 ar
    24   12   30 1
    25   13   14 ar
    26   13   31 1
    27   14   15 ar
    28   14   32 1
    29   15   33 1
    30   16   17 2
    31   16   34 1
    32   17   18 1
    33   17   35 1
    34   18   19 2
    35   18   20 am
    36   20   21 1
    37   20   36 1
    38   21   37 1
@<TRIPOS>MOLECULE
CHEMBL491316
   59    62     0     0     0
SMALL
USER_CHARGES

@<TRIPOS>ATOM
      1 C1         -0.0167    1.3781    0.0096 C.ar      1 <0>        -0.1159
      2 C2          1.1709    2.0855    0.0021 C.ar      1 <0>        -0.1184
      3 C3          2.3773    1.4107   -0.0130 C.ar      1 <0>        -0.1223
      4 C4          2.3960    0.0285   -0.0201 C.ar      1 <0>        -0.0923
      5 C5          1.2084   -0.6789   -0.0117 C.ar      1 <0>        -0.1100
      6 C6          0.0021   -0.0041    0.0020 C.ar      1 <0>        -0.1110
      7 C7          3.7112   -0.7071   -0.0376 C.3       1 <0>        -0.0738
      8 C8          4.1714   -0.9633    1.3989 C.3       1 <0>        -0.0377
      9 C9          5.4865   -1.6989    1.3815 C.2       1 <0>         0.2865
     10 N1          5.6158   -2.9931    1.3680 N.2       1 <0>        -0.4626
     11 C10         6.9349   -3.3186    1.3536 C.ar      1 <0>         0.0501
     12 C11         7.6241   -4.5300    1.3362 C.ar      1 <0>        -0.0243
     13 C12         9.0178   -4.5263    1.3243 C.ar      1 <0>        -0.0763
     14 C13         9.7194   -3.3106    1.3300 C.ar      1 <0>        -0.0724
     15 C14         9.0463   -2.1246    1.3470 C.ar      1 <0>        -0.1179
     16 C15         7.6553   -2.1100    1.3590 C.ar      1 <0>         0.0544
     17 N2          6.7111   -1.1056    1.3716 N.pl3     1 <0>        -0.4944
     18 C16         6.9771    0.3350    1.3768 C.3       1 <0>         0.0924
     19 C17         7.0852    0.8284    2.8210 C.3       1 <0>        -0.0277
     20 N3          7.3519    2.2730    2.8262 N.4       1 <0>        -0.3913
     21 C18         6.1628    3.0152    2.3349 C.3       1 <0>        -0.0143
     22 C19         6.3676    4.4370    2.9153 C.3       1 <0>        -0.1437
     23 C20         6.9731    4.1572    4.3099 C.3       1 <0>        -0.1450
     24 C21         7.5784    2.7448    4.2096 C.3       1 <0>        -0.0075
     25 C22         9.7548   -5.7990    1.3064 C.2       1 <0>        -0.0085
     26 C23        11.1040   -5.7970    1.2949 C.2       1 <0>        -0.2001
     27 C24        11.8372   -7.0630    1.2770 C.2       1 <0>         0.5574
     28 O1         11.2301   -8.1178    1.2725 O.2       1 <0>        -0.5195
     29 N4         13.1849   -7.0610    1.2655 N.am      1 <0>        -0.5929
     30 O2         13.8945   -8.2863    1.2482 O.3       1 <0>        -0.3132
     31 H1         -0.9591    1.9053    0.0259 H         1 <0>         0.1254
     32 H2          1.1563    3.1654    0.0076 H         1 <0>         0.1227
     33 H3          3.3051    1.9634   -0.0196 H         1 <0>         0.1131
     34 H4          1.2231   -1.7588   -0.0176 H         1 <0>         0.1264
     35 H5         -0.9258   -0.5567    0.0082 H         1 <0>         0.1272
     36 H6          3.5884   -1.6586   -0.5549 H         1 <0>         0.0884
     37 H7          4.4573   -0.1052   -0.5563 H         1 <0>         0.0699
     38 H8          4.2941   -0.0118    1.9163 H         1 <0>         0.0778
     39 H9          3.4252   -1.5652    1.9176 H         1 <0>         0.1117
     40 H10         7.0823   -5.4642    1.3322 H         1 <0>         0.1449
     41 H11        10.7993   -3.3145    1.3211 H         1 <0>         0.1405
     42 H12         9.5947   -1.1942    1.3513 H         1 <0>         0.1232
     43 H13         7.9127    0.5336    0.8540 H         1 <0>         0.1128
     44 H14         6.1624    0.8567    0.8746 H         1 <0>         0.1142
     45 H15         6.1497    0.6298    3.3438 H         1 <0>         0.1373
     46 H16         7.8999    0.3067    3.3232 H         1 <0>         0.1380
     47 H17         6.1497    3.0426    1.2453 H         1 <0>         0.1372
     48 H18         5.2454    2.5706    2.7206 H         1 <0>         0.1366
     49 H19         7.0631    5.0082    2.3003 H         1 <0>         0.1001
     50 H20         5.4142    4.9576    3.0061 H         1 <0>         0.1192
     51 H21         7.7504    4.8866    4.5381 H         1 <0>         0.1074
     52 H22         6.1945    4.1819    5.0723 H         1 <0>         0.1056
     53 H23         7.0833    2.0777    4.9152 H         1 <0>         0.1317
     54 H24         8.6475    2.7833    4.4184 H         1 <0>         0.1349
     55 H25         9.2161   -6.7350    1.3024 H         1 <0>         0.1443
     56 H26        11.6427   -4.8610    1.2989 H         1 <0>         0.1341
     57 H27        13.6688   -6.2203    1.2691 H         1 <0>         0.4087
     58 H28        14.8561   -8.1838    1.2410 H         1 <0>         0.3908
     59 H29         8.1550    2.4811    2.2518 H         1 <0>         0.4284
@<TRIPOS>BOND
     1    1    6 ar
     2    1    2 ar
     3    1   31 1
     4    2    3 ar
     5    2   32 1
     6    3    4 ar
     7    3   33 1
     8    4    5 ar
     9    4    7 1
    10    5    6 ar
    11    5   34 1
    12    6   35 1
    13    7    8 1
    14    7   36 1
    15    7   37 1
    16    8    9 1
    17    8   38 1
    18    8   39 1
    19    9   17 1
    20    9   10 2
    21   10   11 1
    22   11   16 ar
    23   11   12 ar
    24   12   13 ar
    25   12   40 1
    26   13   14 ar
    27   13   25 1
    28   14   15 ar
    29   14   41 1
    30   15   16 ar
    31   15   42 1
    32   16   17 1
    33   17   18 1
    34   18   19 1
    35   18   43 1
    36   18   44 1
    37   19   20 1
    38   19   45 1
    39   19   46 1
    40   20   24 1
    41   20   21 1
    42   20   59 1
    43   21   22 1
    44   21   47 1
    45   21   48 1
    46   22   23 1
    47   22   49 1
    48   22   50 1
    49   23   24 1
    50   23   51 1
    51   23   52 1
    52   24   53 1
    53   24   54 1
    54   25   26 2
    55   25   55 1
    56   26   27 1
    57   26   56 1
    58   27   28 2
    59   27   29 am
    60   29   30 1
    61   29   57 1
    62   30   58 1
@<TRIPOS>MOLECULE
CHEMBL314389
   38    39     0     0     0
SMALL
USER_CHARGES

@<TRIPOS>ATOM
      1 C1          7.0263   -5.2098   -0.1920 C.ar      1 <0>        -0.0600
      2 C2          5.6554   -5.2650   -0.3603 C.ar      1 <0>        -0.1391
      3 C3          4.9057   -4.1046   -0.3110 C.ar      1 <0>        -0.0166
      4 C4          5.5269   -2.8891   -0.0931 C.ar      1 <0>        -0.6764
      5 C5          6.8978   -2.8340    0.0761 C.ar      1 <0>        -0.0195
      6 C6          7.6476   -3.9942    0.0254 C.ar      1 <0>        -0.1400
      7 S1          4.5715   -1.4099   -0.0314 S.o2      1 <0>         2.6879
      8 O1          5.4178   -0.3607   -0.4810 O.2       1 <0>        -0.9492
      9 O2          3.3273   -1.7039   -0.6518 O.2       1 <0>        -0.9450
     10 N1          4.2448   -1.1042    1.5630 N.pl3     1 <0>        -1.0632
     11 C7          3.4415   -1.9786    2.2888 C.ar      1 <0>         0.1359
     12 C8          2.0645   -1.9898    2.0820 C.ar      1 <0>        -0.1022
     13 C9          1.2692   -2.8495    2.7947 C.ar      1 <0>        -0.0801
     14 C10         1.8439   -3.7176    3.7321 C.ar      1 <0>         0.0130
     15 C11         3.2297   -3.7027    3.9367 C.ar      1 <0>        -0.0824
     16 C12         4.0178   -2.8436    3.2154 C.ar      1 <0>        -0.1100
     17 C13         1.0172   -4.6170    4.4793 C.1       1 <0>        -0.0837
     18 C14         0.3395   -5.3544    5.0918 C.1       1 <0>        -0.1401
     19 C15        -0.4872   -6.2538    5.8390 C.2       1 <0>         0.0691
     20 C16         0.0722   -7.0946    6.7474 C.2       1 <0>        -0.1932
     21 C17        -0.7447   -7.9834    7.4857 C.2       1 <0>         0.5642
     22 O3         -1.9492   -7.9945    7.3067 O.2       1 <0>        -0.5230
     23 N2         -0.1897   -8.8177    8.3871 N.am      1 <0>        -0.5929
     24 O4         -1.0071   -9.7071    9.1259 O.3       1 <0>        -0.3142
     25 H1          7.6115   -6.1169   -0.2261 H         1 <0>         0.1325
     26 H2          5.1700   -6.2146   -0.5306 H         1 <0>         0.1341
     27 H3          3.8347   -4.1477   -0.4432 H         1 <0>         0.1410
     28 H4          7.3832   -1.8843    0.2460 H         1 <0>         0.1393
     29 H5          8.7187   -3.9511    0.1572 H         1 <0>         0.1345
     30 H6          4.6133   -0.3156    1.9910 H         1 <0>         0.4285
     31 H7          1.6223   -1.3200    1.3594 H         1 <0>         0.1438
     32 H8          0.2012   -2.8573    2.6340 H         1 <0>         0.1378
     33 H9          3.6770   -4.3702    4.6584 H         1 <0>         0.1359
     34 H10         5.0867   -2.8345    3.3693 H         1 <0>         0.1365
     35 H11        -1.5554   -6.2637    5.6802 H         1 <0>         0.1590
     36 H12         1.1404   -7.0848    6.9062 H         1 <0>         0.1371
     37 H13         0.7698   -8.8088    8.5297 H         1 <0>         0.4107
     38 H14        -0.5196  -10.2652    9.7472 H         1 <0>         0.3898
@<TRIPOS>BOND
     1    1    6 ar
     2    1    2 ar
     3    1   25 1
     4    2    3 ar
     5    2   26 1
     6    3    4 ar
     7    3   27 1
     8    4    5 ar
     9    4    7 1
    10    5    6 ar
    11    5   28 1
    12    6   29 1
    13    7    8 2
    14    7    9 2
    15    7   10 1
    16   10   11 1
    17   10   30 1
    18   11   16 ar
    19   11   12 ar
    20   12   13 ar
    21   12   31 1
    22   13   14 ar
    23   13   32 1
    24   14   15 ar
    25   14   17 1
    26   15   16 ar
    27   15   33 1
    28   16   34 1
    29   17   18 3
    30   18   19 1
    31   19   20 2
    32   19   35 1
    33   20   21 1
    34   20   36 1
    35   21   22 2
    36   21   23 am
    37   23   24 1
    38   23   37 1
    39   24   38 1
@<TRIPOS>MOLECULE
CHEMBL314389__1
   37    38     0     0     0
SMALL
USER_CHARGES

@<TRIPOS>ATOM
      1 C1         -0.0167    1.3781    0.0096 C.ar      1 <0>        -0.0829
      2 C2          1.1709    2.0855    0.0021 C.ar      1 <0>        -0.1472
      3 C3          2.3773    1.4107   -0.0130 C.ar      1 <0>        -0.0246
      4 C4          2.3960    0.0285   -0.0201 C.ar      1 <0>        -0.6170
      5 C5          1.2084   -0.6789   -0.0117 C.ar      1 <0>        -0.0246
      6 C6          0.0021   -0.0041    0.0020 C.ar      1 <0>        -0.1472
      7 S1          3.9337   -0.8316   -0.0405 S.o2      1 <0>         2.6054
      8 O1          3.6744   -2.1140   -0.5951 O.2       1 <0>        -1.0241
      9 O2          4.8903    0.0598   -0.5970 O.2       1 <0>        -1.0242
     10 N1          4.3776   -1.0785    1.5357 N.2       1 <0>        -1.0786
     11 C7          5.5651   -1.7425    1.8283 C.ar      1 <0>         0.3089
     12 C8          6.3812   -2.1933    0.7941 C.ar      1 <0>        -0.2725
     13 C9          7.5520   -2.8479    1.0776 C.ar      1 <0>        -0.0145
     14 C10         7.9267   -3.0630    2.4102 C.ar      1 <0>        -0.1479
     15 C11         7.1024   -2.6076    3.4474 C.ar      1 <0>        -0.0318
     16 C12         5.9362   -1.9490    3.1544 C.ar      1 <0>        -0.1883
     17 C13         9.1484   -3.7466    2.7114 C.1       1 <0>         0.0038
     18 C14        10.1500   -4.3071    2.9582 C.1       1 <0>        -0.2551
     19 C15        11.3717   -4.9908    3.2593 C.2       1 <0>         0.1167
     20 C16        11.7330   -5.1982    4.5522 C.2       1 <0>        -0.2456
     21 C17        12.9403   -5.8738    4.8497 C.2       1 <0>         0.5724
     22 O3         13.6553   -6.2692    3.9467 O.2       1 <0>        -0.5354
     23 N2         13.2988   -6.0796    6.1325 N.am      1 <0>        -0.5977
     24 O4         14.5069   -6.7556    6.4303 O.3       1 <0>        -0.3199
     25 H1         -0.9591    1.9053    0.0259 H         1 <0>         0.1236
     26 H2          1.1563    3.1654    0.0076 H         1 <0>         0.1263
     27 H3          3.3051    1.9634   -0.0196 H         1 <0>         0.1364
     28 H4          1.2231   -1.7588   -0.0176 H         1 <0>         0.1364
     29 H5         -0.9258   -0.5567    0.0082 H         1 <0>         0.1263
     30 H6          6.0913   -2.0274   -0.2329 H         1 <0>         0.1052
     31 H7          8.1842   -3.1976    0.2749 H         1 <0>         0.1113
     32 H8          7.3873   -2.7712    4.4762 H         1 <0>         0.1130
     33 H9          5.3023   -1.5937    3.9533 H         1 <0>         0.1211
     34 H10        12.0058   -5.3415    2.4585 H         1 <0>         0.1470
     35 H11        11.0990   -4.8475    5.3530 H         1 <0>         0.1313
     36 H12        12.7293   -5.7646    6.8518 H         1 <0>         0.4092
     37 H13        14.6787   -6.8556    7.3766 H         1 <0>         0.3847
@<TRIPOS>BOND
     1    1    6 ar
     2    1    2 ar
     3    1   25 1
     4    2    3 ar
     5    2   26 1
     6    3    4 ar
     7    3   27 1
     8    4    5 ar
     9    4    7 1
    10    5    6 ar
    11    5   28 1
    12    6   29 1
    13    7    8 2
    14    7    9 2
    15    7   10 1
    16   10   11 1
    17   11   16 ar
    18   11   12 ar
    19   12   13 ar
    20   12   30 1
    21   13   14 ar
    22   13   31 1
    23   14   15 ar
    24   14   17 1
    25   15   16 ar
    26   15   32 1
    27   16   33 1
    28   17   18 3
    29   18   19 1
    30   19   20 2
    31   19   34 1
    32   20   21 1
    33   20   35 1
    34   21   22 2
    35   21   23 am
    36   23   24 1
    37   23   36 1
    38   24   37 1
@<TRIPOS>MOLECULE
CHEMBL126289
   49    51     0     0     0
SMALL
USER_CHARGES

@<TRIPOS>ATOM
      1 C1          1.0610    1.3824    3.0090 C.ar      1 <0>        -0.1182
      2 C2          1.9762    2.0944    2.2549 C.ar      1 <0>        -0.1171
      3 C3          2.9201    1.4275    1.5004 C.ar      1 <0>        -0.1092
      4 C4          2.9502    0.0345    1.4997 C.ar      1 <0>        -0.0457
      5 C5          2.0262   -0.6777    2.2616 C.ar      1 <0>        -0.1109
      6 C6          1.0864   -0.0006    3.0120 C.ar      1 <0>        -0.1177
      7 C7          3.9624   -0.6881    0.6900 C.ar      1 <0>        -0.0265
      8 C8          4.8899    0.0251   -0.0677 C.ar      1 <0>        -0.1247
      9 C9          5.8309   -0.6484   -0.8204 C.ar      1 <0>        -0.0962
     10 C10         5.8573   -2.0303   -0.8257 C.ar      1 <0>        -0.1190
     11 C11         4.9371   -2.7492   -0.0731 C.ar      1 <0>         0.1493
     12 C12         3.9919   -2.0798    0.6898 C.ar      1 <0>        -0.1380
     13 N1          4.9666   -4.1483   -0.0813 N.am      1 <0>        -0.6778
     14 C13         6.1422   -4.7968   -0.1994 C.2       1 <0>         0.5112
     15 O1          7.1818   -4.1721   -0.2022 O.2       1 <0>        -0.5154
     16 C14         6.1650   -6.2981   -0.3279 C.3       1 <0>        -0.1394
     17 C15         7.6129   -6.7780   -0.4463 C.3       1 <0>        -0.1065
     18 C16         7.6360   -8.3022   -0.5768 C.3       1 <0>        -0.1188
     19 C17         9.0840   -8.7821   -0.6952 C.3       1 <0>        -0.1152
     20 C18         9.1071  -10.3063   -0.8257 C.3       1 <0>        -0.1391
     21 C19        10.5333  -10.7790   -0.9423 C.2       1 <0>         0.4496
     22 O2         11.4421   -9.9755   -0.9230 O.2       1 <0>        -0.4218
     23 C20        10.8225  -12.2096   -1.0791 C.2       1 <0>         0.0978
     24 N2          9.9282  -13.1737   -1.1186 N.2       1 <0>        -0.4201
     25 C21        10.5611  -14.3385   -1.2500 C.2       1 <0>        -0.0443
     26 C22        11.8917  -14.0860   -1.2933 C.2       1 <0>        -0.0392
     27 O3         12.0477  -12.7568   -1.1913 O.3       1 <0>        -0.1706
     28 H1          0.3268    1.9083    3.6012 H         1 <0>         0.1234
     29 H2          1.9520    3.1741    2.2562 H         1 <0>         0.1252
     30 H3          3.6338    1.9843    0.9113 H         1 <0>         0.1265
     31 H4          2.0449   -1.7575    2.2643 H         1 <0>         0.1238
     32 H5          0.3697   -0.5515    3.6029 H         1 <0>         0.1245
     33 H6          4.8720    1.1050   -0.0663 H         1 <0>         0.1272
     34 H7          6.5483   -0.0939   -1.4071 H         1 <0>         0.1293
     35 H8          6.5950   -2.5526   -1.4167 H         1 <0>         0.1351
     36 H9          3.2780   -2.6367    1.2786 H         1 <0>         0.1282
     37 H10         4.1411   -4.6513   -0.0019 H         1 <0>         0.4115
     38 H11         5.7050   -6.7452    0.5534 H         1 <0>         0.0975
     39 H12         5.6098   -6.5951   -1.2177 H         1 <0>         0.0988
     40 H13         8.0729   -6.3309   -1.3276 H         1 <0>         0.0728
     41 H14         8.1680   -6.4810    0.4435 H         1 <0>         0.0729
     42 H15         7.1760   -8.7493    0.3045 H         1 <0>         0.0673
     43 H16         7.0809   -8.5992   -1.4666 H         1 <0>         0.0674
     44 H17         9.5440   -8.3350   -1.5765 H         1 <0>         0.0734
     45 H18         9.6391   -8.4851    0.1946 H         1 <0>         0.0734
     46 H19         8.6471  -10.7534    0.0556 H         1 <0>         0.1114
     47 H20         8.5520  -10.6033   -1.7155 H         1 <0>         0.1114
     48 H21        10.0962  -15.3114   -1.3107 H         1 <0>         0.1960
     49 H22        12.6797  -14.8176   -1.3944 H         1 <0>         0.2264
@<TRIPOS>BOND
     1    1    6 ar
     2    1    2 ar
     3    1   28 1
     4    2    3 ar
     5    2   29 1
     6    3    4 ar
     7    3   30 1
     8    4    5 ar
     9    4    7 1
    10    5    6 ar
    11    5   31 1
    12    6   32 1
    13    7   12 ar
    14    7    8 ar
    15    8    9 ar
    16    8   33 1
    17    9   10 ar
    18    9   34 1
    19   10   11 ar
    20   10   35 1
    21   11   12 ar
    22   11   13 1
    23   12   36 1
    24   13   14 am
    25   13   37 1
    26   14   15 2
    27   14   16 1
    28   16   17 1
    29   16   38 1
    30   16   39 1
    31   17   18 1
    32   17   40 1
    33   17   41 1
    34   18   19 1
    35   18   42 1
    36   18   43 1
    37   19   20 1
    38   19   44 1
    39   19   45 1
    40   20   21 1
    41   20   46 1
    42   20   47 1
    43   21   22 2
    44   21   23 1
    45   23   27 1
    46   23   24 2
    47   24   25 1
    48   25   26 2
    49   25   48 1
    50   26   27 1
    51   26   49 1
@<TRIPOS>MOLECULE
CHEMBL347068
   37    38     0     0     0
SMALL
USER_CHARGES

@<TRIPOS>ATOM
      1 C1         -0.0167    1.3817    0.0096 C.ar      1 <0>        -0.0805
      2 C2          1.1926    2.0594    0.0017 C.ar      1 <0>        -0.1472
      3 C3          2.3754    1.3379   -0.0134 C.ar      1 <0>         0.0986
      4 N1          2.3644    0.0228   -0.0204 N.ar      1 <0>        -0.4607
      5 C4          1.2288   -0.6641   -0.0132 C.ar      1 <0>         0.0745
      6 C5          0.0021   -0.0041    0.0020 C.ar      1 <0>        -0.1101
      7 C6          1.2661   -2.1453   -0.0216 C.2       1 <0>         0.5726
      8 O1          0.2294   -2.7792   -0.0151 O.2       1 <0>        -0.5301
      9 N2          2.4498   -2.7895   -0.0363 N.am      1 <0>        -0.7077
     10 C7          2.4866   -4.2540   -0.0445 C.3       1 <0>         0.1569
     11 C8          3.9196   -4.7204   -0.0607 C.ar      1 <0>        -0.0962
     12 C9          4.5644   -4.9216   -1.2687 C.ar      1 <0>        -0.1000
     13 C10         5.8753   -5.3486   -1.2918 C.ar      1 <0>        -0.0912
     14 C11         6.5533   -5.5781   -0.0905 C.ar      1 <0>        -0.0705
     15 C12         5.8950   -5.3721    1.1259 C.ar      1 <0>        -0.1003
     16 C13         4.5856   -4.9399    1.1325 C.ar      1 <0>        -0.1004
     17 C14         7.9527   -6.0345   -0.1063 C.2       1 <0>        -0.0057
     18 C15         8.6031   -6.2547    1.0538 C.2       1 <0>        -0.2075
     19 C16         9.9951   -6.7087    1.0381 C.2       1 <0>         0.5603
     20 O2         10.5649   -6.8874   -0.0223 O.2       1 <0>        -0.5240
     21 N3         10.6453   -6.9288    2.1980 N.am      1 <0>        -0.5933
     22 O3         11.9914   -7.3679    2.1827 O.3       1 <0>        -0.3156
     23 H1         -0.9521    1.9212    0.0259 H         1 <0>         0.1445
     24 H2          1.2125    3.1392    0.0070 H         1 <0>         0.1430
     25 H3          3.3193    1.8627   -0.0200 H         1 <0>         0.1649
     26 H4         -0.9212   -0.5643    0.0082 H         1 <0>         0.1494
     27 H5          3.2773   -2.2835   -0.0415 H         1 <0>         0.4135
     28 H6          1.9906   -4.6350    0.8482 H         1 <0>         0.0818
     29 H7          1.9736   -4.6254   -0.9317 H         1 <0>         0.0821
     30 H8          4.0394   -4.7439   -2.1956 H         1 <0>         0.1305
     31 H9          6.3770   -5.5058   -2.2352 H         1 <0>         0.1333
     32 H10         6.4119   -5.5475    2.0578 H         1 <0>         0.1308
     33 H11         4.0771   -4.7761    2.0711 H         1 <0>         0.1296
     34 H12         8.4584   -6.1931   -1.0473 H         1 <0>         0.1407
     35 H13         8.0974   -6.0961    1.9949 H         1 <0>         0.1352
     36 H14        10.1911   -6.7864    3.0431 H         1 <0>         0.4097
     37 H15        12.3725   -7.4983    3.0618 H         1 <0>         0.3892
@<TRIPOS>BOND
     1    1    6 ar
     2    1    2 ar
     3    1   23 1
     4    2    3 ar
     5    2   24 1
     6    3    4 ar
     7    3   25 1
     8    4    5 ar
     9    5    6 ar
    10    5    7 1
    11    6   26 1
    12    7    8 2
    13    7    9 am
    14    9   10 1
    15    9   27 1
    16   10   11 1
    17   10   28 1
    18   10   29 1
    19   11   16 ar
    20   11   12 ar
    21   12   13 ar
    22   12   30 1
    23   13   14 ar
    24   13   31 1
    25   14   15 ar
    26   14   17 1
    27   15   16 ar
    28   15   32 1
    29   16   33 1
    30   17   18 2
    31   17   34 1
    32   18   19 1
    33   18   35 1
    34   19   20 2
    35   19   21 am
    36   21   22 1
    37   21   36 1
    38   22   37 1
@<TRIPOS>MOLECULE
CHEMBL162344
   50    51     0     0     0
SMALL
USER_CHARGES

@<TRIPOS>ATOM
      1 C1         -0.0167    1.3781    0.0096 C.ar      1 <0>        -0.1076
      2 C2          1.1709    2.0855    0.0021 C.ar      1 <0>        -0.1229
      3 C3          2.3773    1.4107   -0.0130 C.ar      1 <0>        -0.0947
      4 C4          2.3960    0.0285   -0.0201 C.ar      1 <0>        -0.1007
      5 C5          1.2084   -0.6789   -0.0117 C.ar      1 <0>        -0.0946
      6 C6          0.0021   -0.0041    0.0020 C.ar      1 <0>        -0.1228
      7 C7          3.7112   -0.7071   -0.0376 C.3       1 <0>         0.0998
      8 O1          4.1410   -0.9464    1.3041 O.3       1 <0>        -0.3037
      9 C8          5.3170   -1.6040    1.4663 C.ar      1 <0>         0.1596
     10 C9          6.0456   -2.0059    0.3530 C.ar      1 <0>        -0.2192
     11 C10         7.2393   -2.6735    0.5134 C.ar      1 <0>        -0.0148
     12 C11         7.7180   -2.9463    1.7975 C.ar      1 <0>        -0.1793
     13 C12         6.9827   -2.5401    2.9141 C.ar      1 <0>        -0.0444
     14 C13         5.7923   -1.8688    2.7453 C.ar      1 <0>        -0.1592
     15 C14         8.9968   -3.6620    1.9739 C.2       1 <0>         0.5630
     16 O2          9.6351   -4.0150    1.0012 O.2       1 <0>        -0.5394
     17 N1          9.4569   -3.9242    3.2133 N.am      1 <0>        -0.7295
     18 C15        10.7261   -4.6345    3.3884 C.3       1 <0>         0.1186
     19 C16        11.0150   -4.8021    4.8815 C.3       1 <0>        -0.1330
     20 C17        12.3406   -5.5439    5.0644 C.3       1 <0>        -0.1164
     21 C18        12.6295   -5.7114    6.5575 C.3       1 <0>        -0.1055
     22 C19        13.9551   -6.4533    6.7403 C.3       1 <0>        -0.1272
     23 C20        14.2396   -6.6183    8.2110 C.2       1 <0>         0.5212
     24 O3         13.4591   -6.1852    9.0320 O.2       1 <0>        -0.5194
     25 N2         15.3615   -7.2472    8.6139 N.am      1 <0>        -0.6000
     26 O4         15.6289   -7.4022    9.9957 O.3       1 <0>        -0.3205
     27 H1         -0.9591    1.9053    0.0259 H         1 <0>         0.1255
     28 H2          1.1563    3.1654    0.0076 H         1 <0>         0.1265
     29 H3          3.3051    1.9634   -0.0196 H         1 <0>         0.1247
     30 H4          1.2231   -1.7588   -0.0176 H         1 <0>         0.1247
     31 H5         -0.9258   -0.5567    0.0082 H         1 <0>         0.1265
     32 H6          3.5884   -1.6586   -0.5549 H         1 <0>         0.0754
     33 H7          4.4573   -0.1052   -0.5563 H         1 <0>         0.0754
     34 H8          5.6750   -1.7947   -0.6392 H         1 <0>         0.1361
     35 H9          7.8046   -2.9861   -0.3522 H         1 <0>         0.1399
     36 H10         7.3494   -2.7491    3.9083 H         1 <0>         0.1328
     37 H11         5.2254   -1.5510    3.6079 H         1 <0>         0.1386
     38 H12         8.9476   -3.6425    3.9893 H         1 <0>         0.4001
     39 H13        10.6611   -5.6159    2.9186 H         1 <0>         0.0695
     40 H14        11.5297   -4.0623    2.9248 H         1 <0>         0.0695
     41 H15        11.0801   -3.8207    5.3513 H         1 <0>         0.0721
     42 H16        10.2115   -5.3743    5.3451 H         1 <0>         0.0722
     43 H17        12.2755   -6.5253    4.5945 H         1 <0>         0.0691
     44 H18        13.1442   -4.9717    4.6007 H         1 <0>         0.0691
     45 H19        12.6946   -4.7301    7.0273 H         1 <0>         0.0742
     46 H20        11.8259   -6.2836    7.0211 H         1 <0>         0.0742
     47 H21        13.8900   -7.4347    6.2705 H         1 <0>         0.1002
     48 H22        14.7586   -5.8811    6.2767 H         1 <0>         0.1002
     49 H23        15.9858   -7.5936    7.9572 H         1 <0>         0.4084
     50 H24        16.4560   -7.8654   10.1868 H         1 <0>         0.3880
@<TRIPOS>BOND
     1    1    6 ar
     2    1    2 ar
     3    1   27 1
     4    2    3 ar
     5    2   28 1
     6    3    4 ar
     7    3   29 1
     8    4    5 ar
     9    4    7 1
    10    5    6 ar
    11    5   30 1
    12    6   31 1
    13    7    8 1
    14    7   32 1
    15    7   33 1
    16    8    9 1
    17    9   14 ar
    18    9   10 ar
    19   10   11 ar
    20   10   34 1
    21   11   12 ar
    22   11   35 1
    23   12   13 ar
    24   12   15 1
    25   13   14 ar
    26   13   36 1
    27   14   37 1
    28   15   16 2
    29   15   17 am
    30   17   18 1
    31   17   38 1
    32   18   19 1
    33   18   39 1
    34   18   40 1
    35   19   20 1
    36   19   41 1
    37   19   42 1
    38   20   21 1
    39   20   43 1
    40   20   44 1
    41   21   22 1
    42   21   45 1
    43   21   46 1
    44   22   23 1
    45   22   47 1
    46   22   48 1
    47   23   24 2
    48   23   25 am
    49   25   26 1
    50   25   49 1
    51   26   50 1
@<TRIPOS>MOLECULE
CHEMBL423515
   42    43     0     0     0
SMALL
USER_CHARGES

@<TRIPOS>ATOM
      1 C1          1.0719   -0.4531   -0.7661 C.ar      1 <0>        -0.1099
      2 C2          2.2561    0.2574   -0.7783 C.ar      1 <0>        -0.0891
      3 C3          2.3770    1.4161   -0.0315 C.ar      1 <0>        -0.0512
      4 C4          1.3121    1.8662    0.7291 C.ar      1 <0>        -0.0894
      5 C5          0.1257    1.1594    0.7448 C.ar      1 <0>        -0.1351
      6 C6          0.0017   -0.0036   -0.0037 C.ar      1 <0>         0.1514
      7 N1         -1.1998   -0.7216    0.0101 N.am      1 <0>        -0.6774
      8 C7         -1.1834   -2.0648   -0.0990 C.2       1 <0>         0.5120
      9 O1         -0.1263   -2.6593   -0.1129 O.2       1 <0>        -0.5148
     10 C8         -2.4786   -2.8281   -0.2038 C.3       1 <0>        -0.1399
     11 C9         -2.1810   -4.3246   -0.3162 C.3       1 <0>        -0.1062
     12 C10        -3.4959   -5.0996   -0.4225 C.3       1 <0>        -0.1204
     13 C11        -3.1983   -6.5961   -0.5349 C.3       1 <0>        -0.1196
     14 C12        -4.5132   -7.3710   -0.6413 C.3       1 <0>        -0.1144
     15 C13        -4.2156   -8.8676   -0.7537 C.3       1 <0>        -0.1403
     16 C14        -5.5107   -9.6309   -0.8585 C.2       1 <0>         0.4510
     17 O2         -6.5682   -9.0362   -0.8446 O.2       1 <0>        -0.4240
     18 C15        -5.4930  -11.0919   -0.9771 C.2       1 <0>         0.0970
     19 N2         -4.4164  -11.8478   -0.9978 N.2       1 <0>        -0.4193
     20 C16        -4.7905  -13.1210   -1.1152 C.2       1 <0>        -0.0441
     21 C17        -6.1441  -13.1533   -1.1691 C.2       1 <0>        -0.0391
     22 O3         -6.5760  -11.8858   -1.0774 O.3       1 <0>        -0.1709
     23 Cl1         3.8673    2.3062   -0.0482 Cl        1 <0>        -0.0686
     24 H1          0.9766   -1.3551   -1.3523 H         1 <0>         0.1432
     25 H2          3.0887   -0.0918   -1.3710 H         1 <0>         0.1376
     26 H3          1.4090    2.7708    1.3111 H         1 <0>         0.1382
     27 H4         -0.7049    1.5108    1.3391 H         1 <0>         0.1357
     28 H5         -2.0441   -0.2524    0.0982 H         1 <0>         0.4136
     29 H6         -3.0821   -2.6434    0.6849 H         1 <0>         0.0980
     30 H7         -3.0239   -2.4987   -1.0882 H         1 <0>         0.0992
     31 H8         -1.5775   -4.5093   -1.2049 H         1 <0>         0.0718
     32 H9         -1.6356   -4.6540    0.5682 H         1 <0>         0.0719
     33 H10        -4.0994   -4.9149    0.4662 H         1 <0>         0.0648
     34 H11        -4.0412   -4.7701   -1.3069 H         1 <0>         0.0648
     35 H12        -2.5948   -6.7808   -1.4236 H         1 <0>         0.0670
     36 H13        -2.6529   -6.9255    0.3495 H         1 <0>         0.0670
     37 H14        -5.1167   -7.1864    0.2474 H         1 <0>         0.0717
     38 H15        -5.0586   -7.0416   -1.5257 H         1 <0>         0.0718
     39 H16        -3.6121   -9.0523   -1.6424 H         1 <0>         0.1116
     40 H17        -3.6702   -9.1970    0.1307 H         1 <0>         0.1117
     41 H18        -4.1318  -13.9757   -1.1602 H         1 <0>         0.1961
     42 H19        -6.7606  -14.0349   -1.2645 H         1 <0>         0.2265
@<TRIPOS>BOND
     1    1    6 ar
     2    1    2 ar
     3    1   24 1
     4    2    3 ar
     5    2   25 1
     6    3    4 ar
     7    3   23 1
     8    4    5 ar
     9    4   26 1
    10    5    6 ar
    11    5   27 1
    12    6    7 1
    13    7    8 am
    14    7   28 1
    15    8    9 2
    16    8   10 1
    17   10   11 1
    18   10   29 1
    19   10   30 1
    20   11   12 1
    21   11   31 1
    22   11   32 1
    23   12   13 1
    24   12   33 1
    25   12   34 1
    26   13   14 1
    27   13   35 1
    28   13   36 1
    29   14   15 1
    30   14   37 1
    31   14   38 1
    32   15   16 1
    33   15   39 1
    34   15   40 1
    35   16   17 2
    36   16   18 1
    37   18   22 1
    38   18   19 2
    39   19   20 1
    40   20   21 2
    41   20   41 1
    42   21   22 1
    43   21   42 1
@<TRIPOS>MOLECULE
CHEMBL143329
   68    71     0     0     0
SMALL
USER_CHARGES

@<TRIPOS>ATOM
      1 C1          0.7959    1.4116   -0.0843 C.ar      1 <0>        -0.1323
      2 C2          2.0856    1.8818    0.1232 C.ar      1 <0>        -0.0934
      3 C3          3.1083    1.0134    0.4353 C.ar      1 <0>        -0.1217
      4 C4          2.8488   -0.3490    0.5447 C.ar      1 <0>         0.0947
      5 C5          1.5402   -0.8203    0.3339 C.ar      1 <0>        -0.0996
      6 C6          0.5187    0.0777    0.0180 C.ar      1 <0>        -0.0839
      7 C7          1.5983   -2.2723    0.5188 C.2       1 <0>        -0.2037
      8 C8          2.8710   -2.5796    0.8150 C.2       1 <0>         0.0844
      9 N1          3.6327   -1.4431    0.8350 N.pl3     1 <0>        -0.5876
     10 H1          4.5833   -1.4126    1.0256 H         1 <0>         0.4229
     11 C9          0.4474   -3.2379    0.3995 C.3       1 <0>        -0.0559
     12 C10         0.2467   -3.6131   -1.0701 C.3       1 <0>        -0.0165
     13 N2         -0.7861   -4.6527   -1.1735 N.4       1 <0>        -0.3853
     14 C11        -0.8919   -5.1008   -2.5684 C.3       1 <0>        -0.0078
     15 C12         0.4125   -5.7833   -2.9852 C.3       1 <0>         0.0548
     16 O1          0.5928   -6.9752   -2.2178 O.3       1 <0>        -0.3806
     17 C13         1.7011   -7.6989   -2.4639 C.2       1 <0>         0.6502
     18 O2          2.4937   -7.3285   -3.3072 O.2       1 <0>        -0.5541
     19 N3          1.9316   -8.8341   -1.7749 N.am      1 <0>        -0.6967
     20 C14         3.1376   -9.6215   -2.0427 C.3       1 <0>         0.2094
     21 C15         3.1563  -10.8324   -1.1459 C.2       1 <0>        -0.2185
     22 C16         3.7239  -10.9151    0.1464 C.2       1 <0>        -0.2028
     23 C17         3.5160  -12.1701    0.5837 C.2       1 <0>        -0.0303
     24 O3          2.8564  -12.8480   -0.3698 O.3       1 <0>        -0.1695
     25 C18         2.6311  -12.0403   -1.4189 C.2       1 <0>        -0.0006
     26 C19        -2.0771   -4.1055   -0.7357 C.3       1 <0>         0.0371
     27 C20        -3.1067   -5.2057   -0.7111 C.ar      1 <0>        -0.1521
     28 C21        -3.9411   -5.3921   -1.7995 C.ar      1 <0>        -0.0935
     29 C22        -4.8859   -6.3963   -1.7845 C.ar      1 <0>        -0.0908
     30 C23        -4.9994   -7.2278   -0.6659 C.ar      1 <0>        -0.0320
     31 C24        -4.1524   -7.0334    0.4297 C.ar      1 <0>        -0.1009
     32 C25        -3.2091   -6.0281    0.3973 C.ar      1 <0>        -0.0919
     33 C26        -6.0057   -8.3019   -0.6415 C.2       1 <0>        -0.0345
     34 C27        -6.1122   -9.1014    0.4386 C.2       1 <0>        -0.1761
     35 C28        -7.1131  -10.1699    0.4628 C.2       1 <0>         0.5541
     36 O4         -7.8490  -10.3360   -0.4921 O.2       1 <0>        -0.5159
     37 N4         -7.2196  -10.9692    1.5427 N.am      1 <0>        -0.5903
     38 O5         -8.1876  -12.0024    1.5661 O.3       1 <0>        -0.3110
     39 H2          0.0046    2.1063   -0.3242 H         1 <0>         0.1269
     40 H3          2.2892    2.9391    0.0387 H         1 <0>         0.1312
     41 H4          4.1084    1.3889    0.5942 H         1 <0>         0.1252
     42 H5         -0.4870   -0.2808   -0.1445 H         1 <0>         0.1181
     43 H6          3.2393   -3.5763    1.0085 H         1 <0>         0.1714
     44 H7          0.6654   -4.1361    0.9773 H         1 <0>         0.0892
     45 H8         -0.4599   -2.7708    0.7824 H         1 <0>         0.0934
     46 H9         -0.0670   -2.7323   -1.6304 H         1 <0>         0.1351
     47 H10         1.1837   -3.9898   -1.4802 H         1 <0>         0.1308
     48 H11        -1.7172   -5.8067   -2.6616 H         1 <0>         0.1439
     49 H12        -1.0744   -4.2413   -3.2133 H         1 <0>         0.1536
     50 H13         0.3678   -6.0364   -4.0444 H         1 <0>         0.1157
     51 H14         1.2490   -5.1072   -2.8081 H         1 <0>         0.0945
     52 H15         1.2989   -9.1297   -1.1017 H         1 <0>         0.4098
     53 H16         3.1389   -9.9410   -3.0848 H         1 <0>         0.0854
     54 H17         4.0201   -9.0119   -1.8485 H         1 <0>         0.0861
     55 H18         4.2281  -10.1229    0.6798 H         1 <0>         0.1512
     56 H19         3.8271  -12.5656    1.5393 H         1 <0>         0.2071
     57 H20         2.1176  -12.3148   -2.3285 H         1 <0>         0.2061
     58 H21        -1.9727   -3.6833    0.2638 H         1 <0>         0.1424
     59 H22        -2.3949   -3.3259   -1.4280 H         1 <0>         0.1393
     60 H23        -3.8522   -4.7491   -2.6627 H         1 <0>         0.1368
     61 H24        -5.5368   -6.5401   -2.6342 H         1 <0>         0.1428
     62 H25        -4.2343   -7.6713    1.2973 H         1 <0>         0.1392
     63 H26        -2.5512   -5.8795    1.2409 H         1 <0>         0.1345
     64 H27        -6.6587   -8.4493   -1.4890 H         1 <0>         0.1469
     65 H28        -5.4591   -8.9540    1.2861 H         1 <0>         0.1365
     66 H29        -6.6331  -10.8368    2.3039 H         1 <0>         0.4099
     67 H30        -8.1883  -12.5223    2.3815 H         1 <0>         0.3929
     68 H31        -0.5359   -5.4347   -0.5870 H         1 <0>         0.4265
@<TRIPOS>BOND
     1    1    6 ar
     2    1    2 ar
     3    1   39 1
     4    2    3 ar
     5    2   40 1
     6    3    4 ar
     7    3   41 1
     8    4    9 1
     9    4    5 ar
    10    5    6 ar
    11    5    7 1
    12    6   42 1
    13    7    8 2
    14    7   11 1
    15    8    9 1
    16    8   43 1
    17    9   10 1
    18   11   12 1
    19   11   44 1
    20   11   45 1
    21   12   13 1
    22   12   46 1
    23   12   47 1
    24   13   14 1
    25   13   26 1
    26   13   68 1
    27   14   15 1
    28   14   48 1
    29   14   49 1
    30   15   16 1
    31   15   50 1
    32   15   51 1
    33   16   17 1
    34   17   18 2
    35   17   19 am
    36   19   20 1
    37   19   52 1
    38   20   21 1
    39   20   53 1
    40   20   54 1
    41   21   25 2
    42   21   22 1
    43   22   23 2
    44   22   55 1
    45   23   24 1
    46   23   56 1
    47   24   25 1
    48   25   57 1
    49   26   27 1
    50   26   58 1
    51   26   59 1
    52   27   32 ar
    53   27   28 ar
    54   28   29 ar
    55   28   60 1
    56   29   30 ar
    57   29   61 1
    58   30   31 ar
    59   30   33 1
    60   31   32 ar
    61   31   62 1
    62   32   63 1
    63   33   34 2
    64   33   64 1
    65   34   35 1
    66   34   65 1
    67   35   36 2
    68   35   37 am
    69   37   38 1
    70   37   66 1
    71   38   67 1
@<TRIPOS>MOLECULE
CHEMBL143329__1
   67    70     0     0     0
SMALL
USER_CHARGES

@<TRIPOS>ATOM
      1 C1          0.8087    1.1975    0.8767 C.ar      1 <0>        -0.1462
      2 C2          2.1054    1.6430    1.0946 C.ar      1 <0>        -0.0990
      3 C3          3.1481    0.7486    1.1947 C.ar      1 <0>        -0.1304
      4 C4          2.9020   -0.6157    1.0771 C.ar      1 <0>         0.0945
      5 C5          1.5863   -1.0620    0.8569 C.ar      1 <0>        -0.1014
      6 C6          0.5444   -0.1377    0.7581 C.ar      1 <0>        -0.0713
      7 C7          1.6619   -2.5230    0.7808 C.2       1 <0>        -0.1707
      8 C8          2.9505   -2.8586    0.9505 C.2       1 <0>         0.0570
      9 N1          3.7063   -1.7320    1.1289 N.pl3     1 <0>        -0.5956
     10 H1          4.6658   -1.7214    1.2710 H         1 <0>         0.4161
     11 C9          0.5112   -3.4696    0.5555 C.3       1 <0>        -0.0351
     12 C10         0.2552   -3.6128   -0.9462 C.3       1 <0>         0.0547
     13 N2         -0.7815   -4.6289   -1.1714 N.3       1 <0>        -0.5251
     14 C11        -0.7935   -5.0669   -2.5736 C.3       1 <0>         0.0499
     15 C12         0.5109   -5.8014   -2.8896 C.3       1 <0>         0.0907
     16 O1          0.5799   -7.0028   -2.1189 O.3       1 <0>        -0.3446
     17 C13         1.6738   -7.7709   -2.2808 C.2       1 <0>         0.6455
     18 O2          2.5460   -7.4305   -3.0553 O.2       1 <0>        -0.5759
     19 N3          1.8013   -8.9174   -1.5838 N.am      1 <0>        -0.7059
     20 C14         2.9915   -9.7532   -1.7599 C.3       1 <0>         0.2110
     21 C15         2.8885  -10.9673   -0.8732 C.2       1 <0>        -0.2092
     22 C16         3.3467  -11.0786    0.4597 C.2       1 <0>        -0.1988
     23 C17         3.0530  -12.3255    0.8699 C.2       1 <0>        -0.0380
     24 O3          2.4446  -12.9717   -0.1381 O.3       1 <0>        -0.1731
     25 C18         2.3376  -12.1513   -1.1960 C.2       1 <0>        -0.0073
     26 C19        -2.1026   -4.1326   -0.7636 C.3       1 <0>         0.0873
     27 C20        -3.0603   -5.2904   -0.6477 C.ar      1 <0>        -0.0577
     28 C21        -3.8851   -5.6108   -1.7119 C.ar      1 <0>        -0.1185
     29 C22        -4.7644   -6.6684   -1.6133 C.ar      1 <0>        -0.0893
     30 C23        -4.8210   -7.4182   -0.4343 C.ar      1 <0>        -0.0819
     31 C24        -3.9842   -7.0885    0.6363 C.ar      1 <0>        -0.0975
     32 C25        -3.1065   -6.0312    0.5205 C.ar      1 <0>        -0.0957
     33 C26        -5.7572   -8.5485   -0.3207 C.2       1 <0>        -0.0003
     34 C27        -5.8090   -9.2690    0.8175 C.2       1 <0>        -0.2144
     35 C28        -6.7403  -10.3934    0.9305 C.2       1 <0>         0.5610
     36 O4         -7.4675  -10.6773   -0.0030 O.2       1 <0>        -0.5257
     37 N4         -6.7920  -11.1137    2.0684 N.am      1 <0>        -0.5939
     38 O5         -7.6926  -12.2010    2.1777 O.3       1 <0>        -0.3163
     39 H2          0.0018    1.9117    0.8048 H         1 <0>         0.1217
     40 H3          2.2985    2.7017    1.1861 H         1 <0>         0.1247
     41 H4          4.1535    1.1051    1.3636 H         1 <0>         0.1190
     42 H5         -0.4669   -0.4771    0.5890 H         1 <0>         0.1187
     43 H6          3.3340   -3.8682    0.9463 H         1 <0>         0.1682
     44 H7          0.7550   -4.4448    0.9771 H         1 <0>         0.0783
     45 H8         -0.3825   -3.0772    1.0406 H         1 <0>         0.0683
     46 H9         -0.0788   -2.6572   -1.3505 H         1 <0>         0.0391
     47 H10         1.1759   -3.9164   -1.4444 H         1 <0>         0.0772
     48 H11        -1.6370   -5.7375   -2.7375 H         1 <0>         0.0924
     49 H12        -0.8882   -4.1980   -3.2248 H         1 <0>         0.0610
     50 H13         0.5409   -6.0484   -3.9508 H         1 <0>         0.0713
     51 H14         1.3576   -5.1614   -2.6414 H         1 <0>         0.0701
     52 H15         1.1051   -9.1891   -0.9655 H         1 <0>         0.4085
     53 H16         3.0632  -10.0685   -2.8009 H         1 <0>         0.0793
     54 H17         3.8799   -9.1815   -1.4914 H         1 <0>         0.0804
     55 H18         3.8387  -10.3101    1.0373 H         1 <0>         0.1507
     56 H19         3.2699  -12.7372    1.8445 H         1 <0>         0.2048
     57 H20         1.8879  -12.4007   -2.1457 H         1 <0>         0.2054
     58 H21        -2.0205   -3.6310    0.2006 H         1 <0>         0.0901
     59 H22        -2.4723   -3.4286   -1.5091 H         1 <0>         0.0470
     60 H23        -3.8401   -5.0307   -2.6218 H         1 <0>         0.1231
     61 H24        -5.4078   -6.9168   -2.4444 H         1 <0>         0.1281
     62 H25        -4.0225   -7.6627    1.5502 H         1 <0>         0.1264
     63 H26        -2.4564   -5.7780    1.3449 H         1 <0>         0.1270
     64 H27        -6.4026   -8.8005   -1.1492 H         1 <0>         0.1380
     65 H28        -5.1637   -9.0170    1.6460 H         1 <0>         0.1344
     66 H29        -6.2124  -10.8873    2.8126 H         1 <0>         0.4094
     67 H30        -7.6575  -12.6566    3.0300 H         1 <0>         0.3885
@<TRIPOS>BOND
     1    1    6 ar
     2    1    2 ar
     3    1   39 1
     4    2    3 ar
     5    2   40 1
     6    3    4 ar
     7    3   41 1
     8    4    9 1
     9    4    5 ar
    10    5    6 ar
    11    5    7 1
    12    6   42 1
    13    7    8 2
    14    7   11 1
    15    8    9 1
    16    8   43 1
    17    9   10 1
    18   11   12 1
    19   11   44 1
    20   11   45 1
    21   12   13 1
    22   12   46 1
    23   12   47 1
    24   13   14 1
    25   13   26 1
    26   14   15 1
    27   14   48 1
    28   14   49 1
    29   15   16 1
    30   15   50 1
    31   15   51 1
    32   16   17 1
    33   17   18 2
    34   17   19 am
    35   19   20 1
    36   19   52 1
    37   20   21 1
    38   20   53 1
    39   20   54 1
    40   21   25 2
    41   21   22 1
    42   22   23 2
    43   22   55 1
    44   23   24 1
    45   23   56 1
    46   24   25 1
    47   25   57 1
    48   26   27 1
    49   26   58 1
    50   26   59 1
    51   27   32 ar
    52   27   28 ar
    53   28   29 ar
    54   28   60 1
    55   29   30 ar
    56   29   61 1
    57   30   31 ar
    58   30   33 1
    59   31   32 ar
    60   31   62 1
    61   32   63 1
    62   33   34 2
    63   33   64 1
    64   34   35 1
    65   34   65 1
    66   35   36 2
    67   35   37 am
    68   37   38 1
    69   37   66 1
    70   38   67 1
@<TRIPOS>MOLECULE
CHEMBL218027
   45    46     0     0     0
SMALL
USER_CHARGES

@<TRIPOS>ATOM
      1 C1         -0.0167    1.3781    0.0096 C.ar      1 <0>        -0.1185
      2 C2          1.1709    2.0855    0.0021 C.ar      1 <0>        -0.1212
      3 C3          2.3773    1.4107   -0.0130 C.ar      1 <0>        -0.1029
      4 C4          2.3960    0.0285   -0.0201 C.ar      1 <0>        -0.0841
      5 C5          1.2084   -0.6789   -0.0117 C.ar      1 <0>        -0.1110
      6 C6          0.0021   -0.0041    0.0020 C.ar      1 <0>        -0.1193
      7 C7          3.7112   -0.7071   -0.0376 C.3       1 <0>        -0.0332
      8 C8          4.1644   -0.9594    1.3773 C.2       1 <0>         0.2027
      9 C9          3.8834   -2.1514    1.9804 C.2       1 <0>        -0.2921
     10 C10         4.3168   -2.3643    3.3007 C.2       1 <0>         0.5305
     11 O1          4.0831   -3.4181    3.8696 O.2       1 <0>        -0.5336
     12 N1          4.9971   -1.3805    3.9272 N.am      1 <0>        -0.6161
     13 H1          5.3058   -1.5060    4.8382 H         1 <0>         0.4211
     14 C11         5.2485   -0.2115    3.2752 C.2       1 <0>         0.3748
     15 N2          4.8425   -0.0221    2.0344 N.2       1 <0>        -0.5384
     16 S1          6.1364    1.0670    4.1008 S.3       1 <0>        -0.0116
     17 C12         6.2301    2.3993    2.8733 C.3       1 <0>        -0.0935
     18 C13         6.9870    3.5885    3.4681 C.3       1 <0>        -0.1097
     19 C14         7.0660    4.7123    2.4328 C.3       1 <0>        -0.1111
     20 C15         7.8229    5.9014    3.0277 C.3       1 <0>        -0.1067
     21 C16         7.9019    7.0252    1.9924 C.3       1 <0>        -0.1267
     22 C17         8.6475    8.1965    2.5782 C.2       1 <0>         0.5208
     23 O2          9.0737    8.1382    3.7122 O.2       1 <0>        -0.5187
     24 N3          8.8406    9.3088    1.8421 N.am      1 <0>        -0.5999
     25 O3          9.5412   10.4094    2.3926 O.3       1 <0>        -0.3201
     26 H2         -0.9591    1.9053    0.0259 H         1 <0>         0.1220
     27 H3          1.1563    3.1654    0.0076 H         1 <0>         0.1225
     28 H4          3.3051    1.9634   -0.0196 H         1 <0>         0.1240
     29 H5          1.2231   -1.7588   -0.0176 H         1 <0>         0.1232
     30 H6         -0.9258   -0.5567    0.0082 H         1 <0>         0.1233
     31 H7          3.5884   -1.6586   -0.5549 H         1 <0>         0.0978
     32 H8          4.4573   -0.1052   -0.5563 H         1 <0>         0.0982
     33 H9          3.3367   -2.9184    1.4519 H         1 <0>         0.1567
     34 H10         6.7546    2.0411    1.9875 H         1 <0>         0.1030
     35 H11         5.2226    2.7110    2.5978 H         1 <0>         0.1026
     36 H12         6.4625    3.9468    4.3539 H         1 <0>         0.0781
     37 H13         7.9945    3.2769    3.7437 H         1 <0>         0.0782
     38 H14         7.5905    4.3540    1.5470 H         1 <0>         0.0704
     39 H15         6.0585    5.0239    2.1573 H         1 <0>         0.0703
     40 H16         7.2984    6.2597    3.9135 H         1 <0>         0.0755
     41 H17         8.8304    5.5898    3.3032 H         1 <0>         0.0756
     42 H18         8.4264    6.6669    1.1066 H         1 <0>         0.1003
     43 H19         6.8944    7.3368    1.7168 H         1 <0>         0.1003
     44 H20         8.4997    9.3554    0.9352 H         1 <0>         0.4082
     45 H21         9.6296   11.1605    1.7900 H         1 <0>         0.3882
@<TRIPOS>BOND
     1    1    6 ar
     2    1    2 ar
     3    1   26 1
     4    2    3 ar
     5    2   27 1
     6    3    4 ar
     7    3   28 1
     8    4    5 ar
     9    4    7 1
    10    5    6 ar
    11    5   29 1
    12    6   30 1
    13    7    8 1
    14    7   31 1
    15    7   32 1
    16    8   15 1
    17    8    9 2
    18    9   10 1
    19    9   33 1
    20   10   11 2
    21   10   12 am
    22   12   13 1
    23   12   14 1
    24   14   15 2
    25   14   16 1
    26   16   17 1
    27   17   18 1
    28   17   34 1
    29   17   35 1
    30   18   19 1
    31   18   36 1
    32   18   37 1
    33   19   20 1
    34   19   38 1
    35   19   39 1
    36   20   21 1
    37   20   40 1
    38   20   41 1
    39   21   22 1
    40   21   42 1
    41   21   43 1
    42   22   23 2
    43   22   24 am
    44   24   25 1
    45   24   44 1
    46   25   45 1
@<TRIPOS>MOLECULE
CHEMBL218027__1
   45    46     0     0     0
SMALL
USER_CHARGES

@<TRIPOS>ATOM
      1 C1         -0.0167    1.3781    0.0096 C.ar      1 <0>        -0.1142
      2 C2          1.1709    2.0855    0.0021 C.ar      1 <0>        -0.1164
      3 C3          2.3773    1.4107   -0.0130 C.ar      1 <0>        -0.1151
      4 C4          2.3960    0.0285   -0.0201 C.ar      1 <0>        -0.0953
      5 C5          1.2084   -0.6789   -0.0117 C.ar      1 <0>        -0.1050
      6 C6          0.0021   -0.0041    0.0020 C.ar      1 <0>        -0.1153
      7 C7          3.7112   -0.7071   -0.0376 C.3       1 <0>        -0.0457
      8 C8          4.1644   -0.9594    1.3773 C.2       1 <0>         0.1769
      9 C9          3.8862   -2.1331    1.9838 C.2       1 <0>        -0.2764
     10 C10         4.3272   -2.3388    3.3163 C.2       1 <0>         0.5139
     11 O1          4.0887   -3.3922    3.8872 O.2       1 <0>        -0.5109
     12 N1          5.0075   -1.3704    3.9444 N.2       1 <0>        -0.5857
     13 H1          5.0730    0.8387    1.6275 H         1 <0>         0.4235
     14 C11         5.2703   -0.2303    3.3368 C.2       1 <0>         0.3987
     15 N2          4.8656   -0.0057    2.0575 N.pl3     1 <0>        -0.5953
     16 S1          6.1668    1.0212    4.1939 S.3       1 <0>        -0.0201
     17 C12         6.4926    0.2907    5.8221 C.3       1 <0>        -0.0909
     18 C13         7.2760    1.2861    6.6802 C.3       1 <0>        -0.1077
     19 C14         7.5508    0.6699    8.0534 C.3       1 <0>        -0.1129
     20 C15         8.3342    1.6653    8.9115 C.3       1 <0>        -0.1055
     21 C16         8.6090    1.0491   10.2847 C.3       1 <0>        -0.1274
     22 C17         9.3806    2.0296   11.1299 C.2       1 <0>         0.5215
     23 O2          9.6812    3.1143   10.6784 O.2       1 <0>        -0.5194
     24 N3          9.7367    1.7009   12.3876 N.am      1 <0>        -0.5999
     25 O3         10.4618    2.6222   13.1817 O.3       1 <0>        -0.3205
     26 H2         -0.9591    1.9053    0.0259 H         1 <0>         0.1249
     27 H3          1.1563    3.1654    0.0076 H         1 <0>         0.1257
     28 H4          3.3051    1.9634   -0.0196 H         1 <0>         0.1208
     29 H5          1.2231   -1.7588   -0.0176 H         1 <0>         0.1261
     30 H6         -0.9258   -0.5567    0.0082 H         1 <0>         0.1262
     31 H7          3.5884   -1.6586   -0.5549 H         1 <0>         0.1135
     32 H8          4.4573   -0.1052   -0.5563 H         1 <0>         0.0982
     33 H9          3.3364   -2.9030    1.4628 H         1 <0>         0.1559
     34 H10         5.5470    0.0554    6.3105 H         1 <0>         0.1037
     35 H11         7.0758   -0.6221    5.7006 H         1 <0>         0.1039
     36 H12         8.2216    1.5214    6.1917 H         1 <0>         0.0779
     37 H13         6.6928    2.1989    6.8016 H         1 <0>         0.0778
     38 H14         6.6052    0.4346    8.5418 H         1 <0>         0.0711
     39 H15         8.1340   -0.2429    7.9319 H         1 <0>         0.0712
     40 H16         9.2798    1.9006    8.4231 H         1 <0>         0.0753
     41 H17         7.7510    2.5781    9.0329 H         1 <0>         0.0753
     42 H18         7.6634    0.8138   10.7732 H         1 <0>         0.1007
     43 H19         9.1922    0.1363   10.1633 H         1 <0>         0.1007
     44 H20         9.4963    0.8334   12.7487 H         1 <0>         0.4085
     45 H21        10.6715    2.2975   14.0681 H         1 <0>         0.3880
@<TRIPOS>BOND
     1    1    6 ar
     2    1    2 ar
     3    1   26 1
     4    2    3 ar
     5    2   27 1
     6    3    4 ar
     7    3   28 1
     8    4    5 ar
     9    4    7 1
    10    5    6 ar
    11    5   29 1
    12    6   30 1
    13    7   31 1
    14    7   32 1
    15    7    8 1
    16    8    9 2
    17    8   15 1
    18    9   10 1
    19    9   33 1
    20   10   12 1
    21   10   11 2
    22   12   14 2
    23   13   15 1
    24   14   16 1
    25   14   15 1
    26   16   17 1
    27   17   18 1
    28   17   34 1
    29   17   35 1
    30   18   19 1
    31   18   36 1
    32   18   37 1
    33   19   20 1
    34   19   38 1
    35   19   39 1
    36   20   21 1
    37   20   40 1
    38   20   41 1
    39   21   22 1
    40   21   42 1
    41   21   43 1
    42   22   23 2
    43   22   24 am
    44   24   25 1
    45   24   44 1
    46   25   45 1
@<TRIPOS>MOLECULE
CHEMBL1094793
   50    53     0     0     0
SMALL
USER_CHARGES

@<TRIPOS>ATOM
      1 C1          0.6164    0.0319   -1.5450 C.3       1 <0>        -0.1678
      2 C2         -0.2087    0.4952   -0.3427 C.3       1 <0>         0.1797
      3 H1          0.3445    0.2976    0.5754 H         1 <0>         0.1007
      4 C3         -0.4788    1.9733   -0.4583 C.ar      1 <0>        -0.1094
      5 C4         -1.3254    2.4462   -1.4434 C.ar      1 <0>        -0.0942
      6 C5         -1.5732    3.8020   -1.5495 C.ar      1 <0>        -0.1171
      7 C6         -0.9746    4.6849   -0.6701 C.ar      1 <0>        -0.1081
      8 C7         -0.1287    4.2118    0.3155 C.ar      1 <0>        -0.1161
      9 C8          0.1157    2.8556    0.4243 C.ar      1 <0>        -0.0976
     10 N1         -1.4798   -0.2327   -0.3132 N.pl3     1 <0>        -0.4768
     11 C9         -1.9170   -1.1563   -1.2421 C.ar      1 <0>         0.0573
     12 C10        -1.3784   -1.6769   -2.4107 C.ar      1 <0>        -0.1274
     13 C11        -2.0883   -2.6129   -3.1328 C.ar      1 <0>        -0.1003
     14 C12        -3.3365   -3.0374   -2.6991 C.ar      1 <0>        -0.1282
     15 C13        -3.8830   -2.5369   -1.5519 C.ar      1 <0>        -0.0618
     16 C14        -3.1817   -1.5864   -0.8026 C.ar      1 <0>         0.0471
     17 N2         -3.4530   -0.9221    0.3470 N.2       1 <0>        -0.4759
     18 C15        -2.4532   -0.1286    0.6434 C.2       1 <0>         0.3236
     19 C16        -2.3883    0.7509    1.8311 C.ar      1 <0>        -0.0212
     20 C17        -1.1626    0.9943    2.4553 C.ar      1 <0>        -0.0856
     21 C18        -1.0985    1.8153    3.5641 C.ar      1 <0>        -0.1177
     22 C19        -2.2436    2.4012    4.0645 C.ar      1 <0>        -0.0829
     23 C20        -3.4782    2.1666    3.4498 C.ar      1 <0>        -0.0772
     24 C21        -3.5477    1.3420    2.3252 C.ar      1 <0>        -0.0427
     25 C22        -4.6996    2.7916    3.9838 C.2       1 <0>        -0.0011
     26 C23        -4.6293    3.5914    5.0666 C.2       1 <0>        -0.2092
     27 C24        -5.8441    4.2131    5.5977 C.2       1 <0>         0.5604
     28 O1         -6.9171    4.0078    5.0615 O.2       1 <0>        -0.5228
     29 N3         -5.7738    5.0128    6.6803 N.am      1 <0>        -0.5936
     30 O2         -6.9485    5.6140    7.1939 O.3       1 <0>        -0.3156
     31 H2          1.5742    0.5522   -1.5506 H         1 <0>         0.0844
     32 H3          0.7869   -1.0425   -1.4764 H         1 <0>         0.0772
     33 H4          0.0759    0.2560   -2.4647 H         1 <0>         0.0768
     34 H5         -1.7931    1.7565   -2.1304 H         1 <0>         0.1163
     35 H6         -2.2341    4.1716   -2.3196 H         1 <0>         0.1236
     36 H7         -1.1676    5.7442   -0.7534 H         1 <0>         0.1241
     37 H8          0.3392    4.9016    1.0023 H         1 <0>         0.1253
     38 H9          0.7736    2.4857    1.1967 H         1 <0>         0.1229
     39 H10        -0.4077   -1.3500   -2.7532 H         1 <0>         0.1358
     40 H11        -1.6702   -3.0183   -4.0423 H         1 <0>         0.1302
     41 H12        -3.8813   -3.7709   -3.2750 H         1 <0>         0.1296
     42 H13        -4.8552   -2.8741   -1.2239 H         1 <0>         0.1295
     43 H14        -0.2624    0.5388    2.0699 H         1 <0>         0.1252
     44 H15        -0.1477    1.9994    4.0421 H         1 <0>         0.1338
     45 H16        -2.1865    3.0415    4.9323 H         1 <0>         0.1327
     46 H17        -4.4971    1.1605    1.8434 H         1 <0>         0.1396
     47 H18        -5.6518    2.6094    3.5080 H         1 <0>         0.1414
     48 H19        -3.6771    3.7737    5.5424 H         1 <0>         0.1351
     49 H20        -4.9186    5.1765    7.1077 H         1 <0>         0.4093
     50 H21        -6.7985    6.1696    7.9710 H         1 <0>         0.3887
@<TRIPOS>BOND
     1    1    2 1
     2    1   31 1
     3    1   32 1
     4    1   33 1
     5    2    3 1
     6    2    4 1
     7    2   10 1
     8    4    9 ar
     9    4    5 ar
    10    5    6 ar
    11    5   34 1
    12    6    7 ar
    13    6   35 1
    14    7    8 ar
    15    7   36 1
    16    8    9 ar
    17    8   37 1
    18    9   38 1
    19   10   18 1
    20   10   11 1
    21   11   16 ar
    22   11   12 ar
    23   12   13 ar
    24   12   39 1
    25   13   14 ar
    26   13   40 1
    27   14   15 ar
    28   14   41 1
    29   15   16 ar
    30   15   42 1
    31   16   17 1
    32   17   18 2
    33   18   19 1
    34   19   24 ar
    35   19   20 ar
    36   20   21 ar
    37   20   43 1
    38   21   22 ar
    39   21   44 1
    40   22   23 ar
    41   22   45 1
    42   23   24 ar
    43   23   25 1
    44   24   46 1
    45   25   26 2
    46   25   47 1
    47   26   27 1
    48   26   48 1
    49   27   28 2
    50   27   29 am
    51   29   30 1
    52   29   49 1
    53   30   50 1
@<TRIPOS>MOLECULE
CHEMBL143497
   58    60     0     0     0
SMALL
USER_CHARGES

@<TRIPOS>ATOM
      1 C1         -0.2318    1.5848    1.4503 C.ar      1 <0>        -0.1136
      2 C2          0.9485    2.2604    1.2028 C.ar      1 <0>        -0.1155
      3 C3          2.1096    1.5539    0.9509 C.ar      1 <0>        -0.1153
      4 C4          2.0905    0.1717    0.9470 C.ar      1 <0>        -0.0995
      5 C5          0.9104   -0.5040    1.1954 C.ar      1 <0>        -0.1157
      6 C6         -0.2510    0.2026    1.4459 C.ar      1 <0>        -0.1156
      7 C7          3.3561   -0.5986    0.6715 C.3       1 <0>        -0.0725
      8 C8          4.0866   -0.8674    1.9887 C.3       1 <0>        -0.1431
      9 C9          5.3715   -1.6495    1.7089 C.3       1 <0>        -0.0164
     10 N1          6.0729   -1.9076    2.9736 N.4       1 <0>        -0.3800
     11 C10         7.3632   -2.5521    2.6953 C.3       1 <0>         0.0396
     12 C11         8.2618   -1.5845    1.9692 C.ar      1 <0>        -0.1489
     13 C12         8.3374   -1.6193    0.5877 C.ar      1 <0>        -0.0925
     14 C13         9.1577   -0.7375   -0.0839 C.ar      1 <0>        -0.0903
     15 C14         9.9139    0.1938    0.6346 C.ar      1 <0>        -0.0333
     16 C15         9.8317    0.2229    2.0302 C.ar      1 <0>        -0.1008
     17 C16         9.0029   -0.6620    2.6870 C.ar      1 <0>        -0.0945
     18 C17        10.7925    1.1384   -0.0747 C.2       1 <0>        -0.0337
     19 C18        11.5200    2.0348    0.6214 C.2       1 <0>        -0.1767
     20 C19        12.3939    2.9743   -0.0841 C.2       1 <0>         0.5543
     21 O1         12.4634    2.9460   -1.2987 O.2       1 <0>        -0.5158
     22 N2         13.1213    3.8705    0.6118 N.am      1 <0>        -0.5904
     23 O2         13.9663    4.7791   -0.0704 O.3       1 <0>        -0.3110
     24 C20         5.2554   -2.7915    3.8153 C.3       1 <0>         0.0502
     25 C21         5.9000   -2.9322    5.1702 C.ar      1 <0>         0.0535
     26 C22         5.4939   -2.1146    6.2081 C.ar      1 <0>        -0.1429
     27 C23         6.0932   -2.2522    7.4506 C.ar      1 <0>        -0.0666
     28 C24         7.0830   -3.2113    7.6033 C.ar      1 <0>        -0.1357
     29 C25         7.4366   -3.9925    6.5197 C.ar      1 <0>         0.1101
     30 N3          6.8410   -3.8375    5.3533 N.ar      1 <0>        -0.4672
     31 H1         -1.1380    2.1368    1.6515 H         1 <0>         0.1260
     32 H2          0.9634    3.3403    1.2058 H         1 <0>         0.1256
     33 H3          3.0316    2.0818    0.7568 H         1 <0>         0.1212
     34 H4          0.8954   -1.5839    1.1921 H         1 <0>         0.1216
     35 H5         -1.1731   -0.3253    1.6396 H         1 <0>         0.1258
     36 H6          3.1079   -1.5463    0.1937 H         1 <0>         0.0837
     37 H7          3.9994   -0.0165    0.0115 H         1 <0>         0.0832
     38 H8          4.3348    0.0803    2.4665 H         1 <0>         0.0881
     39 H9          3.4434   -1.4495    2.6486 H         1 <0>         0.0883
     40 H10         5.1233   -2.5972    1.2311 H         1 <0>         0.1339
     41 H11         6.0147   -1.0673    1.0490 H         1 <0>         0.1350
     42 H12         7.8314   -2.8484    3.6340 H         1 <0>         0.1439
     43 H13         7.2025   -3.4341    2.0752 H         1 <0>         0.1383
     44 H14         7.7527   -2.3391    0.0342 H         1 <0>         0.1372
     45 H15         9.2162   -0.7663   -1.1619 H         1 <0>         0.1434
     46 H16        10.4130    0.9391    2.5920 H         1 <0>         0.1390
     47 H17         8.9350   -0.6378    3.7646 H         1 <0>         0.1303
     48 H18        10.8541    1.1132   -1.1526 H         1 <0>         0.1473
     49 H19        11.4583    2.0599    1.6993 H         1 <0>         0.1361
     50 H20        13.0659    3.8931    1.5800 H         1 <0>         0.4098
     51 H21        14.4472    5.3825    0.5125 H         1 <0>         0.3929
     52 H22         4.2589   -2.3649    3.9296 H         1 <0>         0.1464
     53 H23         5.1792   -3.7721    3.3456 H         1 <0>         0.1465
     54 H24         4.7197   -1.3777    6.0530 H         1 <0>         0.1443
     55 H25         5.7965   -1.6271    8.2798 H         1 <0>         0.1494
     56 H26         7.5717   -3.3458    8.5570 H         1 <0>         0.1507
     57 H27         8.2066   -4.7417    6.6305 H         1 <0>         0.1717
     58 H28         6.2298   -1.0350    3.4553 H         1 <0>         0.4199
@<TRIPOS>BOND
     1    1    6 ar
     2    1    2 ar
     3    1   31 1
     4    2    3 ar
     5    2   32 1
     6    3    4 ar
     7    3   33 1
     8    4    5 ar
     9    4    7 1
    10    5    6 ar
    11    5   34 1
    12    6   35 1
    13    7    8 1
    14    7   36 1
    15    7   37 1
    16    8    9 1
    17    8   38 1
    18    8   39 1
    19    9   10 1
    20    9   40 1
    21    9   41 1
    22   10   11 1
    23   10   24 1
    24   10   58 1
    25   11   12 1
    26   11   42 1
    27   11   43 1
    28   12   17 ar
    29   12   13 ar
    30   13   14 ar
    31   13   44 1
    32   14   15 ar
    33   14   45 1
    34   15   16 ar
    35   15   18 1
    36   16   17 ar
    37   16   46 1
    38   17   47 1
    39   18   19 2
    40   18   48 1
    41   19   20 1
    42   19   49 1
    43   20   21 2
    44   20   22 am
    45   22   23 1
    46   22   50 1
    47   23   51 1
    48   24   25 1
    49   24   52 1
    50   24   53 1
    51   25   30 ar
    52   25   26 ar
    53   26   27 ar
    54   26   54 1
    55   27   28 ar
    56   27   55 1
    57   28   29 ar
    58   28   56 1
    59   29   30 ar
    60   29   57 1
@<TRIPOS>MOLECULE
CHEMBL143497__1
   57    59     0     0     0
SMALL
USER_CHARGES

@<TRIPOS>ATOM
      1 C1         -0.1611    1.8012    1.4715 C.ar      1 <0>        -0.1254
      2 C2          1.0416    2.4030    1.1518 C.ar      1 <0>        -0.1178
      3 C3          2.1577    1.6270    0.9008 C.ar      1 <0>        -0.1167
      4 C4          2.0711    0.2491    0.9699 C.ar      1 <0>        -0.0802
      5 C5          0.8687   -0.3527    1.2905 C.ar      1 <0>        -0.1188
      6 C6         -0.2477    0.4233    1.5401 C.ar      1 <0>        -0.1184
      7 C7          3.2876   -0.5970    0.6953 C.3       1 <0>        -0.0804
      8 C8          4.0486   -0.8351    2.0011 C.3       1 <0>        -0.1096
      9 C9          5.2836   -1.6941    1.7223 C.3       1 <0>         0.0516
     10 N1          6.0142   -1.9227    2.9760 N.3       1 <0>        -0.5253
     11 C10         7.3231   -2.5377    2.7179 C.3       1 <0>         0.0818
     12 C11         8.2690   -1.4971    2.1763 C.ar      1 <0>        -0.0546
     13 C12         8.4368   -1.3644    0.8089 C.ar      1 <0>        -0.1181
     14 C13         9.3008   -0.4150    0.3055 C.ar      1 <0>        -0.0890
     15 C14        10.0081    0.4154    1.1806 C.ar      1 <0>        -0.0831
     16 C15         9.8328    0.2755    2.5608 C.ar      1 <0>        -0.0976
     17 C16         8.9612   -0.6753    3.0486 C.ar      1 <0>        -0.0975
     18 C17        10.9328    1.4312    0.6514 C.2       1 <0>         0.0004
     19 C18        11.6129    2.2299    1.4981 C.2       1 <0>        -0.2149
     20 C19        12.5327    3.2403    0.9718 C.2       1 <0>         0.5613
     21 O1         12.6832    3.3591   -0.2300 O.2       1 <0>        -0.5257
     22 N2         13.2127    4.0388    1.8183 N.am      1 <0>        -0.5939
     23 O2         14.1022    5.0159    1.3093 O.3       1 <0>        -0.3162
     24 C20         5.2226   -2.7400    3.9052 C.3       1 <0>         0.0990
     25 C21         5.7999   -2.6249    5.2925 C.ar      1 <0>         0.1366
     26 C22         5.2807   -1.6947    6.1734 C.ar      1 <0>        -0.1515
     27 C23         5.8189   -1.5969    7.4472 C.ar      1 <0>        -0.0749
     28 C24         6.8639   -2.4421    7.7889 C.ar      1 <0>        -0.1738
     29 C25         7.3307   -3.3473    6.8550 C.ar      1 <0>         0.0996
     30 N3          6.7908   -3.4162    5.6537 N.ar      1 <0>        -0.4819
     31 H1         -1.0319    2.4077    1.6720 H         1 <0>         0.1205
     32 H2          1.1092    3.4796    1.0978 H         1 <0>         0.1212
     33 H3          3.0971    2.0972    0.6503 H         1 <0>         0.1209
     34 H4          0.8010   -1.4293    1.3441 H         1 <0>         0.1198
     35 H5         -1.1873   -0.0469    1.7902 H         1 <0>         0.1209
     36 H6          2.9774   -1.5541    0.2759 H         1 <0>         0.0715
     37 H7          3.9355   -0.0823   -0.0142 H         1 <0>         0.0736
     38 H8          4.3588    0.1219    2.4205 H         1 <0>         0.0736
     39 H9          3.4006   -1.3498    2.7106 H         1 <0>         0.0640
     40 H10         4.9734   -2.6512    1.3029 H         1 <0>         0.0375
     41 H11         5.9315   -1.1794    1.0128 H         1 <0>         0.0821
     42 H12         7.7232   -2.9440    3.6469 H         1 <0>         0.1025
     43 H13         7.2101   -3.3404    1.9893 H         1 <0>         0.0473
     44 H14         7.8898   -2.0065    0.1343 H         1 <0>         0.1238
     45 H15         9.4311   -0.3131   -0.7618 H         1 <0>         0.1289
     46 H16        10.3759    0.9128    3.2429 H         1 <0>         0.1261
     47 H17         8.8215   -0.7816    4.1142 H         1 <0>         0.1219
     48 H18        11.0663    1.5366   -0.4151 H         1 <0>         0.1386
     49 H19        11.4794    2.1244    2.5646 H         1 <0>         0.1339
     50 H20        13.0928    3.9441    2.7762 H         1 <0>         0.4094
     51 H21        14.5435    5.5397    1.9920 H         1 <0>         0.3885
     52 H22         4.1911   -2.3878    3.9105 H         1 <0>         0.0953
     53 H23         5.2492   -3.7818    3.5859 H         1 <0>         0.0563
     54 H24         4.4663   -1.0521    5.8730 H         1 <0>         0.1336
     55 H25         5.4337   -0.8793    8.1565 H         1 <0>         0.1340
     56 H26         7.3075   -2.3932    8.7723 H         1 <0>         0.1342
     57 H27         8.1442   -4.0090    7.1133 H         1 <0>         0.1552
@<TRIPOS>BOND
     1    1    6 ar
     2    1    2 ar
     3    1   31 1
     4    2    3 ar
     5    2   32 1
     6    3    4 ar
     7    3   33 1
     8    4    5 ar
     9    4    7 1
    10    5    6 ar
    11    5   34 1
    12    6   35 1
    13    7    8 1
    14    7   36 1
    15    7   37 1
    16    8    9 1
    17    8   38 1
    18    8   39 1
    19    9   10 1
    20    9   40 1
    21    9   41 1
    22   10   11 1
    23   10   24 1
    24   11   12 1
    25   11   42 1
    26   11   43 1
    27   12   17 ar
    28   12   13 ar
    29   13   14 ar
    30   13   44 1
    31   14   15 ar
    32   14   45 1
    33   15   16 ar
    34   15   18 1
    35   16   17 ar
    36   16   46 1
    37   17   47 1
    38   18   19 2
    39   18   48 1
    40   19   20 1
    41   19   49 1
    42   20   21 2
    43   20   22 am
    44   22   23 1
    45   22   50 1
    46   23   51 1
    47   24   25 1
    48   24   52 1
    49   24   53 1
    50   25   30 ar
    51   25   26 ar
    52   26   27 ar
    53   26   54 1
    54   27   28 ar
    55   27   55 1
    56   28   29 ar
    57   28   56 1
    58   29   30 ar
    59   29   57 1
@<TRIPOS>MOLECULE
CHEMBL113421
   41    42     0     0     0
SMALL
USER_CHARGES

@<TRIPOS>ATOM
      1 C1         -0.0164    1.3572    0.0095 C.ar      1 <0>        -0.1033
      2 C2          1.1682    2.0914    0.0021 C.ar      1 <0>        -0.1182
      3 C3          2.3779    1.4681   -0.0127 C.ar      1 <0>        -0.0955
      4 C4          2.4368    0.0628   -0.0208 C.ar      1 <0>        -0.0641
      5 C5          3.6672   -0.6113   -0.0356 C.ar      1 <0>        -0.0301
      6 C6          3.6848   -1.9960   -0.0428 C.ar      1 <0>        -0.1398
      7 C7          2.4821   -2.7254   -0.0354 C.ar      1 <0>        -0.0931
      8 C8          1.2830   -2.0900   -0.0215 C.ar      1 <0>        -0.1083
      9 C9          1.2314   -0.6839   -0.0134 C.ar      1 <0>        -0.0339
     10 C10         0.0021   -0.0041    0.0020 C.ar      1 <0>        -0.1133
     11 C11         4.9769   -2.7128   -0.0589 C.2       1 <0>         0.5586
     12 O1          6.0191   -2.0870   -0.0657 O.2       1 <0>        -0.5353
     13 N1          5.0000   -4.0603   -0.0659 N.am      1 <0>        -0.7278
     14 C12         6.2810   -4.7709   -0.0819 C.3       1 <0>         0.1172
     15 C13         6.0273   -6.2797   -0.0871 C.3       1 <0>        -0.1321
     16 C14         7.3651   -7.0219   -0.1037 C.3       1 <0>        -0.1168
     17 C15         7.1114   -8.5307   -0.1090 C.3       1 <0>        -0.1137
     18 C16         8.4492   -9.2728   -0.1256 C.3       1 <0>        -0.1057
     19 C17         8.1955  -10.7816   -0.1308 C.3       1 <0>        -0.0660
     20 S1          9.7817  -11.6615   -0.1505 S.3       1 <0>        -0.2558
     21 H1         -0.9634    1.8760    0.0259 H         1 <0>         0.1266
     22 H2          1.1255    3.1705    0.0080 H         1 <0>         0.1273
     23 H3          3.2880    2.0496   -0.0187 H         1 <0>         0.1319
     24 H4          4.5928   -0.0549   -0.0417 H         1 <0>         0.1429
     25 H5          2.5134   -3.8049   -0.0413 H         1 <0>         0.1252
     26 H6          0.3680   -2.6638   -0.0164 H         1 <0>         0.1336
     27 H7         -0.9244   -0.5590    0.0082 H         1 <0>         0.1304
     28 H8          4.1684   -4.5597   -0.0605 H         1 <0>         0.4002
     29 H9          6.8394   -4.4933   -0.9759 H         1 <0>         0.0703
     30 H10         6.8565   -4.5024    0.8040 H         1 <0>         0.0703
     31 H11         5.4689   -6.5574    0.8069 H         1 <0>         0.0702
     32 H12         5.4518   -6.5483   -0.9730 H         1 <0>         0.0702
     33 H13         7.9235   -6.7442   -0.9977 H         1 <0>         0.0691
     34 H14         7.9406   -6.7533    0.7821 H         1 <0>         0.0691
     35 H15         6.5530   -8.8083    0.7850 H         1 <0>         0.0655
     36 H16         6.5359   -8.7992   -0.9948 H         1 <0>         0.0655
     37 H17         9.0076   -8.9952   -1.0196 H         1 <0>         0.0764
     38 H18         9.0247   -9.0042    0.7603 H         1 <0>         0.0764
     39 H19         7.6371  -11.0592    0.7632 H         1 <0>         0.0829
     40 H20         7.6200  -11.0502   -1.0167 H         1 <0>         0.0829
     41 H21         9.4331  -12.9605   -0.1538 H         1 <0>         0.0898
@<TRIPOS>BOND
     1    1   10 ar
     2    1    2 ar
     3    1   21 1
     4    2    3 ar
     5    2   22 1
     6    3    4 ar
     7    3   23 1
     8    4    9 ar
     9    4    5 ar
    10    5    6 ar
    11    5   24 1
    12    6    7 ar
    13    6   11 1
    14    7    8 ar
    15    7   25 1
    16    8    9 ar
    17    8   26 1
    18    9   10 ar
    19   10   27 1
    20   11   12 2
    21   11   13 am
    22   13   14 1
    23   13   28 1
    24   14   15 1
    25   14   29 1
    26   14   30 1
    27   15   16 1
    28   15   31 1
    29   15   32 1
    30   16   17 1
    31   16   33 1
    32   16   34 1
    33   17   18 1
    34   17   35 1
    35   17   36 1
    36   18   19 1
    37   18   37 1
    38   18   38 1
    39   19   20 1
    40   19   39 1
    41   19   40 1
    42   20   41 1
@<TRIPOS>MOLECULE
CHEMBL59316
   42    43     0     0     0
SMALL
USER_CHARGES

@<TRIPOS>ATOM
      1 C1         -0.0168    1.3847    0.0097 C.ar      1 <0>        -0.0731
      2 C2          1.1583    2.1051    0.0023 C.ar      1 <0>        -0.0952
      3 C3          2.3782    1.4395   -0.0129 C.ar      1 <0>         0.0749
      4 C4          2.3920    0.0320   -0.0205 C.ar      1 <0>        -0.1347
      5 C5          1.1906   -0.6803   -0.0125 C.ar      1 <0>        -0.0484
      6 C6          0.0021   -0.0041    0.0020 C.ar      1 <0>        -0.0526
      7 Cl1        -1.4926   -0.8870    0.0121 Cl        1 <0>        -0.0564
      8 C7          3.8035   -0.3504   -0.0365 C.2       1 <0>        -0.1030
      9 C8          4.5079    0.8107   -0.0372 C.2       1 <0>        -0.0257
     10 O1          3.6585    1.8592   -0.0233 O.3       1 <0>        -0.1819
     11 C9          5.9743    0.9103   -0.0507 C.2       1 <0>         0.5999
     12 O2          6.6524   -0.0996   -0.0624 O.2       1 <0>        -0.5092
     13 N1          6.5675    2.1205   -0.0502 N.am      1 <0>        -0.7174
     14 C10         8.0291    2.2197   -0.0636 C.3       1 <0>         0.1152
     15 C11         8.4402    3.6935   -0.0599 C.3       1 <0>        -0.1321
     16 C12         9.9666    3.7972   -0.0740 C.3       1 <0>        -0.1179
     17 C13        10.3778    5.2709   -0.0703 C.3       1 <0>        -0.1185
     18 C14        11.9042    5.3746   -0.0844 C.3       1 <0>        -0.1074
     19 C15        12.3153    6.8483   -0.0807 C.3       1 <0>        -0.1265
     20 C16        13.8188    6.9504   -0.0945 C.2       1 <0>         0.5206
     21 O3         14.4949    5.9436   -0.1062 O.2       1 <0>        -0.5184
     22 N2         14.4120    8.1606   -0.0940 N.am      1 <0>        -0.6002
     23 O4         15.8247    8.2566   -0.1070 O.3       1 <0>        -0.3204
     24 H1         -0.9626    1.9059    0.0260 H         1 <0>         0.1504
     25 H2          1.1310    3.1848    0.0080 H         1 <0>         0.1471
     26 H3          1.2002   -1.7602   -0.0187 H         1 <0>         0.1442
     27 H4          4.2045   -1.3532   -0.0452 H         1 <0>         0.1752
     28 H5          6.0268    2.9257   -0.0408 H         1 <0>         0.4078
     29 H6          8.4349    1.7271    0.8200 H         1 <0>         0.0747
     30 H7          8.4179    1.7363   -0.9598 H         1 <0>         0.0747
     31 H8          8.0344    4.1861   -0.9436 H         1 <0>         0.0716
     32 H9          8.0514    4.1769    0.8363 H         1 <0>         0.0716
     33 H10        10.3724    3.3046    0.8096 H         1 <0>         0.0692
     34 H11        10.3554    3.3137   -0.9702 H         1 <0>         0.0692
     35 H12         9.9720    5.7635   -0.9540 H         1 <0>         0.0653
     36 H13         9.9890    5.7543    0.8259 H         1 <0>         0.0653
     37 H14        12.3099    4.8820    0.7993 H         1 <0>         0.0739
     38 H15        12.2930    4.8911   -0.9806 H         1 <0>         0.0740
     39 H16        11.9095    7.3409   -0.9643 H         1 <0>         0.0992
     40 H17        11.9265    7.3317    0.8155 H         1 <0>         0.0992
     41 H18        13.8713    8.9658   -0.0847 H         1 <0>         0.4080
     42 H19        16.1573    9.1646   -0.1055 H         1 <0>         0.3878
@<TRIPOS>BOND
     1    1    6 ar
     2    1    2 ar
     3    1   24 1
     4    2    3 ar
     5    2   25 1
     6    3   10 1
     7    3    4 ar
     8    4    5 ar
     9    4    8 1
    10    5    6 ar
    11    5   26 1
    12    6    7 1
    13    8    9 2
    14    8   27 1
    15    9   10 1
    16    9   11 1
    17   11   12 2
    18   11   13 am
    19   13   14 1
    20   13   28 1
    21   14   15 1
    22   14   29 1
    23   14   30 1
    24   15   16 1
    25   15   31 1
    26   15   32 1
    27   16   17 1
    28   16   33 1
    29   16   34 1
    30   17   18 1
    31   17   35 1
    32   17   36 1
    33   18   19 1
    34   18   37 1
    35   18   38 1
    36   19   20 1
    37   19   39 1
    38   19   40 1
    39   20   21 2
    40   20   22 am
    41   22   23 1
    42   22   41 1
    43   23   42 1
@<TRIPOS>MOLECULE
CHEMBL343068
   46    48     0     0     0
SMALL
USER_CHARGES

@<TRIPOS>ATOM
      1 C1         -0.0167    1.3798    0.0096 C.ar      1 <0>        -0.0896
      2 C2          1.1659    2.0890    0.0021 C.ar      1 <0>        -0.0930
      3 C3          2.3861    1.4063   -0.0132 C.ar      1 <0>        -0.0284
      4 C4          2.3968    0.0080   -0.0208 C.ar      1 <0>        -0.1044
      5 C5          1.2058   -0.6869   -0.0132 C.ar      1 <0>        -0.0897
      6 C6          0.0021   -0.0041    0.0020 C.ar      1 <0>        -0.1629
      7 C7         -1.2949   -0.7714    0.0108 C.3       1 <0>         0.0458
      8 N1         -1.7302   -1.0132   -1.3712 N.4       1 <0>        -0.5092
      9 C8         -2.9945   -1.7612   -1.3627 C.3       1 <0>        -0.0090
     10 C9         -3.4478   -2.0131   -2.8021 C.3       1 <0>        -0.0951
     11 C10        -4.7448   -2.7804   -2.7933 C.ar      1 <0>        -0.1017
     12 C11        -4.7284   -4.1628   -2.7951 C.ar      1 <0>        -0.0961
     13 C12        -5.9155   -4.8711   -2.7866 C.ar      1 <0>        -0.0984
     14 C13        -7.1255   -4.1963   -2.7767 C.ar      1 <0>         0.0507
     15 C14        -7.1420   -2.8037   -2.7749 C.ar      1 <0>         0.0388
     16 C15        -5.9482   -2.1004   -2.7777 C.ar      1 <0>        -0.0933
     17 O1         -8.4404   -2.3828   -2.7647 O.3       1 <0>        -0.3051
     18 C16        -9.2177   -3.5242   -3.1724 C.3       1 <0>         0.2120
     19 O2         -8.4136   -4.6479   -2.7675 O.3       1 <0>        -0.3029
     20 C17         3.6531    2.1558   -0.0218 C.2       1 <0>        -0.0372
     21 C18         4.8276    1.4942   -0.0365 C.2       1 <0>        -0.1732
     22 C19         6.0878    2.2397   -0.0451 C.2       1 <0>         0.5537
     23 O3          6.0750    3.4566   -0.0388 O.2       1 <0>        -0.5155
     24 N2          7.2620    1.5783   -0.0598 N.am      1 <0>        -0.5900
     25 O4          8.4807    2.2992   -0.0681 O.3       1 <0>        -0.3108
     26 H1         -0.9599    1.9056    0.0260 H         1 <0>         0.1367
     27 H2          1.1496    3.1688    0.0078 H         1 <0>         0.1432
     28 H3          3.3353   -0.5263   -0.0330 H         1 <0>         0.1401
     29 H4          1.2123   -1.7669   -0.0194 H         1 <0>         0.1359
     30 H5         -1.1495   -1.7251    0.5181 H         1 <0>         0.1394
     31 H6         -2.0556   -0.1931    0.5353 H         1 <0>         0.1394
     32 H7         -1.8648   -0.1304   -1.8408 H         1 <0>         0.4284
     33 H8         -2.8490   -2.7149   -0.8554 H         1 <0>         0.1358
     34 H9         -3.7551   -1.1829   -0.8381 H         1 <0>         0.1350
     35 H10        -3.5932   -1.0594   -3.3094 H         1 <0>         0.0986
     36 H11        -2.6871   -2.5913   -3.3266 H         1 <0>         0.1005
     37 H12        -3.7861   -4.6905   -2.8036 H         1 <0>         0.1409
     38 H13        -5.8997   -5.9510   -2.7880 H         1 <0>         0.1434
     39 H14        -5.9580   -1.0205   -2.7718 H         1 <0>         0.1379
     40 H15       -10.1790   -3.5363   -2.6587 H         1 <0>         0.1406
     41 H16        -9.3599   -3.5246   -4.2531 H         1 <0>         0.0931
     42 H17         3.6417    3.2357   -0.0162 H         1 <0>         0.1476
     43 H18         4.8390    0.4142   -0.0421 H         1 <0>         0.1370
     44 H19         7.2722    0.6083   -0.0648 H         1 <0>         0.4101
     45 H20         9.2689    1.7391   -0.0786 H         1 <0>         0.3932
     46 H21        -1.0260   -1.5485   -1.8568 H         1 <0>         0.4279
@<TRIPOS>BOND
     1    1    6 ar
     2    1    2 ar
     3    1   26 1
     4    2    3 ar
     5    2   27 1
     6    3    4 ar
     7    3   20 1
     8    4    5 ar
     9    4   28 1
    10    5    6 ar
    11    5   29 1
    12    6    7 1
    13    7    8 1
    14    7   30 1
    15    7   31 1
    16    8    9 1
    17    8   32 1
    18    8   46 1
    19    9   10 1
    20    9   33 1
    21    9   34 1
    22   10   11 1
    23   10   35 1
    24   10   36 1
    25   11   16 ar
    26   11   12 ar
    27   12   13 ar
    28   12   37 1
    29   13   14 ar
    30   13   38 1
    31   14   19 1
    32   14   15 ar
    33   15   16 ar
    34   15   17 1
    35   16   39 1
    36   17   18 1
    37   18   19 1
    38   18   40 1
    39   18   41 1
    40   20   21 2
    41   20   42 1
    42   21   22 1
    43   21   43 1
    44   22   23 2
    45   22   24 am
    46   24   25 1
    47   24   44 1
    48   25   45 1
@<TRIPOS>MOLECULE
CHEMBL343068__1
   45    47     0     0     0
SMALL
USER_CHARGES

@<TRIPOS>ATOM
      1 C1         -0.0167    1.3798    0.0096 C.ar      1 <0>        -0.1163
      2 C2          1.1659    2.0890    0.0021 C.ar      1 <0>        -0.0896
      3 C3          2.3861    1.4063   -0.0132 C.ar      1 <0>        -0.0800
      4 C4          2.3968    0.0080   -0.0208 C.ar      1 <0>        -0.0986
      5 C5          1.2058   -0.6869   -0.0132 C.ar      1 <0>        -0.0991
      6 C6          0.0021   -0.0041    0.0020 C.ar      1 <0>        -0.0689
      7 C7         -1.2949   -0.7714    0.0108 C.3       1 <0>         0.0950
      8 N1         -1.7302   -1.0132   -1.3712 N.3       1 <0>        -0.6850
      9 C8         -2.9944   -1.7607   -1.4019 C.3       1 <0>         0.0624
     10 C9         -3.4145   -1.9929   -2.8546 C.3       1 <0>        -0.0743
     11 C10        -4.7115   -2.7597   -2.8860 C.ar      1 <0>        -0.0725
     12 C11        -4.6952   -4.1419   -2.9062 C.ar      1 <0>        -0.1035
     13 C12        -5.8823   -4.8498   -2.9346 C.ar      1 <0>        -0.0973
     14 C13        -7.0921   -4.1747   -2.9433 C.ar      1 <0>         0.0278
     15 C14        -7.1085   -2.7822   -2.9230 C.ar      1 <0>         0.0337
     16 C15        -5.9150   -2.0795   -2.8888 C.ar      1 <0>        -0.0977
     17 O1         -8.4068   -2.3610   -2.9369 O.3       1 <0>        -0.3094
     18 C16        -9.1747   -3.4964   -3.3778 C.3       1 <0>         0.2131
     19 O2         -8.3801   -4.6258   -2.9698 O.3       1 <0>        -0.3091
     20 C17         3.6531    2.1558   -0.0218 C.2       1 <0>        -0.0023
     21 C18         4.8276    1.4942   -0.0365 C.2       1 <0>        -0.2120
     22 C19         6.0878    2.2397   -0.0451 C.2       1 <0>         0.5608
     23 O3          6.0750    3.4566   -0.0388 O.2       1 <0>        -0.5253
     24 N2          7.2620    1.5783   -0.0598 N.am      1 <0>        -0.5936
     25 O4          8.4807    2.2992   -0.0681 O.3       1 <0>        -0.3161
     26 H1         -0.9599    1.9056    0.0260 H         1 <0>         0.1244
     27 H2          1.1496    3.1688    0.0078 H         1 <0>         0.1300
     28 H3          3.3353   -0.5263   -0.0330 H         1 <0>         0.1284
     29 H4          1.2123   -1.7669   -0.0194 H         1 <0>         0.1283
     30 H5         -1.1495   -1.7251    0.5181 H         1 <0>         0.0840
     31 H6         -2.0556   -0.1931    0.5353 H         1 <0>         0.0424
     32 H7         -1.8099   -0.1468   -1.8821 H         1 <0>         0.3437
     33 H8         -2.8607   -2.7213   -0.9044 H         1 <0>         0.0775
     34 H9         -3.7669   -1.1893   -0.8871 H         1 <0>         0.0342
     35 H10        -3.5482   -1.0323   -3.3521 H         1 <0>         0.0748
     36 H11        -2.6421   -2.5642   -3.3693 H         1 <0>         0.0881
     37 H12        -3.7531   -4.6699   -2.9002 H         1 <0>         0.1399
     38 H13        -5.8666   -5.9296   -2.9503 H         1 <0>         0.1368
     39 H14        -5.9247   -0.9997   -2.8685 H         1 <0>         0.1340
     40 H15       -10.1475   -3.5150   -2.8865 H         1 <0>         0.1330
     41 H16        -9.2920   -3.4821   -4.4614 H         1 <0>         0.0857
     42 H17         3.6417    3.2357   -0.0162 H         1 <0>         0.1391
     43 H18         4.8390    0.4142   -0.0421 H         1 <0>         0.1348
     44 H19         7.2722    0.6083   -0.0648 H         1 <0>         0.4097
     45 H20         9.2689    1.7391   -0.0786 H         1 <0>         0.3888
@<TRIPOS>BOND
     1    1    6 ar
     2    1    2 ar
     3    1   26 1
     4    2    3 ar
     5    2   27 1
     6    3    4 ar
     7    3   20 1
     8    4    5 ar
     9    4   28 1
    10    5    6 ar
    11    5   29 1
    12    6    7 1
    13    7    8 1
    14    7   30 1
    15    7   31 1
    16    8    9 1
    17    8   32 1
    18    9   10 1
    19    9   33 1
    20    9   34 1
    21   10   11 1
    22   10   35 1
    23   10   36 1
    24   11   16 ar
    25   11   12 ar
    26   12   13 ar
    27   12   37 1
    28   13   14 ar
    29   13   38 1
    30   14   19 1
    31   14   15 ar
    32   15   16 ar
    33   15   17 1
    34   16   39 1
    35   17   18 1
    36   18   19 1
    37   18   40 1
    38   18   41 1
    39   20   21 2
    40   20   42 1
    41   21   22 1
    42   21   43 1
    43   22   23 2
    44   22   24 am
    45   24   25 1
    46   24   44 1
    47   25   45 1
@<TRIPOS>MOLECULE
CHEMBL26844
   44    46     0     0     0
SMALL
USER_CHARGES

@<TRIPOS>ATOM
      1 C1         -0.0167    1.3791    0.0096 C.ar      1 <0>        -0.1129
      2 C2          1.1686    2.0923    0.0021 C.ar      1 <0>        -0.1182
      3 C3          2.3774    1.4268   -0.0135 C.ar      1 <0>        -0.1054
      4 C4          2.4025    0.0330   -0.0212 C.ar      1 <0>        -0.0575
      5 C5          1.2049   -0.6804   -0.0131 C.ar      1 <0>        -0.1058
      6 C6          0.0021   -0.0041    0.0020 C.ar      1 <0>        -0.1187
      7 C7          3.6981   -0.6879   -0.0385 C.ar      1 <0>        -0.0135
      8 C8          4.8948    0.0291   -0.0411 C.ar      1 <0>        -0.1197
      9 C9          6.0982   -0.6392   -0.0571 C.ar      1 <0>        -0.0526
     10 C10         6.1208   -2.0360   -0.0702 C.ar      1 <0>        -0.1387
     11 C11         4.9218   -2.7531   -0.0671 C.ar      1 <0>        -0.0808
     12 C12         3.7195   -2.0828   -0.0462 C.ar      1 <0>        -0.1200
     13 C13         7.4115   -2.7542   -0.0879 C.2       1 <0>         0.5607
     14 O1          8.4546   -2.1298   -0.0911 O.2       1 <0>        -0.5320
     15 N1          7.4328   -4.1018   -0.1005 N.am      1 <0>        -0.7244
     16 C14         8.7129   -4.8140   -0.1181 C.3       1 <0>         0.1572
     17 C15         8.4609   -6.2998   -0.1297 C.ar      1 <0>        -0.0822
     18 C16         8.3504   -6.9889    1.0650 C.ar      1 <0>        -0.1030
     19 C17         8.1197   -8.3491    1.0614 C.ar      1 <0>        -0.0549
     20 C18         7.9979   -9.0299   -0.1509 C.ar      1 <0>        -0.1163
     21 C19         8.1104   -8.3287   -1.3525 C.ar      1 <0>        -0.0890
     22 C20         8.3355   -6.9677   -1.3348 C.ar      1 <0>        -0.1044
     23 C21         7.7512  -10.4876   -0.1623 C.2       1 <0>         0.5702
     24 O2          7.6540  -11.0958    0.8857 O.2       1 <0>        -0.5120
     25 N2          7.6340  -11.1421   -1.3346 N.am      1 <0>        -0.5929
     26 O3          7.3977  -12.5382   -1.3455 O.3       1 <0>        -0.3118
     27 H1         -0.9603    1.9042    0.0260 H         1 <0>         0.1247
     28 H2          1.1479    3.1721    0.0082 H         1 <0>         0.1265
     29 H3          3.3022    1.9846   -0.0200 H         1 <0>         0.1273
     30 H4          1.2183   -1.7603   -0.0194 H         1 <0>         0.1265
     31 H5         -0.9264   -0.5557    0.0083 H         1 <0>         0.1262
     32 H6          4.8770    1.1089   -0.0310 H         1 <0>         0.1343
     33 H7          7.0245   -0.0839   -0.0599 H         1 <0>         0.1399
     34 H8          4.9381   -3.8329   -0.0772 H         1 <0>         0.1275
     35 H9          2.7926   -2.6369   -0.0396 H         1 <0>         0.1329
     36 H10         6.6005   -4.6000   -0.0980 H         1 <0>         0.4021
     37 H11         9.2726   -4.5335   -1.0103 H         1 <0>         0.0834
     38 H12         9.2878   -4.5499    0.7695 H         1 <0>         0.0839
     39 H13         8.4452   -6.4610    2.0024 H         1 <0>         0.1373
     40 H14         8.0340   -8.8859    1.9946 H         1 <0>         0.1433
     41 H15         8.0171   -8.8497   -2.2939 H         1 <0>         0.1288
     42 H16         8.4184   -6.4232   -2.2638 H         1 <0>         0.1353
     43 H17         7.7115  -10.6568   -2.1709 H         1 <0>         0.4080
     44 H18         7.3285  -12.9185   -2.2319 H         1 <0>         0.3905
@<TRIPOS>BOND
     1    1    6 ar
     2    1    2 ar
     3    1   27 1
     4    2    3 ar
     5    2   28 1
     6    3    4 ar
     7    3   29 1
     8    4    5 ar
     9    4    7 1
    10    5    6 ar
    11    5   30 1
    12    6   31 1
    13    7   12 ar
    14    7    8 ar
    15    8    9 ar
    16    8   32 1
    17    9   10 ar
    18    9   33 1
    19   10   11 ar
    20   10   13 1
    21   11   12 ar
    22   11   34 1
    23   12   35 1
    24   13   14 2
    25   13   15 am
    26   15   16 1
    27   15   36 1
    28   16   17 1
    29   16   37 1
    30   16   38 1
    31   17   22 ar
    32   17   18 ar
    33   18   19 ar
    34   18   39 1
    35   19   20 ar
    36   19   40 1
    37   20   21 ar
    38   20   23 1
    39   21   22 ar
    40   21   41 1
    41   22   42 1
    42   23   24 2
    43   23   25 am
    44   25   26 1
    45   25   43 1
    46   26   44 1
@<TRIPOS>MOLECULE
CHEMBL518957
   47    50     0     0     0
SMALL
USER_CHARGES

@<TRIPOS>ATOM
      1 C1         -0.0167    1.3788    0.0096 C.ar      1 <0>        -0.1256
      2 C2          1.1668    2.0940    0.0022 C.ar      1 <0>        -0.1002
      3 C3          2.3807    1.4301   -0.0151 C.ar      1 <0>        -0.1414
      4 C4          2.4062    0.0470   -0.0238 C.ar      1 <0>         0.1701
      5 C5          1.2128   -0.6773   -0.0126 C.ar      1 <0>         0.0982
      6 C6          0.0021   -0.0041    0.0020 C.ar      1 <0>        -0.1167
      7 N1          1.2542   -2.0767   -0.0099 N.am      1 <0>        -0.6518
      8 C7          2.3940   -2.7311   -0.3031 C.2       1 <0>         0.5146
      9 O1          2.4194   -3.9428   -0.2529 O.2       1 <0>        -0.5199
     10 C8          3.6385   -1.9754   -0.6933 C.3       1 <0>         0.1576
     11 H1          4.5187   -2.5288   -0.3662 H         1 <0>         0.1217
     12 N2          3.6197   -0.6546   -0.0475 N.pl3     1 <0>        -0.6238
     13 C9          4.8311   -0.0896    0.5521 C.3       1 <0>         0.1712
     14 C10         4.9175   -0.5067    1.9977 C.ar      1 <0>        -0.0818
     15 C11         4.3371    0.2794    2.9772 C.ar      1 <0>        -0.1035
     16 C12         4.4126   -0.0967    4.3024 C.ar      1 <0>        -0.0537
     17 C13         5.0764   -1.2731    4.6540 C.ar      1 <0>        -0.1219
     18 C14         5.6597   -2.0616    3.6609 C.ar      1 <0>        -0.0875
     19 C15         5.5721   -1.6770    2.3389 C.ar      1 <0>        -0.1108
     20 C16         5.1616   -1.6821    6.0722 C.2       1 <0>         0.5713
     21 O2          4.6530   -0.9933    6.9350 O.2       1 <0>        -0.5139
     22 N3          5.8032   -2.8186    6.4084 N.am      1 <0>        -0.5934
     23 O3          5.8849   -3.2103    7.7667 O.3       1 <0>        -0.3124
     24 C17         3.6775   -1.8037   -2.2132 C.3       1 <0>        -0.0461
     25 C18         4.9792   -1.1576   -2.6124 C.2       1 <0>        -0.1366
     26 C19         6.1573   -1.7425   -2.9399 C.2       1 <0>        -0.1561
     27 C20         7.2321   -0.9418   -3.2781 C.2       1 <0>        -0.1562
     28 C21         7.0761    0.4047   -3.2722 C.2       1 <0>        -0.1765
     29 S1          5.3674    0.5764   -2.7843 S.3       1 <0>         0.0498
     30 H2         -0.9608    1.9030    0.0260 H         1 <0>         0.1271
     31 H3          1.1436    3.1737    0.0095 H         1 <0>         0.1273
     32 H4          3.3046    1.9895   -0.0221 H         1 <0>         0.1302
     33 H5         -0.9251   -0.5579    0.0078 H         1 <0>         0.1284
     34 H6          0.4536   -2.5802    0.2056 H         1 <0>         0.4126
     35 H7          5.7066   -0.4552    0.0155 H         1 <0>         0.0884
     36 H8          4.7943    0.9979    0.4894 H         1 <0>         0.0940
     37 H9          3.8241    1.1896    2.7039 H         1 <0>         0.1330
     38 H10         3.9595    0.5180    5.0661 H         1 <0>         0.1401
     39 H11         6.1747   -2.9730    3.9264 H         1 <0>         0.1256
     40 H12         6.0192   -2.2884    1.5691 H         1 <0>         0.1287
     41 H13         6.2091   -3.3683    5.7200 H         1 <0>         0.4077
     42 H14         6.3637   -4.0382    7.9093 H         1 <0>         0.3899
     43 H15         3.5947   -2.7797   -2.6914 H         1 <0>         0.1032
     44 H16         2.8468   -1.1726   -2.5290 H         1 <0>         0.0884
     45 H17         6.2549   -2.8181   -2.9364 H         1 <0>         0.1330
     46 H18         8.1819   -1.3824   -3.5427 H         1 <0>         0.1330
     47 H19         7.7973    1.1739   -3.5059 H         1 <0>         0.1845
@<TRIPOS>BOND
     1    1    6 ar
     2    1    2 ar
     3    1   30 1
     4    2    3 ar
     5    2   31 1
     6    3    4 ar
     7    3   32 1
     8    4   12 1
     9    4    5 ar
    10    5    6 ar
    11    5    7 1
    12    6   33 1
    13    7    8 am
    14    7   34 1
    15    8    9 2
    16    8   10 1
    17   10   11 1
    18   10   12 1
    19   10   24 1
    20   12   13 1
    21   13   14 1
    22   13   35 1
    23   13   36 1
    24   14   19 ar
    25   14   15 ar
    26   15   16 ar
    27   15   37 1
    28   16   17 ar
    29   16   38 1
    30   17   18 ar
    31   17   20 1
    32   18   19 ar
    33   18   39 1
    34   19   40 1
    35   20   21 2
    36   20   22 am
    37   22   23 1
    38   22   41 1
    39   23   42 1
    40   24   25 1
    41   24   43 1
    42   24   44 1
    43   25   29 1
    44   25   26 2
    45   26   27 1
    46   26   45 1
    47   27   28 2
    48   27   46 1
    49   28   29 1
    50   28   47 1
@<TRIPOS>MOLECULE
CHEMBL140899
   44    45     0     0     0
SMALL
USER_CHARGES

@<TRIPOS>ATOM
      1 C1         -0.0167    1.3784    0.0096 C.ar      1 <0>        -0.1404
      2 C2          1.1698    2.0883    0.0021 C.ar      1 <0>        -0.0772
      3 C3          2.3773    1.4175   -0.0134 C.ar      1 <0>        -0.1423
      4 C4          2.3989    0.0304   -0.0210 C.ar      1 <0>         0.1104
      5 C5          1.2070   -0.6796   -0.0130 C.ar      1 <0>        -0.2036
      6 C6          0.0021   -0.0041    0.0020 C.ar      1 <0>        -0.0787
      7 O1          3.5855   -0.6319   -0.0368 O.3       1 <0>        -0.3297
      8 C7          3.5315   -2.0598   -0.0438 C.3       1 <0>         0.0248
      9 C8          4.9536   -2.6239   -0.0615 C.3       1 <0>         0.0003
     10 N1          5.6374   -2.2671    1.1887 N.4       1 <0>        -0.5101
     11 C9          7.0028   -2.8087    1.1717 C.3       1 <0>         0.0453
     12 C10         7.7044   -2.4426    2.4543 C.ar      1 <0>        -0.1632
     13 C11         8.4162   -1.2584    2.5358 C.ar      1 <0>        -0.0886
     14 C12         9.0612   -0.9167    3.7056 C.ar      1 <0>        -0.0927
     15 C13         8.9944   -1.7699    4.8115 C.ar      1 <0>        -0.0283
     16 C14         8.2728   -2.9643    4.7214 C.ar      1 <0>        -0.1046
     17 C15         7.6289   -3.2896    3.5462 C.ar      1 <0>        -0.0900
     18 C16         9.6805   -1.4127    6.0640 C.2       1 <0>        -0.0368
     19 C17         9.6138   -2.2378    7.1280 C.2       1 <0>        -0.1735
     20 C18        10.2962   -1.8825    8.3739 C.2       1 <0>         0.5538
     21 O2         10.9237   -0.8425    8.4487 O.2       1 <0>        -0.5153
     22 N2         10.2295   -2.7074    9.4376 N.am      1 <0>        -0.5901
     23 O3         10.8895   -2.3638   10.6424 O.3       1 <0>        -0.3108
     24 H1         -0.9596    1.9047    0.0260 H         1 <0>         0.1319
     25 H2          1.1525    3.1682    0.0080 H         1 <0>         0.1368
     26 H3          3.3038    1.9724   -0.0200 H         1 <0>         0.1329
     27 H4          1.2211   -1.7595   -0.0193 H         1 <0>         0.1272
     28 H5         -0.9260   -0.5563    0.0082 H         1 <0>         0.1315
     29 H6          3.0134   -2.4083    0.8497 H         1 <0>         0.0868
     30 H7          2.9951   -2.3988   -0.9302 H         1 <0>         0.1104
     31 H8          4.9129   -3.7090   -0.1564 H         1 <0>         0.1526
     32 H9          5.4999   -2.2055   -0.9067 H         1 <0>         0.1444
     33 H10         5.6751   -1.2626    1.2766 H         1 <0>         0.4348
     34 H11         6.9622   -3.8938    1.0768 H         1 <0>         0.1400
     35 H12         7.5492   -2.3902    0.3265 H         1 <0>         0.1405
     36 H13         8.4669   -0.6006    1.6808 H         1 <0>         0.1371
     37 H14         9.6169    0.0074    3.7675 H         1 <0>         0.1436
     38 H15         8.2169   -3.6285    5.5712 H         1 <0>         0.1402
     39 H16         7.0676   -4.2096    3.4765 H         1 <0>         0.1356
     40 H17        10.2373   -0.4897    6.1304 H         1 <0>         0.1478
     41 H18         9.0569   -3.1608    7.0616 H         1 <0>         0.1368
     42 H19         9.7294   -3.5364    9.3780 H         1 <0>         0.4101
     43 H20        10.7846   -3.0164   11.3482 H         1 <0>         0.3932
     44 H21         5.1317   -2.6544    1.9711 H         1 <0>         0.4269
@<TRIPOS>BOND
     1    1    6 ar
     2    1    2 ar
     3    1   24 1
     4    2    3 ar
     5    2   25 1
     6    3    4 ar
     7    3   26 1
     8    4    5 ar
     9    4    7 1
    10    5    6 ar
    11    5   27 1
    12    6   28 1
    13    7    8 1
    14    8    9 1
    15    8   29 1
    16    8   30 1
    17    9   10 1
    18    9   31 1
    19    9   32 1
    20   10   11 1
    21   10   33 1
    22   10   44 1
    23   11   12 1
    24   11   34 1
    25   11   35 1
    26   12   17 ar
    27   12   13 ar
    28   13   14 ar
    29   13   36 1
    30   14   15 ar
    31   14   37 1
    32   15   16 ar
    33   15   18 1
    34   16   17 ar
    35   16   38 1
    36   17   39 1
    37   18   19 2
    38   18   40 1
    39   19   20 1
    40   19   41 1
    41   20   21 2
    42   20   22 am
    43   22   23 1
    44   22   42 1
    45   23   43 1
@<TRIPOS>MOLECULE
CHEMBL140811
   54    57     0     0     0
SMALL
USER_CHARGES

@<TRIPOS>ATOM
      1 C1         -0.0165    1.3620    0.0095 C.ar      1 <0>        -0.1360
      2 C2          1.1697    2.0834    0.0021 C.ar      1 <0>        -0.0927
      3 C3          2.3856    1.4362   -0.0134 C.ar      1 <0>        -0.1259
      4 C4          2.4281    0.0456   -0.0212 C.ar      1 <0>         0.0952
      5 C5          1.2234   -0.6807   -0.0132 C.ar      1 <0>        -0.1001
      6 C6          0.0021   -0.0041    0.0020 C.ar      1 <0>        -0.0786
      7 C7          1.6036   -2.0953   -0.0245 C.2       1 <0>        -0.1858
      8 C8          2.9451   -2.1410   -0.0380 C.2       1 <0>         0.0665
      9 N1          3.4551   -0.8713   -0.0363 N.pl3     1 <0>        -0.5900
     10 H1          4.3995   -0.6501   -0.0442 H         1 <0>         0.4206
     11 C9          0.6664   -3.2754   -0.0210 C.3       1 <0>        -0.0148
     12 C10         0.9325   -4.1371    1.2167 C.3       1 <0>        -0.1384
     13 C11         0.0333   -5.3745    1.1730 C.3       1 <0>        -0.0070
     14 N2          0.3232   -6.1519   -0.0378 N.4       1 <0>        -0.3814
     15 C12         0.0022   -5.3567   -1.2291 C.3       1 <0>        -0.0134
     16 C13         0.9002   -4.1187   -1.2778 C.3       1 <0>        -0.1368
     17 C14        -0.4863   -7.3777   -0.0364 C.3       1 <0>         0.0425
     18 C15        -0.1014   -8.2352   -1.2144 C.ar      1 <0>        -0.1538
     19 C16        -0.7532   -8.0748   -2.4248 C.ar      1 <0>        -0.0947
     20 C17        -0.4070   -8.8559   -3.5071 C.ar      1 <0>        -0.0916
     21 C18         0.6056   -9.8118   -3.3795 C.ar      1 <0>        -0.0315
     22 C19         1.2597   -9.9675   -2.1534 C.ar      1 <0>        -0.1024
     23 C20         0.9057   -9.1752   -1.0817 C.ar      1 <0>        -0.0913
     24 C21         0.9809  -10.6501   -4.5299 C.2       1 <0>        -0.0356
     25 C22         1.9576  -11.5705   -4.4030 C.2       1 <0>        -0.1750
     26 C23         2.3309  -12.4044   -5.5473 C.2       1 <0>         0.5539
     27 O1          1.7594  -12.2665   -6.6129 O.2       1 <0>        -0.5158
     28 N3          3.3074  -13.3246   -5.4205 N.am      1 <0>        -0.5902
     29 O2          3.6684  -14.1310   -6.5271 O.3       1 <0>        -0.3109
     30 H2         -0.9613    1.8849    0.0259 H         1 <0>         0.1263
     31 H3          1.1388    3.1630    0.0081 H         1 <0>         0.1303
     32 H4          3.3028    2.0064   -0.0198 H         1 <0>         0.1238
     33 H5         -0.9246   -0.5587    0.0082 H         1 <0>         0.1195
     34 H6          3.5346   -3.0459   -0.0490 H         1 <0>         0.1651
     35 H7         -0.3646   -2.9221   -0.0058 H         1 <0>         0.0937
     36 H8          1.9776   -4.4468    1.2267 H         1 <0>         0.0861
     37 H9          0.7145   -3.5603    2.1155 H         1 <0>         0.1139
     38 H10         0.2201   -5.9901    2.0529 H         1 <0>         0.1309
     39 H11        -1.0114   -5.0637    1.1632 H         1 <0>         0.1302
     40 H12         0.1660   -5.9592   -2.1226 H         1 <0>         0.1312
     41 H13        -1.0418   -5.0463   -1.1877 H         1 <0>         0.1293
     42 H14         0.6591   -3.5287   -2.1620 H         1 <0>         0.1128
     43 H15         1.9446   -4.4280   -1.3195 H         1 <0>         0.0855
     44 H16        -0.3096   -7.9288    0.8873 H         1 <0>         0.1376
     45 H17        -1.5420   -7.1160   -0.1070 H         1 <0>         0.1366
     46 H18        -1.5351   -7.3361   -2.5217 H         1 <0>         0.1363
     47 H19        -0.9170   -8.7301   -4.4508 H         1 <0>         0.1431
     48 H20         2.0425  -10.7039   -2.0470 H         1 <0>         0.1396
     49 H21         1.4129   -9.2913   -0.1353 H         1 <0>         0.1352
     50 H22         0.4737  -10.5277   -5.4755 H         1 <0>         0.1473
     51 H23         2.4648  -11.6929   -3.4574 H         1 <0>         0.1367
     52 H24         3.7630  -13.4345   -4.5712 H         1 <0>         0.4100
     53 H25         4.3777  -14.7610   -6.3399 H         1 <0>         0.3931
     54 H26         1.3018   -6.3975   -0.0523 H         1 <0>         0.4209
@<TRIPOS>BOND
     1    1    6 ar
     2    1    2 ar
     3    1   30 1
     4    2    3 ar
     5    2   31 1
     6    3    4 ar
     7    3   32 1
     8    4    9 1
     9    4    5 ar
    10    5    6 ar
    11    5    7 1
    12    6   33 1
    13    7    8 2
    14    7   11 1
    15    8    9 1
    16    8   34 1
    17    9   10 1
    18   11   16 1
    19   11   12 1
    20   11   35 1
    21   12   13 1
    22   12   36 1
    23   12   37 1
    24   13   14 1
    25   13   38 1
    26   13   39 1
    27   14   15 1
    28   14   17 1
    29   14   54 1
    30   15   16 1
    31   15   40 1
    32   15   41 1
    33   16   42 1
    34   16   43 1
    35   17   18 1
    36   17   44 1
    37   17   45 1
    38   18   23 ar
    39   18   19 ar
    40   19   20 ar
    41   19   46 1
    42   20   21 ar
    43   20   47 1
    44   21   22 ar
    45   21   24 1
    46   22   23 ar
    47   22   48 1
    48   23   49 1
    49   24   25 2
    50   24   50 1
    51   25   26 1
    52   25   51 1
    53   26   27 2
    54   26   28 am
    55   28   29 1
    56   28   52 1
    57   29   53 1
@<TRIPOS>MOLECULE
CHEMBL1095136
   63    66     0     0     0
SMALL
USER_CHARGES

@<TRIPOS>ATOM
      1 C1          1.7367   -1.3560   -7.3625 C.3       1 <0>        -0.1892
      2 C2          0.9030   -1.2602   -6.0831 C.3       1 <0>        -0.0107
      3 N1          1.5942   -1.9636   -4.9944 N.4       1 <0>        -0.3804
      4 C3          1.6724   -3.3949   -5.3106 C.3       1 <0>        -0.0187
      5 C4          2.4622   -4.1199   -4.2189 C.3       1 <0>        -0.1924
      6 C5          1.7551   -3.9306   -2.8738 C.3       1 <0>        -0.1590
      7 C6          1.6127   -2.4326   -2.5894 C.3       1 <0>         0.1165
      8 H1          1.0609   -2.2893   -1.6603 H         1 <0>         0.1397
      9 C7          0.8544   -1.7701   -3.7415 C.3       1 <0>        -0.1002
     10 N2          2.9422   -1.8295   -2.4667 N.pl3     1 <0>        -0.4684
     11 C8          4.1387   -2.4876   -2.5182 C.2       1 <0>        -0.0007
     12 C9          5.1126   -1.5507   -2.3625 C.2       1 <0>         0.0689
     13 N3          4.5190   -0.3518   -2.2199 N.2       1 <0>        -0.4362
     14 C10         3.2166   -0.5049   -2.2857 C.2       1 <0>         0.2361
     15 C11         2.2138    0.5774   -2.1780 C.ar      1 <0>        -0.0114
     16 C12         0.8520    0.2815   -2.2733 C.ar      1 <0>        -0.1878
     17 C13        -0.0868    1.2895   -2.1727 C.ar      1 <0>        -0.1018
     18 C14         0.3121    2.5963   -1.9774 C.ar      1 <0>        -0.0920
     19 C15         1.6725    2.9078   -1.8805 C.ar      1 <0>        -0.0463
     20 C16         2.6254    1.8918   -1.9757 C.ar      1 <0>        -0.0510
     21 C17         2.0978    4.3019   -1.6726 C.2       1 <0>        -0.0263
     22 C18         1.1759    5.2805   -1.5754 C.2       1 <0>        -0.1830
     23 C19         1.5988    6.6670   -1.3686 C.2       1 <0>         0.5553
     24 O1          2.7827    6.9359   -1.2846 O.2       1 <0>        -0.5168
     25 N4          0.6770    7.6454   -1.2714 N.am      1 <0>        -0.5910
     26 O2          1.0861    8.9862   -1.0714 O.3       1 <0>        -0.3119
     27 C20         6.5742   -1.8064   -2.3518 C.ar      1 <0>        -0.0210
     28 C21         7.1352   -2.6957   -3.2663 C.ar      1 <0>        -0.1072
     29 C22         8.4953   -2.9297   -3.2518 C.ar      1 <0>        -0.1183
     30 C23         9.3012   -2.2835   -2.3318 C.ar      1 <0>        -0.1079
     31 C24         8.7496   -1.3998   -1.4218 C.ar      1 <0>        -0.1154
     32 C25         7.3916   -1.1538   -1.4310 C.ar      1 <0>        -0.0881
     33 C26         4.3407   -3.9686   -2.7103 C.3       1 <0>        -0.1455
     34 H2          2.7119   -0.8985   -7.1957 H         1 <0>         0.0800
     35 H3          1.8683   -2.4037   -7.6327 H         1 <0>         0.0813
     36 H4          1.2238   -0.8340   -8.1703 H         1 <0>         0.1094
     37 H5          0.7714   -0.2125   -5.8129 H         1 <0>         0.1303
     38 H6         -0.0722   -1.7176   -6.2499 H         1 <0>         0.1321
     39 H7          0.6659   -3.8097   -5.3666 H         1 <0>         0.1304
     40 H8          2.1730   -3.5278   -6.2697 H         1 <0>         0.1346
     41 H9          2.5176   -5.1827   -4.4546 H         1 <0>         0.1245
     42 H10         3.4690   -3.7060   -4.1622 H         1 <0>         0.1282
     43 H11         0.7672   -4.3896   -2.9135 H         1 <0>         0.1094
     44 H12         2.3435   -4.3973   -2.0838 H         1 <0>         0.1311
     45 H13         0.7511   -0.7035   -3.5421 H         1 <0>         0.1997
     46 H14        -0.1346   -2.2195   -3.8309 H         1 <0>         0.1526
     47 H15         0.5322   -0.7386   -2.4265 H         1 <0>         0.1597
     48 H16        -1.1381    1.0540   -2.2476 H         1 <0>         0.1396
     49 H17        -0.4272    3.3797   -1.8996 H         1 <0>         0.1394
     50 H18         3.6770    2.1250   -1.8973 H         1 <0>         0.1498
     51 H19         3.1485    4.5406   -1.5980 H         1 <0>         0.1466
     52 H20         0.1252    5.0418   -1.6499 H         1 <0>         0.1366
     53 H21        -0.2666    7.4311   -1.3384 H         1 <0>         0.4098
     54 H22         0.3547    9.6162   -1.0143 H         1 <0>         0.3922
     55 H23         6.5069   -3.2010   -3.9848 H         1 <0>         0.1179
     56 H24         8.9312   -3.6190   -3.9599 H         1 <0>         0.1271
     57 H25        10.3649   -2.4699   -2.3238 H         1 <0>         0.1272
     58 H26         9.3834   -0.8982   -0.7054 H         1 <0>         0.1285
     59 H27         6.9625   -0.4602   -0.7229 H         1 <0>         0.1254
     60 H28         4.7836   -4.1509   -3.6894 H         1 <0>         0.0895
     61 H29         5.0054   -4.3483   -1.9344 H         1 <0>         0.0879
     62 H30         3.3790   -4.4777   -2.6461 H         1 <0>         0.1206
     63 H31         2.5268   -1.5920   -4.8939 H         1 <0>         0.4210
@<TRIPOS>BOND
     1    1    2 1
     2    1   34 1
     3    1   35 1
     4    1   36 1
     5    2    3 1
     6    2   37 1
     7    2   38 1
     8    3    9 1
     9    3    4 1
    10    3   63 1
    11    4    5 1
    12    4   39 1
    13    4   40 1
    14    5    6 1
    15    5   41 1
    16    5   42 1
    17    6    7 1
    18    6   43 1
    19    6   44 1
    20    7    8 1
    21    7    9 1
    22    7   10 1
    23    9   45 1
    24    9   46 1
    25   10   14 1
    26   10   11 1
    27   11   12 2
    28   11   33 1
    29   12   13 1
    30   12   27 1
    31   13   14 2
    32   14   15 1
    33   15   20 ar
    34   15   16 ar
    35   16   17 ar
    36   16   47 1
    37   17   18 ar
    38   17   48 1
    39   18   19 ar
    40   18   49 1
    41   19   20 ar
    42   19   21 1
    43   20   50 1
    44   21   22 2
    45   21   51 1
    46   22   23 1
    47   22   52 1
    48   23   24 2
    49   23   25 am
    50   25   26 1
    51   25   53 1
    52   26   54 1
    53   27   32 ar
    54   27   28 ar
    55   28   29 ar
    56   28   55 1
    57   29   30 ar
    58   29   56 1
    59   30   31 ar
    60   30   57 1
    61   31   32 ar
    62   31   58 1
    63   32   59 1
    64   33   60 1
    65   33   61 1
    66   33   62 1
@<TRIPOS>MOLECULE
CHEMBL335812
   44    46     0     0     0
SMALL
USER_CHARGES

@<TRIPOS>ATOM
      1 C1         -0.0165    1.3620    0.0095 C.ar      1 <0>        -0.1368
      2 C2          1.1697    2.0834    0.0021 C.ar      1 <0>        -0.0721
      3 C3          2.3856    1.4362   -0.0134 C.ar      1 <0>        -0.1369
      4 C4          2.4281    0.0456   -0.0212 C.ar      1 <0>         0.1195
      5 C5          1.2234   -0.6807   -0.0132 C.ar      1 <0>        -0.1259
      6 C6          0.0021   -0.0041    0.0020 C.ar      1 <0>        -0.0605
      7 C7          1.6036   -2.0953   -0.0245 C.2       1 <0>        -0.1216
      8 C8          2.9451   -2.1410   -0.0380 C.2       1 <0>        -0.0200
      9 N1          3.4551   -0.8713   -0.0363 N.pl3     1 <0>        -0.5911
     10 H1          4.3995   -0.6501   -0.0442 H         1 <0>         0.4174
     11 C9          3.7676   -3.4037   -0.0533 C.3       1 <0>         0.0710
     12 N2          4.1224   -3.7402   -1.4386 N.4       1 <0>        -0.5110
     13 C10         4.9241   -4.9710   -1.4535 C.3       1 <0>         0.0446
     14 C11         5.2881   -5.3162   -2.8746 C.ar      1 <0>        -0.1630
     15 C12         4.4483   -6.1216   -3.6240 C.ar      1 <0>        -0.0886
     16 C13         4.7746   -6.4423   -4.9248 C.ar      1 <0>        -0.0926
     17 C14         5.9572   -5.9512   -5.4865 C.ar      1 <0>        -0.0279
     18 C15         6.8002   -5.1376   -4.7230 C.ar      1 <0>        -0.1045
     19 C16         6.4575   -4.8216   -3.4253 C.ar      1 <0>        -0.0904
     20 C17         6.3132   -6.2892   -6.8743 C.2       1 <0>        -0.0372
     21 C18         7.4541   -5.8138   -7.4124 C.2       1 <0>        -0.1731
     22 C19         7.8082   -6.1500   -8.7929 C.2       1 <0>         0.5537
     23 O1          7.0725   -6.8586   -9.4544 O.2       1 <0>        -0.5151
     24 N3          8.9489   -5.6748   -9.3309 N.am      1 <0>        -0.5901
     25 O2          9.2913   -5.9999  -10.6658 O.3       1 <0>        -0.3106
     26 H2         -0.9613    1.8849    0.0259 H         1 <0>         0.1330
     27 H3          1.1388    3.1630    0.0081 H         1 <0>         0.1356
     28 H4          3.3028    2.0064   -0.0198 H         1 <0>         0.1272
     29 H5         -0.9246   -0.5587    0.0082 H         1 <0>         0.1304
     30 H6          0.9320   -2.9411   -0.0220 H         1 <0>         0.1583
     31 H7          4.6771   -3.2519    0.5280 H         1 <0>         0.1400
     32 H8          3.1899   -4.2190    0.3821 H         1 <0>         0.1559
     33 H9          3.2805   -3.8806   -1.9767 H         1 <0>         0.4312
     34 H10         5.8336   -4.8193   -0.8722 H         1 <0>         0.1394
     35 H11         4.3464   -5.7863   -1.0181 H         1 <0>         0.1426
     36 H12         3.5353   -6.5002   -3.1887 H         1 <0>         0.1378
     37 H13         4.1186   -7.0715   -5.5081 H         1 <0>         0.1439
     38 H14         7.7155   -4.7548   -5.1498 H         1 <0>         0.1400
     39 H15         7.1054   -4.1898   -2.8357 H         1 <0>         0.1347
     40 H16         5.6603   -6.9180   -7.4614 H         1 <0>         0.1480
     41 H17         8.1071   -5.1850   -6.8253 H         1 <0>         0.1367
     42 H18         9.5353   -5.1100   -8.8036 H         1 <0>         0.4100
     43 H19        10.1264   -5.6134  -10.9629 H         1 <0>         0.3932
     44 H20         4.6572   -2.9855   -1.8416 H         1 <0>         0.4250
@<TRIPOS>BOND
     1    1    6 ar
     2    1    2 ar
     3    1   26 1
     4    2    3 ar
     5    2   27 1
     6    3    4 ar
     7    3   28 1
     8    4    9 1
     9    4    5 ar
    10    5    6 ar
    11    5    7 1
    12    6   29 1
    13    7    8 2
    14    7   30 1
    15    8    9 1
    16    8   11 1
    17    9   10 1
    18   11   12 1
    19   11   31 1
    20   11   32 1
    21   12   13 1
    22   12   33 1
    23   12   44 1
    24   13   14 1
    25   13   34 1
    26   13   35 1
    27   14   19 ar
    28   14   15 ar
    29   15   16 ar
    30   15   36 1
    31   16   17 ar
    32   16   37 1
    33   17   18 ar
    34   17   20 1
    35   18   19 ar
    36   18   38 1
    37   19   39 1
    38   20   21 2
    39   20   40 1
    40   21   22 1
    41   21   41 1
    42   22   23 2
    43   22   24 am
    44   24   25 1
    45   24   42 1
    46   25   43 1
@<TRIPOS>MOLECULE
CHEMBL139836
   50    52     0     0     0
SMALL
USER_CHARGES

@<TRIPOS>ATOM
      1 C1         -0.0165    1.3620    0.0095 C.ar      1 <0>        -0.1381
      2 C2          1.1697    2.0834    0.0021 C.ar      1 <0>        -0.0952
      3 C3          2.3856    1.4362   -0.0134 C.ar      1 <0>        -0.1251
      4 C4          2.4281    0.0456   -0.0212 C.ar      1 <0>         0.0939
      5 C5          1.2234   -0.6807   -0.0132 C.ar      1 <0>        -0.1027
      6 C6          0.0021   -0.0041    0.0020 C.ar      1 <0>        -0.0801
      7 C7          1.6036   -2.0953   -0.0245 C.2       1 <0>        -0.1934
      8 C8          2.9451   -2.1410   -0.0380 C.2       1 <0>         0.0683
      9 N1          3.4551   -0.8713   -0.0363 N.pl3     1 <0>        -0.5921
     10 H1          4.3995   -0.6501   -0.0442 H         1 <0>         0.4203
     11 C9          0.6664   -3.2754   -0.0210 C.3       1 <0>        -0.0330
     12 C10         0.2361   -3.5891   -1.4554 C.3       1 <0>        -0.1452
     13 C11        -0.7154   -4.7873   -1.4519 C.3       1 <0>        -0.0118
     14 N2         -1.1286   -5.0885   -2.8290 N.4       1 <0>        -0.5094
     15 C12        -2.0421   -6.2389   -2.8257 C.3       1 <0>         0.0456
     16 C13        -2.4660   -6.5478   -4.2385 C.ar      1 <0>        -0.1623
     17 C14        -3.5919   -5.9414   -4.7676 C.ar      1 <0>        -0.0899
     18 C15        -3.9865   -6.2193   -6.0593 C.ar      1 <0>        -0.0928
     19 C16        -3.2454   -7.1161   -6.8351 C.ar      1 <0>        -0.0292
     20 C17        -2.1087   -7.7244   -6.2935 C.ar      1 <0>        -0.1043
     21 C18        -1.7241   -7.4322   -5.0020 C.ar      1 <0>        -0.0903
     22 C19        -3.6600   -7.4186   -8.2148 C.2       1 <0>        -0.0366
     23 C20        -2.9430   -8.2837   -8.9598 C.2       1 <0>        -0.1739
     24 C21        -3.3554   -8.5846  -10.3322 C.2       1 <0>         0.5539
     25 O1         -4.3454   -8.0538  -10.8003 O.2       1 <0>        -0.5155
     26 N3         -2.6386   -9.4495  -11.0769 N.am      1 <0>        -0.5901
     27 O2         -3.0374   -9.7405  -12.4040 O.3       1 <0>        -0.3108
     28 H2         -0.9613    1.8849    0.0259 H         1 <0>         0.1251
     29 H3          1.1388    3.1630    0.0081 H         1 <0>         0.1295
     30 H4          3.3028    2.0064   -0.0198 H         1 <0>         0.1234
     31 H5         -0.9246   -0.5587    0.0082 H         1 <0>         0.1177
     32 H6          3.5346   -3.0459   -0.0490 H         1 <0>         0.1698
     33 H7          1.1742   -4.1414    0.4036 H         1 <0>         0.0790
     34 H8         -0.2127   -3.0396    0.5787 H         1 <0>         0.0799
     35 H9         -0.2717   -2.7231   -1.8800 H         1 <0>         0.0879
     36 H10         1.1152   -3.8250   -2.0551 H         1 <0>         0.0862
     37 H11        -0.2076   -5.6533   -1.0273 H         1 <0>         0.1326
     38 H12        -1.5945   -4.5514   -0.8522 H         1 <0>         0.1329
     39 H13        -1.5987   -4.2868   -3.2221 H         1 <0>         0.4280
     40 H14        -1.5343   -7.1048   -2.4011 H         1 <0>         0.1386
     41 H15        -2.9212   -6.0030   -2.2260 H         1 <0>         0.1391
     42 H16        -4.1632   -5.2490   -4.1671 H         1 <0>         0.1367
     43 H17        -4.8657   -5.7458   -6.4706 H         1 <0>         0.1433
     44 H18        -1.5315   -8.4184   -6.8865 H         1 <0>         0.1399
     45 H19        -0.8439   -7.8978   -4.5837 H         1 <0>         0.1355
     46 H20        -4.5385   -6.9475   -8.6303 H         1 <0>         0.1476
     47 H21        -2.0645   -8.7548   -8.5443 H         1 <0>         0.1368
     48 H22        -1.8496   -9.8726  -10.7038 H         1 <0>         0.4100
     49 H23        -2.4621  -10.3711  -12.8583 H         1 <0>         0.3932
     50 H24        -0.3148   -5.3068   -3.3842 H         1 <0>         0.4271
@<TRIPOS>BOND
     1    1    6 ar
     2    1    2 ar
     3    1   28 1
     4    2    3 ar
     5    2   29 1
     6    3    4 ar
     7    3   30 1
     8    4    9 1
     9    4    5 ar
    10    5    6 ar
    11    5    7 1
    12    6   31 1
    13    7    8 2
    14    7   11 1
    15    8    9 1
    16    8   32 1
    17    9   10 1
    18   11   12 1
    19   11   33 1
    20   11   34 1
    21   12   13 1
    22   12   35 1
    23   12   36 1
    24   13   14 1
    25   13   37 1
    26   13   38 1
    27   14   15 1
    28   14   39 1
    29   14   50 1
    30   15   16 1
    31   15   40 1
    32   15   41 1
    33   16   21 ar
    34   16   17 ar
    35   17   18 ar
    36   17   42 1
    37   18   19 ar
    38   18   43 1
    39   19   20 ar
    40   19   22 1
    41   20   21 ar
    42   20   44 1
    43   21   45 1
    44   22   23 2
    45   22   46 1
    46   23   24 1
    47   23   47 1
    48   24   25 2
    49   24   26 am
    50   26   27 1
    51   26   48 1
    52   27   49 1
@<TRIPOS>MOLECULE
CHEMBL197480
   54    57     0     0     0
SMALL
USER_CHARGES

@<TRIPOS>ATOM
      1 C1         -0.0402    1.3320    0.0891 C.ar      1 <0>        -0.1100
      2 C2          0.7528    1.2729    1.2197 C.ar      1 <0>        -0.1148
      3 C3          1.9667    0.6129    1.1788 C.ar      1 <0>        -0.0883
      4 C4          2.3874    0.0116    0.0073 C.ar      1 <0>        -0.0947
      5 C5          1.5939    0.0699   -1.1231 C.ar      1 <0>        -0.1026
      6 C6          0.3806    0.7311   -1.0826 C.ar      1 <0>        -0.1149
      7 C7          3.7112   -0.7071   -0.0376 C.3       1 <0>         0.1920
      8 H1          4.4614   -0.0588   -0.4903 H         1 <0>         0.1407
      9 C8          4.1426   -1.0707    1.3846 C.3       1 <0>         0.0501
     10 O1          3.1067   -1.8236    2.0188 O.3       1 <0>        -0.3183
     11 C9          3.3299   -2.2248    3.2852 C.2       1 <0>         0.5074
     12 O2          4.3753   -1.9433    3.8362 O.2       1 <0>        -0.5069
     13 C10         2.3035   -3.0072    4.0040 C.ar      1 <0>        -0.1295
     14 C11         1.1031   -3.3374    3.3717 C.ar      1 <0>        -0.0546
     15 C12         0.1489   -4.0681    4.0488 C.ar      1 <0>        -0.1361
     16 C13         0.3792   -4.4737    5.3515 C.ar      1 <0>        -0.0821
     17 C14         1.5662   -4.1495    5.9842 C.ar      1 <0>        -0.1350
     18 C15         2.5316   -3.4246    5.3167 C.ar      1 <0>        -0.0558
     19 N1          3.5767   -1.9290   -0.8345 N.am      1 <0>        -0.5727
     20 C16         2.6470   -2.8774   -0.6218 C.2       1 <0>         0.5693
     21 O3          1.7991   -2.8564    0.2474 O.2       1 <0>        -0.4197
     22 C17         2.8293   -3.9496   -1.6237 C.ar      1 <0>        -0.1252
     23 C18         2.1800   -5.1477   -1.8839 C.ar      1 <0>        -0.0451
     24 C19         2.6054   -5.9511   -2.9255 C.ar      1 <0>        -0.0783
     25 C20         3.6884   -5.5621   -3.7189 C.ar      1 <0>        -0.0513
     26 C21         4.3493   -4.3533   -3.4621 C.ar      1 <0>        -0.0187
     27 C22         3.9230   -3.5500   -2.4205 C.ar      1 <0>        -0.1407
     28 C23         4.3631   -2.2466   -1.8785 C.2       1 <0>         0.5747
     29 O4          5.2827   -1.5764   -2.3030 O.2       1 <0>        -0.4577
     30 C24         4.1359   -6.4239   -4.8257 C.2       1 <0>        -0.0158
     31 C25         3.5014   -7.5867   -5.0732 C.2       1 <0>        -0.1907
     32 C26         3.9470   -8.4448   -6.1752 C.2       1 <0>         0.5585
     33 O5          4.8896   -8.1070   -6.8664 O.2       1 <0>        -0.5191
     34 N2          3.3124   -9.6078   -6.4228 N.am      1 <0>        -0.5919
     35 O6          3.7427  -10.4365   -7.4872 O.3       1 <0>        -0.3140
     36 H2         -0.9907    1.8439    0.1223 H         1 <0>         0.1238
     37 H3          0.4242    1.7428    2.1350 H         1 <0>         0.1246
     38 H4          2.5867    0.5673    2.0620 H         1 <0>         0.1204
     39 H5          1.9226   -0.3996   -2.0385 H         1 <0>         0.1131
     40 H6         -0.2391    0.7770   -1.9658 H         1 <0>         0.1234
     41 H7          5.0540   -1.6673    1.3465 H         1 <0>         0.0810
     42 H8          4.3286   -0.1590    1.9522 H         1 <0>         0.0949
     43 H9          0.9221   -3.0212    2.3551 H         1 <0>         0.1500
     44 H10        -0.7801   -4.3240    3.5610 H         1 <0>         0.1308
     45 H11        -0.3713   -5.0456    5.8770 H         1 <0>         0.1293
     46 H12         1.7392   -4.4687    7.0014 H         1 <0>         0.1327
     47 H13         3.4597   -3.1764    5.8101 H         1 <0>         0.1360
     48 H14         1.3432   -5.4527   -1.2731 H         1 <0>         0.1476
     49 H15         2.0990   -6.8835   -3.1268 H         1 <0>         0.1475
     50 H16         5.1863   -4.0510   -4.0740 H         1 <0>         0.1503
     51 H17         4.9726   -6.1241   -5.4392 H         1 <0>         0.1477
     52 H18         2.6647   -7.8865   -4.4596 H         1 <0>         0.1381
     53 H19         2.5609   -9.8770   -5.8717 H         1 <0>         0.4102
     54 H20         3.2269  -11.2484   -7.5868 H         1 <0>         0.3903
@<TRIPOS>BOND
     1    1    6 ar
     2    1    2 ar
     3    1   36 1
     4    2    3 ar
     5    2   37 1
     6    3    4 ar
     7    3   38 1
     8    4    5 ar
     9    4    7 1
    10    5    6 ar
    11    5   39 1
    12    6   40 1
    13    7    8 1
    14    7    9 1
    15    7   19 1
    16    9   10 1
    17    9   41 1
    18    9   42 1
    19   10   11 1
    20   11   12 2
    21   11   13 1
    22   13   18 ar
    23   13   14 ar
    24   14   15 ar
    25   14   43 1
    26   15   16 ar
    27   15   44 1
    28   16   17 ar
    29   16   45 1
    30   17   18 ar
    31   17   46 1
    32   18   47 1
    33   19   28 am
    34   19   20 am
    35   20   21 2
    36   20   22 1
    37   22   27 ar
    38   22   23 ar
    39   23   24 ar
    40   23   48 1
    41   24   25 ar
    42   24   49 1
    43   25   26 ar
    44   25   30 1
    45   26   27 ar
    46   26   50 1
    47   27   28 1
    48   28   29 2
    49   30   31 2
    50   30   51 1
    51   31   32 1
    52   31   52 1
    53   32   33 2
    54   32   34 am
    55   34   35 1
    56   34   53 1
    57   35   54 1
@<TRIPOS>MOLECULE
CHEMBL140014
   45    47     0     0     0
SMALL
USER_CHARGES

@<TRIPOS>ATOM
      1 C1         -0.0165    1.3632    0.0095 C.ar      1 <0>        -0.1353
      2 C2          1.1703    2.0818    0.0021 C.ar      1 <0>        -0.0928
      3 C3          2.3860    1.4322   -0.0134 C.ar      1 <0>        -0.1077
      4 C4          2.4272    0.0434   -0.0212 C.ar      1 <0>         0.0502
      5 C5          1.2220   -0.6786   -0.0132 C.ar      1 <0>        -0.1247
      6 C6          0.0021   -0.0041    0.0020 C.ar      1 <0>        -0.0695
      7 C7          1.6125   -2.0934   -0.0246 C.2       1 <0>        -0.1751
      8 C8          2.9523   -2.1110   -0.0379 C.2       1 <0>         0.0093
      9 O1          3.4321   -0.8551   -0.0360 O.3       1 <0>        -0.1930
     10 C9          0.6918   -3.2864   -0.0218 C.3       1 <0>        -0.0449
     11 C10         0.2664   -3.6057   -1.4564 C.3       1 <0>         0.0637
     12 N1         -0.6311   -4.7686   -1.4537 N.3       1 <0>        -0.6849
     13 C11        -1.0609   -5.1051   -2.8175 C.3       1 <0>         0.0954
     14 C12        -1.9781   -6.3000   -2.7747 C.ar      1 <0>        -0.0688
     15 C13        -1.4508   -7.5763   -2.8674 C.ar      1 <0>        -0.1163
     16 C14        -2.2836   -8.6747   -2.8295 C.ar      1 <0>        -0.0895
     17 C15        -3.6642   -8.4965   -2.6966 C.ar      1 <0>        -0.0799
     18 C16        -4.1892   -7.2038   -2.6030 C.ar      1 <0>        -0.0985
     19 C17        -3.3429   -6.1157   -2.6373 C.ar      1 <0>        -0.0991
     20 C18        -4.5602   -9.6637   -2.6557 C.2       1 <0>        -0.0024
     21 C19        -5.8907   -9.4879   -2.5275 C.2       1 <0>        -0.2119
     22 C20        -6.7820  -10.6490   -2.4869 C.2       1 <0>         0.5609
     23 O2         -6.3217  -11.7725   -2.5689 O.2       1 <0>        -0.5252
     24 N2         -8.1121  -10.4732   -2.3586 N.am      1 <0>        -0.5935
     25 O3         -8.9740  -11.5960   -2.3194 O.3       1 <0>        -0.3161
     26 H1         -0.9608    1.8869    0.0259 H         1 <0>         0.1299
     27 H2          1.1414    3.1614    0.0081 H         1 <0>         0.1356
     28 H3          3.3040    2.0012   -0.0199 H         1 <0>         0.1323
     29 H4         -0.9244   -0.5590    0.0075 H         1 <0>         0.1273
     30 H5          3.5588   -3.0046   -0.0487 H         1 <0>         0.2061
     31 H6          1.2114   -4.1454    0.4028 H         1 <0>         0.0740
     32 H7         -0.1907   -3.0629    0.5776 H         1 <0>         0.0844
     33 H8         -0.2531   -2.7467   -1.8810 H         1 <0>         0.0754
     34 H9          1.1490   -3.8293   -2.0558 H         1 <0>         0.0325
     35 H10        -0.1950   -5.5609   -1.0062 H         1 <0>         0.3432
     36 H11        -1.5897   -4.2565   -3.2516 H         1 <0>         0.0834
     37 H12        -0.1876   -5.3390   -3.4264 H         1 <0>         0.0422
     38 H13        -0.3843   -7.7123   -2.9701 H         1 <0>         0.1243
     39 H14        -1.8707   -9.6700   -2.9027 H         1 <0>         0.1301
     40 H15        -5.2544   -7.0582   -2.5005 H         1 <0>         0.1285
     41 H16        -3.7465   -5.1168   -2.5608 H         1 <0>         0.1281
     42 H17        -4.1518  -10.6608   -2.7286 H         1 <0>         0.1392
     43 H18        -6.2991   -8.4908   -2.4546 H         1 <0>         0.1348
     44 H19        -8.4789   -9.5777   -2.2932 H         1 <0>         0.4097
     45 H20        -9.9096  -11.3705   -2.2255 H         1 <0>         0.3889
@<TRIPOS>BOND
     1    1    6 ar
     2    1    2 ar
     3    1   26 1
     4    2    3 ar
     5    2   27 1
     6    3    4 ar
     7    3   28 1
     8    4    9 1
     9    4    5 ar
    10    5    6 ar
    11    5    7 1
    12    6   29 1
    13    7    8 2
    14    7   10 1
    15    8    9 1
    16    8   30 1
    17   10   11 1
    18   10   31 1
    19   10   32 1
    20   11   12 1
    21   11   33 1
    22   11   34 1
    23   12   13 1
    24   12   35 1
    25   13   14 1
    26   13   36 1
    27   13   37 1
    28   14   19 ar
    29   14   15 ar
    30   15   16 ar
    31   15   38 1
    32   16   17 ar
    33   16   39 1
    34   17   18 ar
    35   17   20 1
    36   18   19 ar
    37   18   40 1
    38   19   41 1
    39   20   21 2
    40   20   42 1
    41   21   22 1
    42   21   43 1
    43   22   23 2
    44   22   24 am
    45   24   25 1
    46   24   44 1
    47   25   45 1
@<TRIPOS>MOLECULE
CHEMBL140014__1
   46    48     0     0     0
SMALL
USER_CHARGES

@<TRIPOS>ATOM
      1 C1         -0.0165    1.3632    0.0095 C.ar      1 <0>        -0.1237
      2 C2          1.1703    2.0818    0.0021 C.ar      1 <0>        -0.0859
      3 C3          2.3860    1.4322   -0.0134 C.ar      1 <0>        -0.0991
      4 C4          2.4272    0.0434   -0.0212 C.ar      1 <0>         0.0532
      5 C5          1.2220   -0.6786   -0.0132 C.ar      1 <0>        -0.1281
      6 C6          0.0021   -0.0041    0.0020 C.ar      1 <0>        -0.0817
      7 C7          1.6125   -2.0934   -0.0246 C.2       1 <0>        -0.2088
      8 C8          2.9523   -2.1110   -0.0379 C.2       1 <0>         0.0454
      9 O1          3.4321   -0.8551   -0.0360 O.3       1 <0>        -0.1841
     10 C9          0.6918   -3.2864   -0.0218 C.3       1 <0>        -0.0643
     11 C10         0.2664   -3.6057   -1.4564 C.3       1 <0>        -0.0086
     12 N1         -0.6311   -4.7686   -1.4537 N.4       1 <0>        -0.5091
     13 C11        -1.0395   -5.0752   -2.8311 C.3       1 <0>         0.0460
     14 C12        -1.9602   -6.2682   -2.8283 C.ar      1 <0>        -0.1627
     15 C13        -1.4346   -7.5437   -2.9393 C.ar      1 <0>        -0.0897
     16 C14        -2.2706   -8.6403   -2.9380 C.ar      1 <0>        -0.0929
     17 C15        -3.6527   -8.4611   -2.8237 C.ar      1 <0>        -0.0283
     18 C16        -4.1760   -7.1692   -2.7115 C.ar      1 <0>        -0.1042
     19 C17        -3.3266   -6.0830   -2.7091 C.ar      1 <0>        -0.0899
     20 C18        -4.5522   -9.6264   -2.8219 C.2       1 <0>        -0.0373
     21 C19        -5.8840   -9.4496   -2.7116 C.2       1 <0>        -0.1731
     22 C20        -6.7788  -10.6088   -2.7098 C.2       1 <0>         0.5537
     23 O2         -6.3200  -11.7317   -2.8080 O.2       1 <0>        -0.5154
     24 N2         -8.1103  -10.4321   -2.5995 N.am      1 <0>        -0.5899
     25 O3         -8.9755  -11.5530   -2.5978 O.3       1 <0>        -0.3108
     26 H1         -0.9608    1.8869    0.0259 H         1 <0>         0.1344
     27 H2          1.1414    3.1614    0.0081 H         1 <0>         0.1420
     28 H3          3.3040    2.0012   -0.0199 H         1 <0>         0.1387
     29 H4         -0.9244   -0.5590    0.0075 H         1 <0>         0.1234
     30 H5          3.5588   -3.0046   -0.0487 H         1 <0>         0.2101
     31 H6          1.2114   -4.1454    0.4028 H         1 <0>         0.0979
     32 H7         -0.1907   -3.0629    0.5776 H         1 <0>         0.0970
     33 H8         -0.2531   -2.7467   -1.8810 H         1 <0>         0.1338
     34 H9          1.1490   -3.8293   -2.0558 H         1 <0>         0.1343
     35 H10        -0.1501   -5.5638   -1.0606 H         1 <0>         0.4281
     36 H11        -1.5591   -4.2162   -3.2557 H         1 <0>         0.1388
     37 H12        -0.1570   -5.2987   -3.4305 H         1 <0>         0.1394
     38 H13        -0.3669   -7.6805   -3.0275 H         1 <0>         0.1366
     39 H14        -1.8590   -9.6350   -3.0254 H         1 <0>         0.1434
     40 H15        -5.2424   -7.0228   -2.6232 H         1 <0>         0.1402
     41 H16        -3.7289   -5.0848   -2.6182 H         1 <0>         0.1356
     42 H17        -4.1450  -10.6229   -2.9091 H         1 <0>         0.1477
     43 H18        -6.2912   -8.4531   -2.6244 H         1 <0>         0.1369
     44 H19        -8.4760   -9.5371   -2.5212 H         1 <0>         0.4101
     45 H20        -9.9120  -11.3269   -2.5144 H         1 <0>         0.3933
     46 H21        -1.4480   -4.5617   -0.8988 H         1 <0>         0.4278
@<TRIPOS>BOND
     1    1    6 ar
     2    1    2 ar
     3    1   26 1
     4    2    3 ar
     5    2   27 1
     6    3    4 ar
     7    3   28 1
     8    4    9 1
     9    4    5 ar
    10    5    6 ar
    11    5    7 1
    12    6   29 1
    13    7    8 2
    14    7   10 1
    15    8    9 1
    16    8   30 1
    17   10   11 1
    18   10   31 1
    19   10   32 1
    20   11   12 1
    21   11   33 1
    22   11   34 1
    23   12   13 1
    24   12   35 1
    25   12   46 1
    26   13   14 1
    27   13   36 1
    28   13   37 1
    29   14   19 ar
    30   14   15 ar
    31   15   16 ar
    32   15   38 1
    33   16   17 ar
    34   16   39 1
    35   17   18 ar
    36   17   20 1
    37   18   19 ar
    38   18   40 1
    39   19   41 1
    40   20   21 2
    41   20   42 1
    42   21   22 1
    43   21   43 1
    44   22   23 2
    45   22   24 am
    46   24   25 1
    47   24   44 1
    48   25   45 1
@<TRIPOS>MOLECULE
CHEMBL421934
   60    63     0     0     0
SMALL
USER_CHARGES

@<TRIPOS>ATOM
      1 C1         -0.1890    0.8457   -0.2473 C.ar      1 <0>        -0.0854
      2 C2          0.9025    1.6919   -0.1896 C.ar      1 <0>        -0.1126
      3 C3          2.1805    1.1684   -0.1293 C.ar      1 <0>        -0.0968
      4 C4          2.3668   -0.2013   -0.1262 C.ar      1 <0>        -0.1584
      5 C5          1.2752   -1.0475   -0.1830 C.ar      1 <0>        -0.0957
      6 C6         -0.0026   -0.5240   -0.2448 C.ar      1 <0>        -0.1129
      7 C7          3.7601   -0.7721   -0.0614 C.3       1 <0>         0.0378
      8 N1          4.1991   -0.8344    1.3390 N.4       1 <0>        -0.3820
      9 C8          5.6036   -1.2615    1.3934 C.3       1 <0>        -0.0132
     10 C9          6.4862   -0.1966    0.7395 C.3       1 <0>        -0.0575
     11 C10         7.9270   -0.6348    0.7953 C.2       1 <0>        -0.2016
     12 C11         8.8270   -0.3024    1.7342 C.2       1 <0>         0.0844
     13 N2         10.0316   -0.8878    1.4540 N.pl3     1 <0>        -0.5881
     14 H1         10.8348   -0.7939    1.9896 H         1 <0>         0.4228
     15 C12         9.9337   -1.6303    0.2985 C.ar      1 <0>         0.0949
     16 C13         8.6094   -1.5095   -0.1614 C.ar      1 <0>        -0.0995
     17 C14         8.2138   -2.1689   -1.3264 C.ar      1 <0>        -0.0841
     18 C15         9.1154   -2.9325   -2.0132 C.ar      1 <0>        -0.1328
     19 C16        10.4217   -3.0581   -1.5615 C.ar      1 <0>        -0.0938
     20 C17        10.8359   -2.4084   -0.4191 C.ar      1 <0>        -0.1218
     21 C18         3.3657   -1.7974    2.0711 C.3       1 <0>         0.0380
     22 C19         3.7214   -1.7588    3.5350 C.ar      1 <0>        -0.1481
     23 C20         4.6286   -2.6699    4.0473 C.ar      1 <0>        -0.0914
     24 C21         4.9589   -2.6413    5.3857 C.ar      1 <0>        -0.0911
     25 C22         4.3750   -1.6880    6.2259 C.ar      1 <0>        -0.0336
     26 C23         3.4598   -0.7705    5.7007 C.ar      1 <0>        -0.1014
     27 C24         3.1436   -0.8087    4.3590 C.ar      1 <0>        -0.0934
     28 C25         4.7218   -1.6509    7.6560 C.2       1 <0>        -0.0338
     29 C26         4.1570   -0.7305    8.4629 C.2       1 <0>        -0.1769
     30 C27         4.5019   -0.6935    9.8855 C.2       1 <0>         0.5543
     31 O1          5.2985   -1.4937   10.3394 O.2       1 <0>        -0.5164
     32 N3          3.9372    0.2267   10.6922 N.am      1 <0>        -0.5903
     33 O2          4.2707    0.2624   12.0679 O.3       1 <0>        -0.3111
     34 H2         -1.1877    1.2547   -0.2900 H         1 <0>         0.1350
     35 H3          0.7569    2.7620   -0.1920 H         1 <0>         0.1353
     36 H4          3.0333    1.8295   -0.0849 H         1 <0>         0.1305
     37 H5          1.4209   -2.1177   -0.1810 H         1 <0>         0.1315
     38 H6         -0.8555   -1.1851   -0.2896 H         1 <0>         0.1356
     39 H7          3.7620   -1.7752   -0.4878 H         1 <0>         0.1366
     40 H8          4.4402   -0.1355   -0.6274 H         1 <0>         0.1406
     41 H9          5.9032   -1.3935    2.4331 H         1 <0>         0.1324
     42 H10         5.7172   -2.2053    0.8599 H         1 <0>         0.1310
     43 H11         6.1866   -0.0646   -0.3002 H         1 <0>         0.0911
     44 H12         6.3726    0.7472    1.2730 H         1 <0>         0.0895
     45 H13         8.6296    0.3334    2.5846 H         1 <0>         0.1718
     46 H14         7.1988   -2.0763   -1.6835 H         1 <0>         0.1174
     47 H15         8.8088   -3.4425   -2.9145 H         1 <0>         0.1265
     48 H16        11.1225   -3.6657   -2.1148 H         1 <0>         0.1309
     49 H17        11.8542   -2.5135   -0.0751 H         1 <0>         0.1250
     50 H18         2.3146   -1.5374    1.9456 H         1 <0>         0.1384
     51 H19         3.5410   -2.8000    1.6809 H         1 <0>         0.1358
     52 H20         5.0786   -3.4055    3.3971 H         1 <0>         0.1360
     53 H21         5.6664   -3.3534    5.7841 H         1 <0>         0.1418
     54 H22         3.0044   -0.0316    6.3434 H         1 <0>         0.1390
     55 H23         2.4402   -0.0980    3.9510 H         1 <0>         0.1335
     56 H24         5.4288   -2.3610    8.0589 H         1 <0>         0.1465
     57 H25         3.4500   -0.0203    8.0601 H         1 <0>         0.1365
     58 H26         3.3022    0.8645   10.3304 H         1 <0>         0.4100
     59 H27         3.8158    0.9559   12.5650 H         1 <0>         0.3930
     60 H28         4.1084    0.0778    1.7608 H         1 <0>         0.4203
@<TRIPOS>BOND
     1    1    6 ar
     2    1    2 ar
     3    1   34 1
     4    2    3 ar
     5    2   35 1
     6    3    4 ar
     7    3   36 1
     8    4    5 ar
     9    4    7 1
    10    5    6 ar
    11    5   37 1
    12    6   38 1
    13    7    8 1
    14    7   39 1
    15    7   40 1
    16    8    9 1
    17    8   21 1
    18    8   60 1
    19    9   10 1
    20    9   41 1
    21    9   42 1
    22   10   11 1
    23   10   43 1
    24   10   44 1
    25   11   16 1
    26   11   12 2
    27   12   13 1
    28   12   45 1
    29   13   14 1
    30   13   15 1
    31   15   20 ar
    32   15   16 ar
    33   16   17 ar
    34   17   18 ar
    35   17   46 1
    36   18   19 ar
    37   18   47 1
    38   19   20 ar
    39   19   48 1
    40   20   49 1
    41   21   22 1
    42   21   50 1
    43   21   51 1
    44   22   27 ar
    45   22   23 ar
    46   23   24 ar
    47   23   52 1
    48   24   25 ar
    49   24   53 1
    50   25   26 ar
    51   25   28 1
    52   26   27 ar
    53   26   54 1
    54   27   55 1
    55   28   29 2
    56   28   56 1
    57   29   30 1
    58   29   57 1
    59   30   31 2
    60   30   32 am
    61   32   33 1
    62   32   58 1
    63   33   59 1
@<TRIPOS>MOLECULE
CHEMBL421934__1
   59    62     0     0     0
SMALL
USER_CHARGES

@<TRIPOS>ATOM
      1 C1         -0.0257    1.4284    0.0680 C.ar      1 <0>        -0.1203
      2 C2          1.1675    2.1262    0.0665 C.ar      1 <0>        -0.1209
      3 C3          2.3683    1.4421    0.0349 C.ar      1 <0>        -0.0957
      4 C4          2.3759    0.0601    0.0054 C.ar      1 <0>        -0.0764
      5 C5          1.1826   -0.6378    0.0078 C.ar      1 <0>        -0.1172
      6 C6         -0.0182    0.0463    0.0379 C.ar      1 <0>        -0.1205
      7 C7          3.6849   -0.6857   -0.0300 C.3       1 <0>         0.0877
      8 N1          4.1996   -0.8365    1.3376 N.3       1 <0>        -0.5253
      9 C8          5.6198   -1.2120    1.3272 C.3       1 <0>         0.0580
     10 C9          6.4474   -0.0610    0.7517 C.3       1 <0>        -0.0384
     11 C10         7.9043   -0.4461    0.7409 C.2       1 <0>        -0.1699
     12 C11         8.8124   -0.1615    1.6876 C.2       1 <0>         0.0573
     13 N2         10.0312   -0.6733    1.3340 N.pl3     1 <0>        -0.5957
     14 H1         10.8424   -0.5949    1.8601 H         1 <0>         0.4162
     15 C12         9.9346   -1.3163    0.1203 C.ar      1 <0>         0.0948
     16 C13         8.5966   -1.2077   -0.3015 C.ar      1 <0>        -0.1011
     17 C14         8.1993   -1.7788   -1.5117 C.ar      1 <0>        -0.0716
     18 C15         9.1126   -2.4445   -2.2799 C.ar      1 <0>        -0.1462
     19 C16        10.4326   -2.5580   -1.8664 C.ar      1 <0>        -0.0991
     20 C17        10.8483   -1.9939   -0.6799 C.ar      1 <0>        -0.1306
     21 C18         3.4031   -1.8108    2.0954 C.3       1 <0>         0.0859
     22 C19         3.6956   -1.6632    3.5664 C.ar      1 <0>        -0.0564
     23 C20         4.6410   -2.4774    4.1653 C.ar      1 <0>        -0.1168
     24 C21         4.9139   -2.3487    5.5108 C.ar      1 <0>        -0.0900
     25 C22         4.2329   -1.3922    6.2702 C.ar      1 <0>        -0.0824
     26 C23         3.2795   -0.5730    5.6577 C.ar      1 <0>        -0.0980
     27 C24         3.0215   -0.7103    4.3101 C.ar      1 <0>        -0.0966
     28 C25         4.5180   -1.2487    7.7073 C.2       1 <0>        -0.0003
     29 C26         3.8595   -0.3255    8.4362 C.2       1 <0>        -0.2144
     30 C27         4.1430   -0.1827    9.8656 C.2       1 <0>         0.5611
     31 O1          4.9731   -0.8975   10.3957 O.2       1 <0>        -0.5260
     32 N3          3.4846    0.7403   10.5944 N.am      1 <0>        -0.5938
     33 O2          3.7588    0.8784   11.9767 O.3       1 <0>        -0.3163
     34 H2         -0.9638    1.9627    0.0971 H         1 <0>         0.1197
     35 H3          1.1616    3.2060    0.0896 H         1 <0>         0.1207
     36 H4          3.3006    1.9874    0.0330 H         1 <0>         0.1220
     37 H5          1.1885   -1.7175   -0.0156 H         1 <0>         0.1173
     38 H6         -0.9504   -0.4989    0.0394 H         1 <0>         0.1202
     39 H7          3.5302   -1.6705   -0.4707 H         1 <0>         0.0448
     40 H8          4.4045   -0.1283   -0.6296 H         1 <0>         0.0901
     41 H9          5.9477   -1.4216    2.3453 H         1 <0>         0.0803
     42 H10         5.7561   -2.1009    0.7113 H         1 <0>         0.0359
     43 H11         6.1195    0.1487   -0.2665 H         1 <0>         0.0692
     44 H12         6.3111    0.8280    1.3675 H         1 <0>         0.0774
     45 H13         8.6111    0.3903    2.5939 H         1 <0>         0.1690
     46 H14         7.1736   -1.6951   -1.8395 H         1 <0>         0.1182
     47 H15         8.8047   -2.8862   -3.2162 H         1 <0>         0.1215
     48 H16        11.1426   -3.0878   -2.4841 H         1 <0>         0.1246
     49 H17        11.8774   -2.0887   -0.3662 H         1 <0>         0.1190
     50 H18         2.3430   -1.6315    1.9160 H         1 <0>         0.0894
     51 H19         3.6606   -2.8197    1.7732 H         1 <0>         0.0454
     52 H20         5.1661   -3.2157    3.5774 H         1 <0>         0.1230
     53 H21         5.6515   -2.9853    5.9769 H         1 <0>         0.1278
     54 H22         2.7492    0.1677    6.2378 H         1 <0>         0.1266
     55 H23         2.2885   -0.0754    3.8346 H         1 <0>         0.1263
     56 H24         5.2547   -1.8831    8.1777 H         1 <0>         0.1379
     57 H25         3.1228    0.3089    7.9658 H         1 <0>         0.1345
     58 H26         2.8230    1.3101   10.1719 H         1 <0>         0.4096
     59 H27         3.2379    1.5656   12.4143 H         1 <0>         0.3887
@<TRIPOS>BOND
     1    1    6 ar
     2    1    2 ar
     3    1   34 1
     4    2    3 ar
     5    2   35 1
     6    3    4 ar
     7    3   36 1
     8    4    5 ar
     9    4    7 1
    10    5    6 ar
    11    5   37 1
    12    6   38 1
    13    7    8 1
    14    7   39 1
    15    7   40 1
    16    8    9 1
    17    8   21 1
    18    9   10 1
    19    9   41 1
    20    9   42 1
    21   10   11 1
    22   10   43 1
    23   10   44 1
    24   11   16 1
    25   11   12 2
    26   12   13 1
    27   12   45 1
    28   13   14 1
    29   13   15 1
    30   15   20 ar
    31   15   16 ar
    32   16   17 ar
    33   17   18 ar
    34   17   46 1
    35   18   19 ar
    36   18   47 1
    37   19   20 ar
    38   19   48 1
    39   20   49 1
    40   21   22 1
    41   21   50 1
    42   21   51 1
    43   22   27 ar
    44   22   23 ar
    45   23   24 ar
    46   23   52 1
    47   24   25 ar
    48   24   53 1
    49   25   26 ar
    50   25   28 1
    51   26   27 ar
    52   26   54 1
    53   27   55 1
    54   28   29 2
    55   28   56 1
    56   29   30 1
    57   29   57 1
    58   30   31 2
    59   30   32 am
    60   32   33 1
    61   32   58 1
    62   33   59 1
@<TRIPOS>MOLECULE
CHEMBL127179
   46    48     0     0     0
SMALL
USER_CHARGES

@<TRIPOS>ATOM
      1 C1         -0.0164    1.3568    0.0095 C.ar      1 <0>        -0.1413
      2 C2          1.1684    2.0908    0.0021 C.ar      1 <0>        -0.1031
      3 C3          2.3781    1.4677   -0.0128 C.ar      1 <0>        -0.1262
      4 C4          2.4371    0.0630   -0.0208 C.ar      1 <0>         0.0009
      5 C5          3.6679   -0.6130   -0.0357 C.ar      1 <0>        -0.2110
      6 C6          3.6852   -1.9904   -0.0428 C.ar      1 <0>         0.2215
      7 C7          2.4899   -2.7199   -0.0359 C.ar      1 <0>        -0.1708
      8 C8          1.2866   -2.0884   -0.0216 C.ar      1 <0>        -0.0614
      9 C9          1.2321   -0.6835   -0.0134 C.ar      1 <0>        -0.0997
     10 C10         0.0021   -0.0041    0.0020 C.ar      1 <0>        -0.0885
     11 N1          4.9069   -2.6660   -0.0576 N.pl3     1 <0>        -0.7483
     12 C11         4.9340   -4.1307   -0.0653 C.3       1 <0>         0.1218
     13 C12         6.3855   -4.6139   -0.0811 C.3       1 <0>        -0.1309
     14 C13         6.4138   -6.1436   -0.0892 C.3       1 <0>        -0.1171
     15 C14         7.8653   -6.6269   -0.1051 C.3       1 <0>        -0.1184
     16 C15         7.8936   -8.1566   -0.1131 C.3       1 <0>        -0.1151
     17 C16         9.3452   -8.6399   -0.1290 C.3       1 <0>        -0.1397
     18 C17         9.3729  -10.1466   -0.1369 C.2       1 <0>         0.4506
     19 O1          8.3336  -10.7725   -0.1305 O.2       1 <0>        -0.4231
     20 C18        10.6557  -10.8560   -0.1524 C.2       1 <0>         0.0969
     21 N2         11.8448  -10.2930   -0.1548 N.2       1 <0>        -0.4197
     22 C19        12.7709  -11.2505   -0.1695 C.2       1 <0>        -0.0442
     23 C20        12.1327  -12.4459   -0.1764 C.2       1 <0>        -0.0387
     24 O2         10.8147  -12.1930   -0.1606 O.3       1 <0>        -0.1706
     25 H1         -0.9634    1.8758    0.0259 H         1 <0>         0.1197
     26 H2          1.1257    3.1700    0.0080 H         1 <0>         0.1200
     27 H3          3.2882    2.0492   -0.0187 H         1 <0>         0.1231
     28 H4          4.5939   -0.0572   -0.0418 H         1 <0>         0.1225
     29 H5          2.5248   -3.7993   -0.0425 H         1 <0>         0.1233
     30 H6          0.3734   -2.6650   -0.0168 H         1 <0>         0.1278
     31 H7         -0.9243   -0.5592    0.0082 H         1 <0>         0.1233
     32 H8          5.7379   -2.1655   -0.0627 H         1 <0>         0.4003
     33 H9          4.4352   -4.5080    0.8275 H         1 <0>         0.0599
     34 H10         4.4187   -4.4989   -0.9524 H         1 <0>         0.0599
     35 H11         6.8843   -4.2366   -0.9739 H         1 <0>         0.0695
     36 H12         6.9008   -4.2457    0.8060 H         1 <0>         0.0695
     37 H13         5.9150   -6.5209    0.8035 H         1 <0>         0.0670
     38 H14         5.8985   -6.5119   -0.9763 H         1 <0>         0.0670
     39 H15         8.3641   -6.2496   -0.9978 H         1 <0>         0.0665
     40 H16         8.3806   -6.2587    0.7821 H         1 <0>         0.0665
     41 H17         7.3948   -8.5339    0.7796 H         1 <0>         0.0724
     42 H18         7.3783   -8.5248   -1.0002 H         1 <0>         0.0724
     43 H19         9.8439   -8.2626   -1.0217 H         1 <0>         0.1114
     44 H20         9.8604   -8.2716    0.7581 H         1 <0>         0.1114
     45 H21        13.8404  -11.1006   -0.1755 H         1 <0>         0.1962
     46 H22        12.5980  -13.4204   -0.1889 H         1 <0>         0.2266
@<TRIPOS>BOND
     1    1   10 ar
     2    1    2 ar
     3    1   25 1
     4    2    3 ar
     5    2   26 1
     6    3    4 ar
     7    3   27 1
     8    4    9 ar
     9    4    5 ar
    10    5    6 ar
    11    5   28 1
    12    6    7 ar
    13    6   11 1
    14    7    8 ar
    15    7   29 1
    16    8    9 ar
    17    8   30 1
    18    9   10 ar
    19   10   31 1
    20   11   12 1
    21   11   32 1
    22   12   13 1
    23   12   33 1
    24   12   34 1
    25   13   14 1
    26   13   35 1
    27   13   36 1
    28   14   15 1
    29   14   37 1
    30   14   38 1
    31   15   16 1
    32   15   39 1
    33   15   40 1
    34   16   17 1
    35   16   41 1
    36   16   42 1
    37   17   18 1
    38   17   43 1
    39   17   44 1
    40   18   19 2
    41   18   20 1
    42   20   24 1
    43   20   21 2
    44   21   22 1
    45   22   23 2
    46   22   45 1
    47   23   24 1
    48   23   46 1
@<TRIPOS>MOLECULE
CHEMBL127351
   49    51     0     0     0
SMALL
USER_CHARGES

@<TRIPOS>ATOM
      1 C1         -0.0167    1.3790    0.0096 C.ar      1 <0>        -0.1162
      2 C2          1.1687    2.0919    0.0021 C.ar      1 <0>        -0.1189
      3 C3          2.3774    1.4258   -0.0129 C.ar      1 <0>        -0.1071
      4 C4          2.4022    0.0327   -0.0206 C.ar      1 <0>        -0.0494
      5 C5          1.2051   -0.6804   -0.0130 C.ar      1 <0>        -0.1074
      6 C6          0.0021   -0.0041    0.0020 C.ar      1 <0>        -0.1183
      7 C7          3.6987   -0.6890   -0.0373 C.ar      1 <0>        -0.0057
      8 C8          4.8959    0.0249   -0.0396 C.ar      1 <0>        -0.1492
      9 C9          6.1006   -0.6486   -0.0552 C.ar      1 <0>        -0.0758
     10 C10         6.1241   -2.0308   -0.0686 C.ar      1 <0>        -0.2087
     11 C11         4.9365   -2.7490   -0.0664 C.ar      1 <0>         0.1349
     12 C12         3.7228   -2.0811   -0.0450 C.ar      1 <0>        -0.1455
     13 O1          4.9641   -4.1077   -0.0800 O.3       1 <0>        -0.3154
     14 C13         6.2503   -4.7303   -0.0962 C.3       1 <0>         0.0583
     15 C14         6.0807   -6.2508   -0.1098 C.3       1 <0>        -0.1192
     16 C15         7.4577   -6.9174   -0.1272 C.3       1 <0>        -0.1174
     17 C16         7.2881   -8.4379   -0.1408 C.3       1 <0>        -0.1179
     18 C17         8.6652   -9.1045   -0.1582 C.3       1 <0>        -0.1150
     19 C18         8.4956  -10.6251   -0.1719 C.3       1 <0>        -0.1399
     20 C19         9.8519  -11.2816   -0.1889 C.2       1 <0>         0.4508
     21 O2         10.8558  -10.6003   -0.1900 O.2       1 <0>        -0.4235
     22 C20         9.9584  -12.7437   -0.2042 C.2       1 <0>         0.0970
     23 N1          8.9489  -13.5873   -0.2104 N.2       1 <0>        -0.4194
     24 C21         9.4301  -14.8294   -0.2251 C.2       1 <0>        -0.0440
     25 C22        10.7830  -14.7510   -0.2281 C.2       1 <0>        -0.0389
     26 O3         11.1058  -13.4482   -0.2201 O.3       1 <0>        -0.1708
     27 H1         -0.9603    1.9042    0.0260 H         1 <0>         0.1237
     28 H2          1.1483    3.1717    0.0077 H         1 <0>         0.1253
     29 H3          3.3023    1.9834   -0.0191 H         1 <0>         0.1265
     30 H4          1.2186   -1.7603   -0.0193 H         1 <0>         0.1265
     31 H5         -0.9264   -0.5558    0.0079 H         1 <0>         0.1254
     32 H6          4.8808    1.1047   -0.0296 H         1 <0>         0.1274
     33 H7          7.0275   -0.0942   -0.0573 H         1 <0>         0.1279
     34 H8          7.0693   -2.5532   -0.0811 H         1 <0>         0.1285
     35 H9          2.7979   -2.6387   -0.0388 H         1 <0>         0.1335
     36 H10         6.7942   -4.4174   -0.9874 H         1 <0>         0.0628
     37 H11         6.8081   -4.4349    0.7924 H         1 <0>         0.0628
     38 H12         5.5367   -6.5638    0.7814 H         1 <0>         0.0750
     39 H13         5.5228   -6.5462   -0.9985 H         1 <0>         0.0750
     40 H14         8.0017   -6.6045   -1.0184 H         1 <0>         0.0672
     41 H15         8.0156   -6.6220    0.7614 H         1 <0>         0.0672
     42 H16         6.7442   -8.7509    0.7504 H         1 <0>         0.0682
     43 H17         6.7303   -8.7333   -1.0295 H         1 <0>         0.0682
     44 H18         9.2091   -8.7916   -1.0494 H         1 <0>         0.0725
     45 H19         9.2230   -8.8091    0.7304 H         1 <0>         0.0725
     46 H20         7.9516  -10.9380    0.7194 H         1 <0>         0.1118
     47 H21         7.9377  -10.9204   -1.0605 H         1 <0>         0.1119
     48 H22         8.8458  -15.7376   -0.2326 H         1 <0>         0.1962
     49 H23        11.4728  -15.5819   -0.2384 H         1 <0>         0.2266
@<TRIPOS>BOND
     1    1    6 ar
     2    1    2 ar
     3    1   27 1
     4    2    3 ar
     5    2   28 1
     6    3    4 ar
     7    3   29 1
     8    4    5 ar
     9    4    7 1
    10    5    6 ar
    11    5   30 1
    12    6   31 1
    13    7   12 ar
    14    7    8 ar
    15    8    9 ar
    16    8   32 1
    17    9   10 ar
    18    9   33 1
    19   10   11 ar
    20   10   34 1
    21   11   12 ar
    22   11   13 1
    23   12   35 1
    24   13   14 1
    25   14   15 1
    26   14   36 1
    27   14   37 1
    28   15   16 1
    29   15   38 1
    30   15   39 1
    31   16   17 1
    32   16   40 1
    33   16   41 1
    34   17   18 1
    35   17   42 1
    36   17   43 1
    37   18   19 1
    38   18   44 1
    39   18   45 1
    40   19   20 1
    41   19   46 1
    42   19   47 1
    43   20   21 2
    44   20   22 1
    45   22   26 1
    46   22   23 2
    47   23   24 1
    48   24   25 2
    49   24   48 1
    50   25   26 1
    51   25   49 1
@<TRIPOS>MOLECULE
CHEMBL317614
   77    78     0     0     0
SMALL
USER_CHARGES

@<TRIPOS>ATOM
      1 C1         -0.0187    1.5258    0.0104 C.3       1 <0>        -0.1508
      2 C2          0.0021   -0.0041    0.0020 C.3       1 <0>        -0.1323
      3 C3          0.7421   -0.5109    1.2415 C.3       1 <0>        -0.1006
      4 C4          0.7628   -2.0407    1.2331 C.3       1 <0>        -0.1219
      5 H1         -0.2485   -2.4364    1.1393 H         1 <0>         0.1229
      6 C5          1.4410   -2.5814    2.5084 C.3       1 <0>        -0.1223
      7 H2          1.7636   -1.7605    3.1488 H         1 <0>         0.1273
      8 C6          2.6354   -3.3446    1.9786 C.2       1 <0>         0.5348
      9 O1          3.4484   -3.9352    2.6567 O.2       1 <0>        -0.4737
     10 N1          2.6517   -3.2645    0.6423 N.am      1 <0>        -0.5565
     11 C7          1.6420   -2.5553    0.1142 C.2       1 <0>         0.5361
     12 O2          1.4619   -2.3569   -1.0681 O.2       1 <0>        -0.4475
     13 C8          3.6859   -3.9008   -0.1774 C.3       1 <0>         0.1185
     14 H3          4.3943   -4.4188    0.4690 H         1 <0>         0.1257
     15 C9          3.0351   -4.9060   -1.1297 C.3       1 <0>        -0.0835
     16 C10         2.4144   -6.0240   -0.3324 C.ar      1 <0>        -0.1248
     17 C11         3.1604   -7.1454   -0.0197 C.ar      1 <0>        -0.0694
     18 C12         2.5936   -8.1719    0.7107 C.ar      1 <0>        -0.1462
     19 C13         1.2749   -8.0767    1.1308 C.ar      1 <0>         0.1318
     20 C14         0.5286   -6.9504    0.8160 C.ar      1 <0>        -0.2038
     21 C15         1.1016   -5.9243    0.0899 C.ar      1 <0>        -0.0703
     22 O3          0.7149   -9.0854    1.8490 O.3       1 <0>        -0.3160
     23 C16        -0.6472   -8.9192    2.2479 C.3       1 <0>         0.0266
     24 C17         4.4113   -2.8489   -0.9764 C.2       1 <0>         0.5053
     25 O4          3.8957   -1.7674   -1.1645 O.2       1 <0>        -0.5083
     26 N2          5.6331   -3.1100   -1.4819 N.am      1 <0>        -0.7272
     27 C18         6.3384   -2.0875   -2.2586 C.3       1 <0>         0.1204
     28 C19         7.6929   -2.6355   -2.7121 C.3       1 <0>        -0.1324
     29 C20         8.4294   -1.5676   -3.5233 C.3       1 <0>        -0.1163
     30 C21         9.7840   -2.1156   -3.9768 C.3       1 <0>        -0.1053
     31 C22        10.5205   -1.0477   -4.7880 C.3       1 <0>        -0.1272
     32 C23        11.8547   -1.5875   -5.2347 C.2       1 <0>         0.5213
     33 O5         12.1841   -2.7153   -4.9339 O.2       1 <0>        -0.5192
     34 N3         12.6819   -0.8170   -5.9685 N.am      1 <0>        -0.5999
     35 O6         13.9356   -1.3242   -6.3883 O.3       1 <0>        -0.3204
     36 C24         0.4951   -3.5144    3.2671 C.3       1 <0>        -0.0968
     37 C25         1.1446   -3.9361    4.5867 C.3       1 <0>        -0.1065
     38 C26         1.3127   -2.7105    5.4870 C.3       1 <0>        -0.1479
     39 C27         0.2550   -4.9652    5.2870 C.3       1 <0>        -0.1449
     40 H4          1.0039    1.9031    0.0027 H         1 <0>         0.0530
     41 H5         -0.5459    1.8868   -0.8726 H         1 <0>         0.0552
     42 H6         -0.5289    1.8773    0.9072 H         1 <0>         0.0524
     43 H7         -1.0205   -0.3814    0.0098 H         1 <0>         0.0624
     44 H8          0.5123   -0.3556   -0.8948 H         1 <0>         0.0809
     45 H9          1.7647   -0.1336    1.2338 H         1 <0>         0.0688
     46 H10         0.2319   -0.1594    2.1383 H         1 <0>         0.0806
     47 H11         2.2637   -4.4052   -1.7148 H         1 <0>         0.0974
     48 H12         3.7918   -5.3141   -1.7998 H         1 <0>         0.0946
     49 H13         4.1870   -7.2189   -0.3469 H         1 <0>         0.1307
     50 H14         3.1765   -9.0478    0.9541 H         1 <0>         0.1327
     51 H15        -0.4982   -6.8740    1.1419 H         1 <0>         0.1285
     52 H16         0.5224   -5.0453   -0.1516 H         1 <0>         0.1163
     53 H17        -0.7371   -8.0302    2.8722 H         1 <0>         0.0558
     54 H18        -1.2738   -8.8068    1.3631 H         1 <0>         0.0559
     55 H19        -0.9697   -9.7939    2.8127 H         1 <0>         0.1016
     56 H20         6.0455   -3.9750   -1.3314 H         1 <0>         0.4021
     57 H21         5.7436   -1.8202   -3.1321 H         1 <0>         0.0703
     58 H22         6.4928   -1.2035   -1.6399 H         1 <0>         0.0683
     59 H23         8.2877   -2.9028   -1.8386 H         1 <0>         0.0725
     60 H24         7.5385   -3.5195   -3.3308 H         1 <0>         0.0729
     61 H25         7.8347   -1.3004   -4.3968 H         1 <0>         0.0691
     62 H26         8.5839   -0.6836   -2.9046 H         1 <0>         0.0686
     63 H27        10.3787   -2.3829   -3.1033 H         1 <0>         0.0743
     64 H28         9.6296   -2.9996   -4.5955 H         1 <0>         0.0744
     65 H29         9.9258   -0.7805   -5.6615 H         1 <0>         0.1002
     66 H30        10.6749   -0.1637   -4.1693 H         1 <0>         0.1001
     67 H31        12.4185    0.0850   -6.2091 H         1 <0>         0.4083
     68 H32        14.4583   -0.6992   -6.9091 H         1 <0>         0.3880
     69 H33        -0.4406   -2.9944    3.4726 H         1 <0>         0.0830
     70 H34         0.2942   -4.3985    2.6622 H         1 <0>         0.0683
     71 H35         2.1213   -4.3765    4.3864 H         1 <0>         0.0876
     72 H36         0.3359   -2.2701    5.6873 H         1 <0>         0.0549
     73 H37         1.7754   -3.0110    6.4271 H         1 <0>         0.0561
     74 H38         1.9464   -1.9774    4.9881 H         1 <0>         0.0538
     75 H39         0.1352   -5.8384    4.6456 H         1 <0>         0.0510
     76 H40         0.7177   -5.2657    6.2270 H         1 <0>         0.0565
     77 H41        -0.7218   -4.5248    5.4872 H         1 <0>         0.0541
@<TRIPOS>BOND
     1    1    2 1
     2    1   40 1
     3    1   41 1
     4    1   42 1
     5    2    3 1
     6    2   43 1
     7    2   44 1
     8    3    4 1
     9    3   45 1
    10    3   46 1
    11    4    5 1
    12    4   11 1
    13    4    6 1
    14    6    7 1
    15    6    8 1
    16    6   36 1
    17    8    9 2
    18    8   10 am
    19   10   11 am
    20   10   13 1
    21   11   12 2
    22   13   14 1
    23   13   15 1
    24   13   24 1
    25   15   16 1
    26   15   47 1
    27   15   48 1
    28   16   21 ar
    29   16   17 ar
    30   17   18 ar
    31   17   49 1
    32   18   19 ar
    33   18   50 1
    34   19   20 ar
    35   19   22 1
    36   20   21 ar
    37   20   51 1
    38   21   52 1
    39   22   23 1
    40   23   53 1
    41   23   54 1
    42   23   55 1
    43   24   25 2
    44   24   26 am
    45   26   27 1
    46   26   56 1
    47   27   28 1
    48   27   57 1
    49   27   58 1
    50   28   29 1
    51   28   59 1
    52   28   60 1
    53   29   30 1
    54   29   61 1
    55   29   62 1
    56   30   31 1
    57   30   63 1
    58   30   64 1
    59   31   32 1
    60   31   65 1
    61   31   66 1
    62   32   33 2
    63   32   34 am
    64   34   35 1
    65   34   67 1
    66   35   68 1
    67   36   37 1
    68   36   69 1
    69   36   70 1
    70   37   38 1
    71   37   39 1
    72   37   71 1
    73   38   72 1
    74   38   73 1
    75   38   74 1
    76   39   75 1
    77   39   76 1
    78   39   77 1
@<TRIPOS>MOLECULE
CHEMBL1094077
   66    69     0     0     0
SMALL
USER_CHARGES

@<TRIPOS>ATOM
      1 C1          1.0093   -1.5697   -6.9592 C.3       1 <0>        -0.1889
      2 C2          0.3814   -1.3645   -5.5792 C.3       1 <0>        -0.0108
      3 N1          1.2080   -2.0273   -4.5617 N.4       1 <0>        -0.3811
      4 C3          1.1955   -3.4769   -4.7915 C.3       1 <0>        -0.0175
      5 C4          2.1194   -4.1649   -3.7843 C.3       1 <0>        -0.1848
      6 C5          1.6292   -3.8674   -2.3643 C.3       1 <0>        -0.1600
      7 C6          1.5755   -2.3506   -2.1606 C.3       1 <0>         0.1172
      8 H1          1.1746   -2.1301   -1.1713 H         1 <0>         0.1384
      9 C7          0.6717   -1.7298   -3.2281 C.3       1 <0>        -0.0687
     10 N2          2.9253   -1.7933   -2.2769 N.pl3     1 <0>        -0.4704
     11 C8          4.0867   -2.4997   -2.4378 C.2       1 <0>        -0.0087
     12 C9          5.0902   -1.6009   -2.5001 C.2       1 <0>         0.0384
     13 N3          4.5668   -0.3753   -2.3816 N.2       1 <0>        -0.4404
     14 C10         3.2625   -0.4717   -2.2513 C.2       1 <0>         0.2336
     15 C11         2.3212    0.6595   -2.0999 C.ar      1 <0>        -0.0173
     16 C12         0.9810    0.4177   -1.7891 C.ar      1 <0>        -0.1589
     17 C13         0.0996    1.4714   -1.6471 C.ar      1 <0>        -0.1059
     18 C14         0.5350    2.7709   -1.8109 C.ar      1 <0>        -0.0906
     19 C15         1.8743    3.0284   -2.1223 C.ar      1 <0>        -0.0508
     20 C16         2.7707    1.9670   -2.2613 C.ar      1 <0>        -0.0506
     21 C17         2.3385    4.4147   -2.2970 C.2       1 <0>        -0.0250
     22 C18         1.4725    5.4381   -2.1568 C.2       1 <0>        -0.1845
     23 C19         1.9342    6.8169   -2.3305 C.2       1 <0>         0.5555
     24 O1          3.0997    7.0387   -2.6014 O.2       1 <0>        -0.5173
     25 N4          1.0683    7.8402   -2.1903 N.am      1 <0>        -0.5911
     26 O2          1.5147    9.1734   -2.3583 O.3       1 <0>        -0.3120
     27 C20         6.5523   -1.9223   -2.6731 C.3       1 <0>        -0.0046
     28 C21         6.8884   -1.9585   -4.1417 C.ar      1 <0>        -0.0789
     29 C22         6.7767   -3.1419   -4.8473 C.ar      1 <0>        -0.1217
     30 C23         7.0850   -3.1751   -6.1944 C.ar      1 <0>        -0.1213
     31 C24         7.5046   -2.0248   -6.8360 C.ar      1 <0>        -0.1202
     32 C25         7.6154   -0.8412   -6.1306 C.ar      1 <0>        -0.1159
     33 C26         7.3030   -0.8070   -4.7844 C.ar      1 <0>        -0.1053
     34 C27         4.2190   -3.9982   -2.5276 C.3       1 <0>        -0.1512
     35 H2          2.0115   -1.1413   -6.9698 H         1 <0>         0.0800
     36 H3          1.0678   -2.6362   -7.1769 H         1 <0>         0.0813
     37 H4          0.3960   -1.0779   -7.7143 H         1 <0>         0.1094
     38 H5          0.3229   -0.2980   -5.3616 H         1 <0>         0.1299
     39 H6         -0.6208   -1.7929   -5.5687 H         1 <0>         0.1322
     40 H7          0.1804   -3.8549   -4.6699 H         1 <0>         0.1310
     41 H8          1.5415   -3.6869   -5.8036 H         1 <0>         0.1350
     42 H9          2.1073   -5.2413   -3.9555 H         1 <0>         0.1245
     43 H10         3.1349   -3.7878   -3.9052 H         1 <0>         0.1236
     44 H11         0.6335   -4.2892   -2.2265 H         1 <0>         0.1093
     45 H12         2.3161   -4.3081   -1.6417 H         1 <0>         0.1307
     46 H13         0.6311   -0.6499   -3.0859 H         1 <0>         0.1729
     47 H14        -0.3322   -2.1450   -3.1397 H         1 <0>         0.1517
     48 H15         0.6329   -0.5965   -1.6597 H         1 <0>         0.1376
     49 H16        -0.9354    1.2777   -1.4070 H         1 <0>         0.1391
     50 H17        -0.1596    3.5903   -1.6988 H         1 <0>         0.1388
     51 H18         3.8070    2.1593   -2.4970 H         1 <0>         0.1487
     52 H19         3.3728    4.6116   -2.5374 H         1 <0>         0.1460
     53 H20         0.4382    5.2412   -1.9164 H         1 <0>         0.1364
     54 H21         0.1393    7.6633   -1.9744 H         1 <0>         0.4098
     55 H22         0.8226    9.8380   -2.2384 H         1 <0>         0.3922
     56 H23         7.1531   -1.1571   -2.1816 H         1 <0>         0.0932
     57 H24         6.7659   -2.8939   -2.2274 H         1 <0>         0.0896
     58 H25         6.4489   -4.0406   -4.3461 H         1 <0>         0.1187
     59 H26         6.9984   -4.0998   -6.7456 H         1 <0>         0.1217
     60 H27         7.7461   -2.0509   -7.8883 H         1 <0>         0.1225
     61 H28         7.9435    0.0575   -6.6317 H         1 <0>         0.1238
     62 H29         7.3860    0.1185   -4.2341 H         1 <0>         0.1244
     63 H30         4.6281   -4.2691   -3.5009 H         1 <0>         0.0880
     64 H31         4.8864   -4.3518   -1.7418 H         1 <0>         0.0854
     65 H32         3.2381   -4.4575   -2.4052 H         1 <0>         0.1217
     66 H33         2.1556   -1.6868   -4.6256 H         1 <0>         0.4218
@<TRIPOS>BOND
     1    1    2 1
     2    1   35 1
     3    1   36 1
     4    1   37 1
     5    2    3 1
     6    2   38 1
     7    2   39 1
     8    3    9 1
     9    3    4 1
    10    3   66 1
    11    4    5 1
    12    4   40 1
    13    4   41 1
    14    5    6 1
    15    5   42 1
    16    5   43 1
    17    6    7 1
    18    6   44 1
    19    6   45 1
    20    7    8 1
    21    7    9 1
    22    7   10 1
    23    9   46 1
    24    9   47 1
    25   10   14 1
    26   10   11 1
    27   11   12 2
    28   11   34 1
    29   12   13 1
    30   12   27 1
    31   13   14 2
    32   14   15 1
    33   15   20 ar
    34   15   16 ar
    35   16   17 ar
    36   16   48 1
    37   17   18 ar
    38   17   49 1
    39   18   19 ar
    40   18   50 1
    41   19   20 ar
    42   19   21 1
    43   20   51 1
    44   21   22 2
    45   21   52 1
    46   22   23 1
    47   22   53 1
    48   23   24 2
    49   23   25 am
    50   25   26 1
    51   25   54 1
    52   26   55 1
    53   27   28 1
    54   27   56 1
    55   27   57 1
    56   28   33 ar
    57   28   29 ar
    58   29   30 ar
    59   29   58 1
    60   30   31 ar
    61   30   59 1
    62   31   32 ar
    63   31   60 1
    64   32   33 ar
    65   32   61 1
    66   33   62 1
    67   34   63 1
    68   34   64 1
    69   34   65 1
@<TRIPOS>MOLECULE
CHEMBL192098
   44    46     0     0     0
SMALL
USER_CHARGES

@<TRIPOS>ATOM
      1 C1         -0.0895    1.5213    0.0011 C.3       1 <0>         0.0587
      2 N1         -0.0594    0.0566    0.0124 N.pl3     1 <0>        -0.4218
      3 C2         -0.1284   -0.7322   -1.0748 C.2       1 <0>         0.0678
      4 C3         -0.0698   -2.0538   -0.6602 C.2       1 <0>        -0.1855
      5 C4          0.0399   -2.0413    0.7499 C.2       1 <0>        -0.1072
      6 C5          0.0501   -0.7307    1.1386 C.2       1 <0>        -0.0021
      7 C6          0.1523   -0.2613    2.4731 C.2       1 <0>         0.0302
      8 C7          0.3543   -1.1383    3.4863 C.2       1 <0>        -0.2230
      9 C8          0.3500   -0.6839    4.8276 C.2       1 <0>         0.5674
     10 O1          0.1648    0.4949    5.0705 O.2       1 <0>        -0.5327
     11 N2          0.5508   -1.5561    5.8352 N.am      1 <0>        -0.5947
     12 O2          0.5465   -1.1017    7.1764 O.3       1 <0>        -0.3165
     13 C9         -0.1137   -3.2414   -1.5217 C.2       1 <0>         0.0520
     14 C10        -0.0463   -4.4775   -0.9742 C.2       1 <0>        -0.2662
     15 C11        -0.0887   -5.6234   -1.8054 C.2       1 <0>         0.4312
     16 O3         -0.1858   -5.4966   -3.0133 O.2       1 <0>        -0.4683
     17 C12        -0.0152   -6.9709   -1.2085 C.ar      1 <0>        -0.1505
     18 C13         0.2173   -7.1245    0.1508 C.ar      1 <0>        -0.0596
     19 C14         0.2870   -8.3901    0.7185 C.ar      1 <0>        -0.1363
     20 C15         0.1304   -9.5128   -0.0386 C.ar      1 <0>        -0.0720
     21 C16        -0.1066   -9.4049   -1.4199 C.ar      1 <0>        -0.0657
     22 C17        -0.1873   -8.1230   -2.0162 C.ar      1 <0>        -0.0157
     23 C18        -0.4289   -8.0166   -3.3923 C.ar      1 <0>        -0.1209
     24 C19        -0.5891   -9.1454   -4.1387 C.ar      1 <0>        -0.1137
     25 C20        -0.5162  -10.4071   -3.5533 C.ar      1 <0>        -0.1158
     26 C21        -0.2709  -10.5480   -2.2215 C.ar      1 <0>        -0.1090
     27 H1          0.9305    1.9057    0.0031 H         1 <0>         0.0851
     28 H2         -0.6064    1.8671   -0.8941 H         1 <0>         0.0951
     29 H3         -0.6150    1.8808    0.8858 H         1 <0>         0.0919
     30 H4         -0.2152   -0.3936   -2.0967 H         1 <0>         0.1804
     31 H5          0.1075   -2.9036    1.3966 H         1 <0>         0.1507
     32 H6          0.0693    0.7951    2.6818 H         1 <0>         0.1356
     33 H7          0.5185   -2.1838    3.2709 H         1 <0>         0.1342
     34 H8          0.6983   -2.4951    5.6418 H         1 <0>         0.4095
     35 H9          0.6988   -1.7993    7.8285 H         1 <0>         0.3884
     36 H10        -0.1997   -3.1291   -2.5924 H         1 <0>         0.1343
     37 H11         0.0397   -4.5899    0.0965 H         1 <0>         0.1295
     38 H12         0.3457   -6.2514    0.7733 H         1 <0>         0.1333
     39 H13         0.4689   -8.4864    1.7787 H         1 <0>         0.1299
     40 H14         0.1887  -10.4871    0.4237 H         1 <0>         0.1307
     41 H15        -0.4883   -7.0445   -3.8591 H         1 <0>         0.1657
     42 H16        -0.7756   -9.0604   -5.1991 H         1 <0>         0.1242
     43 H17        -0.6469  -11.2866   -4.1663 H         1 <0>         0.1236
     44 H18        -0.2161  -11.5324   -1.7807 H         1 <0>         0.1280
@<TRIPOS>BOND
     1    1    2 1
     2    1   27 1
     3    1   28 1
     4    1   29 1
     5    2    6 1
     6    2    3 1
     7    3    4 2
     8    3   30 1
     9    4    5 1
    10    4   13 1
    11    5    6 2
    12    5   31 1
    13    6    7 1
    14    7    8 2
    15    7   32 1
    16    8    9 1
    17    8   33 1
    18    9   10 2
    19    9   11 am
    20   11   12 1
    21   11   34 1
    22   12   35 1
    23   13   14 2
    24   13   36 1
    25   14   15 1
    26   14   37 1
    27   15   16 2
    28   15   17 1
    29   17   22 ar
    30   17   18 ar
    31   18   19 ar
    32   18   38 1
    33   19   20 ar
    34   19   39 1
    35   20   21 ar
    36   20   40 1
    37   21   26 ar
    38   21   22 ar
    39   22   23 ar
    40   23   24 ar
    41   23   41 1
    42   24   25 ar
    43   24   42 1
    44   25   26 ar
    45   25   43 1
    46   26   44 1
@<TRIPOS>MOLECULE
CHEMBL320323
   45    46     0     0     0
SMALL
USER_CHARGES

@<TRIPOS>ATOM
      1 C1          1.0610    1.3824    3.0090 C.ar      1 <0>        -0.1181
      2 C2          1.9762    2.0944    2.2549 C.ar      1 <0>        -0.1171
      3 C3          2.9201    1.4275    1.5004 C.ar      1 <0>        -0.1092
      4 C4          2.9502    0.0345    1.4997 C.ar      1 <0>        -0.0460
      5 C5          2.0262   -0.6777    2.2616 C.ar      1 <0>        -0.1109
      6 C6          1.0864   -0.0006    3.0120 C.ar      1 <0>        -0.1177
      7 C7          3.9624   -0.6881    0.6900 C.ar      1 <0>        -0.0263
      8 C8          4.8899    0.0251   -0.0677 C.ar      1 <0>        -0.1246
      9 C9          5.8309   -0.6484   -0.8204 C.ar      1 <0>        -0.0963
     10 C10         5.8573   -2.0303   -0.8257 C.ar      1 <0>        -0.1191
     11 C11         4.9371   -2.7492   -0.0731 C.ar      1 <0>         0.1492
     12 C12         3.9919   -2.0798    0.6898 C.ar      1 <0>        -0.1379
     13 N1          4.9666   -4.1483   -0.0813 N.am      1 <0>        -0.6777
     14 C13         6.1422   -4.7968   -0.1994 C.2       1 <0>         0.5117
     15 O1          7.1818   -4.1721   -0.2022 O.2       1 <0>        -0.5166
     16 C14         6.1650   -6.2981   -0.3279 C.3       1 <0>        -0.1398
     17 C15         7.6129   -6.7780   -0.4463 C.3       1 <0>        -0.1059
     18 C16         7.6360   -8.3022   -0.5768 C.3       1 <0>        -0.1194
     19 C17         9.0840   -8.7821   -0.6952 C.3       1 <0>        -0.1153
     20 C18         9.1071  -10.3063   -0.8257 C.3       1 <0>        -0.1045
     21 C19        10.5550  -10.7862   -0.9441 C.3       1 <0>        -0.0661
     22 S1         10.5824  -12.5934   -1.0988 S.3       1 <0>        -0.2574
     23 H1          0.3268    1.9083    3.6012 H         1 <0>         0.1235
     24 H2          1.9520    3.1741    2.2562 H         1 <0>         0.1252
     25 H3          3.6338    1.9843    0.9113 H         1 <0>         0.1265
     26 H4          2.0449   -1.7575    2.2643 H         1 <0>         0.1238
     27 H5          0.3697   -0.5515    3.6029 H         1 <0>         0.1246
     28 H6          4.8720    1.1050   -0.0663 H         1 <0>         0.1273
     29 H7          6.5483   -0.0939   -1.4071 H         1 <0>         0.1293
     30 H8          6.5950   -2.5526   -1.4167 H         1 <0>         0.1348
     31 H9          3.2780   -2.6367    1.2786 H         1 <0>         0.1283
     32 H10         4.1411   -4.6513   -0.0019 H         1 <0>         0.4117
     33 H11         5.7050   -6.7452    0.5534 H         1 <0>         0.0974
     34 H12         5.6098   -6.5951   -1.2177 H         1 <0>         0.0987
     35 H13         8.0729   -6.3309   -1.3276 H         1 <0>         0.0713
     36 H14         8.1680   -6.4810    0.4435 H         1 <0>         0.0714
     37 H15         7.1760   -8.7493    0.3045 H         1 <0>         0.0656
     38 H16         7.0809   -8.5992   -1.4666 H         1 <0>         0.0657
     39 H17         9.5440   -8.3350   -1.5765 H         1 <0>         0.0660
     40 H18         9.6391   -8.4851    0.1946 H         1 <0>         0.0660
     41 H19         8.6471  -10.7534    0.0556 H         1 <0>         0.0754
     42 H20         8.5520  -10.6033   -1.7155 H         1 <0>         0.0755
     43 H21        11.0150  -10.3391   -1.8254 H         1 <0>         0.0832
     44 H22        11.1102  -10.4892   -0.0543 H         1 <0>         0.0832
     45 H23        11.8904  -12.8920   -1.1943 H         1 <0>         0.0902
@<TRIPOS>BOND
     1    1    6 ar
     2    1    2 ar
     3    1   23 1
     4    2    3 ar
     5    2   24 1
     6    3    4 ar
     7    3   25 1
     8    4    5 ar
     9    4    7 1
    10    5    6 ar
    11    5   26 1
    12    6   27 1
    13    7   12 ar
    14    7    8 ar
    15    8    9 ar
    16    8   28 1
    17    9   10 ar
    18    9   29 1
    19   10   11 ar
    20   10   30 1
    21   11   12 ar
    22   11   13 1
    23   12   31 1
    24   13   14 am
    25   13   32 1
    26   14   15 2
    27   14   16 1
    28   16   17 1
    29   16   33 1
    30   16   34 1
    31   17   18 1
    32   17   35 1
    33   17   36 1
    34   18   19 1
    35   18   37 1
    36   18   38 1
    37   19   20 1
    38   19   39 1
    39   19   40 1
    40   20   21 1
    41   20   41 1
    42   20   42 1
    43   21   22 1
    44   21   43 1
    45   21   44 1
    46   22   45 1
@<TRIPOS>MOLECULE
CHEMBL270887
   40    42     0     0     0
SMALL
USER_CHARGES

@<TRIPOS>ATOM
      1 C1         -0.0167    1.3781    0.0096 C.ar      1 <0>        -0.1137
      2 C2          1.1709    2.0855    0.0021 C.ar      1 <0>        -0.1184
      3 C3          2.3773    1.4107   -0.0130 C.ar      1 <0>        -0.1020
      4 C4          2.3960    0.0285   -0.0201 C.ar      1 <0>        -0.0796
      5 C5          1.2084   -0.6789   -0.0117 C.ar      1 <0>        -0.1020
      6 C6          0.0021   -0.0041    0.0020 C.ar      1 <0>        -0.1186
      7 C7          3.7112   -0.7071   -0.0376 C.3       1 <0>        -0.0903
      8 C8          4.1644   -0.9594    1.3773 C.2       1 <0>         0.5150
      9 O1          3.4863   -0.5793    2.3082 O.2       1 <0>        -0.4834
     10 N1          5.3234   -1.6075    1.6082 N.am      1 <0>        -0.6109
     11 C9          5.7413   -1.8401    2.9127 C.2       1 <0>         0.3200
     12 N2          6.8326   -2.4440    3.3438 N.2       1 <0>        -0.5270
     13 C10         7.0764   -2.5804    4.6450 C.2       1 <0>         0.1586
     14 C11         6.1765   -2.0840    5.5489 C.2       1 <0>        -0.2369
     15 S1          4.9467   -1.3936    4.4500 S.3       1 <0>         0.1329
     16 C12         8.3048   -3.2606    5.1087 C.2       1 <0>        -0.0882
     17 C13         9.3164   -3.8127    4.3699 C.2       1 <0>        -0.1242
     18 C14        10.3747   -4.4001    5.0307 C.2       1 <0>        -0.1332
     19 C15        10.3817   -4.4134    6.3873 C.2       1 <0>        -0.1403
     20 S2          8.8582   -3.5688    6.7779 S.3       1 <0>         0.0924
     21 C16        11.4128   -4.9887    7.3237 C.3       1 <0>        -0.0398
     22 C17        12.4427   -3.9363    7.6444 C.2       1 <0>         0.5213
     23 O2         12.3487   -2.8283    7.1604 O.2       1 <0>        -0.5029
     24 N3         13.4684   -4.2265    8.4693 N.am      1 <0>        -0.5985
     25 O3         14.4361   -3.2377    8.7707 O.3       1 <0>        -0.3167
     26 H1         -0.9591    1.9053    0.0259 H         1 <0>         0.1231
     27 H2          1.1563    3.1654    0.0076 H         1 <0>         0.1239
     28 H3          3.3051    1.9634   -0.0196 H         1 <0>         0.1212
     29 H4          1.2231   -1.7588   -0.0176 H         1 <0>         0.1212
     30 H5         -0.9258   -0.5567    0.0082 H         1 <0>         0.1239
     31 H6          3.5884   -1.6586   -0.5549 H         1 <0>         0.1154
     32 H7          4.4573   -0.1052   -0.5563 H         1 <0>         0.1155
     33 H8          5.8657   -1.9115    0.8637 H         1 <0>         0.4285
     34 H9          6.2038   -2.1009    6.6284 H         1 <0>         0.1990
     35 H10         9.2861   -3.7889    3.2906 H         1 <0>         0.1406
     36 H11        11.1875   -4.8443    4.4753 H         1 <0>         0.1358
     37 H12        10.9270   -5.3139    8.2436 H         1 <0>         0.1163
     38 H13        11.8996   -5.8407    6.8490 H         1 <0>         0.1242
     39 H14        13.5436   -5.1127    8.8564 H         1 <0>         0.4090
     40 H15        15.1326   -3.5389    9.3701 H         1 <0>         0.3887
@<TRIPOS>BOND
     1    1    6 ar
     2    1    2 ar
     3    1   26 1
     4    2    3 ar
     5    2   27 1
     6    3    4 ar
     7    3   28 1
     8    4    5 ar
     9    4    7 1
    10    5    6 ar
    11    5   29 1
    12    6   30 1
    13    7    8 1
    14    7   31 1
    15    7   32 1
    16    8    9 2
    17    8   10 am
    18   10   11 1
    19   10   33 1
    20   11   15 1
    21   11   12 2
    22   12   13 1
    23   13   14 2
    24   13   16 1
    25   14   15 1
    26   14   34 1
    27   16   20 1
    28   16   17 2
    29   17   18 1
    30   17   35 1
    31   18   19 2
    32   18   36 1
    33   19   20 1
    34   19   21 1
    35   21   22 1
    36   21   37 1
    37   21   38 1
    38   22   23 2
    39   22   24 am
    40   24   25 1
    41   24   39 1
    42   25   40 1
@<TRIPOS>MOLECULE
CHEMBL197774
   38    40     0     0     0
SMALL
USER_CHARGES

@<TRIPOS>ATOM
      1 C1         -0.0167    1.3781    0.0096 C.ar      1 <0>        -0.1076
      2 C2          1.1709    2.0855    0.0021 C.ar      1 <0>        -0.1236
      3 C3          2.3773    1.4107   -0.0130 C.ar      1 <0>        -0.0953
      4 C4          2.3960    0.0285   -0.0201 C.ar      1 <0>        -0.1252
      5 C5          1.2084   -0.6789   -0.0117 C.ar      1 <0>        -0.0951
      6 C6          0.0021   -0.0041    0.0020 C.ar      1 <0>        -0.1233
      7 C7          3.7112   -0.7071   -0.0376 C.3       1 <0>         0.1533
      8 N1          4.1518   -0.9524    1.3379 N.am      1 <0>        -0.5714
      9 C8          4.9174   -0.1090    2.0532 C.2       1 <0>         0.5747
     10 O1          5.3455    0.9600    1.6672 O.2       1 <0>        -0.4558
     11 C9          5.1499   -0.7004    3.3884 C.ar      1 <0>        -0.1293
     12 C10         5.8475   -0.2927    4.5162 C.ar      1 <0>        -0.0429
     13 C11         5.8736   -1.0977    5.6399 C.ar      1 <0>        -0.0798
     14 C12         5.2000   -2.3223    5.6456 C.ar      1 <0>        -0.0494
     15 C13         4.4932   -2.7408    4.5102 C.ar      1 <0>        -0.0196
     16 C14         4.4671   -1.9351    3.3867 C.ar      1 <0>        -0.1383
     17 C15         3.8391   -2.0479    2.0529 C.2       1 <0>         0.5762
     18 O2          3.1573   -2.9758    1.6666 O.2       1 <0>        -0.4544
     19 C16         5.2334   -3.1742    6.8461 C.2       1 <0>        -0.0162
     20 C17         5.9131   -2.7729    7.9382 C.2       1 <0>        -0.1900
     21 C18         5.9464   -3.6211    9.1336 C.2       1 <0>         0.5585
     22 O3          5.3604   -4.6874    9.1395 O.2       1 <0>        -0.5191
     23 N2          6.6263   -3.2197   10.2260 N.am      1 <0>        -0.5919
     24 O4          6.6584   -4.0390   11.3805 O.3       1 <0>        -0.3140
     25 H1         -0.9591    1.9053    0.0259 H         1 <0>         0.1246
     26 H2          1.1563    3.1654    0.0076 H         1 <0>         0.1254
     27 H3          3.3051    1.9634   -0.0196 H         1 <0>         0.1271
     28 H4          1.2231   -1.7588   -0.0176 H         1 <0>         0.1273
     29 H5         -0.9258   -0.5567    0.0082 H         1 <0>         0.1256
     30 H6          3.5884   -1.6586   -0.5549 H         1 <0>         0.1075
     31 H7          4.4573   -0.1052   -0.5563 H         1 <0>         0.1073
     32 H8          6.3701    0.6524    4.5162 H         1 <0>         0.1485
     33 H9          6.4171   -0.7789    6.5170 H         1 <0>         0.1483
     34 H10         3.9721   -3.6868    4.5126 H         1 <0>         0.1508
     35 H11         4.7132   -4.1206    6.8513 H         1 <0>         0.1479
     36 H12         6.4333   -1.8265    7.9330 H         1 <0>         0.1383
     37 H13         7.0935   -2.3697   10.2213 H         1 <0>         0.4103
     38 H14         7.1703   -3.6677   12.1121 H         1 <0>         0.3903
@<TRIPOS>BOND
     1    1    6 ar
     2    1    2 ar
     3    1   25 1
     4    2    3 ar
     5    2   26 1
     6    3    4 ar
     7    3   27 1
     8    4    5 ar
     9    4    7 1
    10    5    6 ar
    11    5   28 1
    12    6   29 1
    13    7    8 1
    14    7   30 1
    15    7   31 1
    16    8   17 am
    17    8    9 am
    18    9   10 2
    19    9   11 1
    20   11   16 ar
    21   11   12 ar
    22   12   13 ar
    23   12   32 1
    24   13   14 ar
    25   13   33 1
    26   14   15 ar
    27   14   19 1
    28   15   16 ar
    29   15   34 1
    30   16   17 1
    31   17   18 2
    32   19   20 2
    33   19   35 1
    34   20   21 1
    35   20   36 1
    36   21   22 2
    37   21   23 am
    38   23   24 1
    39   23   37 1
    40   24   38 1
@<TRIPOS>MOLECULE
CHEMBL348256
   54    56     0     0     0
SMALL
USER_CHARGES

@<TRIPOS>ATOM
      1 C1         -1.7430    0.2806   -0.0631 C.ar      1 <0>        -0.1149
      2 C2         -0.7474    1.2551   -0.0256 C.ar      1 <0>        -0.1014
      3 C3          0.5692    0.9130    0.0068 C.ar      1 <0>        -0.0932
      4 C4          0.9377   -0.4439    0.0025 C.ar      1 <0>         0.1219
      5 C5         -0.0763   -1.4330   -0.0357 C.ar      1 <0>        -0.0989
      6 C6         -1.4251   -1.0431   -0.0684 C.ar      1 <0>        -0.0975
      7 C7          0.2945   -2.7906   -0.0399 C.ar      1 <0>        -0.0524
      8 C8          1.6258   -3.0951   -0.0067 C.ar      1 <0>        -0.1363
      9 C9          2.5719   -2.0735    0.0300 C.ar      1 <0>         0.1368
     10 N1          2.2228   -0.8098    0.0342 N.ar      1 <0>        -0.4716
     11 C10         2.0703   -4.5351   -0.0092 C.3       1 <0>        -0.0730
     12 C11         2.2601   -5.0077   -1.4519 C.3       1 <0>         0.0527
     13 N2          2.6935   -6.4113   -1.4544 N.3       1 <0>        -0.5271
     14 C12         4.0306   -6.5505   -0.8623 C.3       1 <0>         0.0479
     15 C13         4.2686   -8.0122   -0.4780 C.3       1 <0>         0.0789
     16 O1          4.3528   -8.8083   -1.6617 O.3       1 <0>        -0.5712
     17 C14         2.6582   -6.9708   -2.8122 C.3       1 <0>         0.0800
     18 C15         1.2345   -7.0034   -3.3052 C.ar      1 <0>        -0.0588
     19 C16         0.4131   -8.0649   -2.9675 C.ar      1 <0>        -0.0970
     20 C17        -0.8906   -8.1021   -3.4151 C.ar      1 <0>        -0.0904
     21 C18        -1.3823   -7.0635   -4.2118 C.ar      1 <0>        -0.0835
     22 C19        -0.5464   -5.9942   -4.5484 C.ar      1 <0>        -0.0979
     23 C20         0.7534   -5.9688   -4.0887 C.ar      1 <0>        -0.1207
     24 C21        -2.7727   -7.0958   -4.6942 C.2       1 <0>         0.0005
     25 C22        -3.2433   -6.0926   -5.4621 C.2       1 <0>        -0.2153
     26 C23        -4.6263   -6.1247   -5.9419 C.2       1 <0>         0.5612
     27 O2         -5.3510   -7.0570   -5.6475 O.2       1 <0>        -0.5254
     28 N3         -5.0967   -5.1218   -6.7097 N.am      1 <0>        -0.5939
     29 O3         -6.4342   -5.1529   -7.1737 O.3       1 <0>        -0.3161
     30 H1         -2.7806    0.5795   -0.0838 H         1 <0>         0.1284
     31 H2         -1.0254    2.2987   -0.0225 H         1 <0>         0.1307
     32 H3          1.3282    1.6808    0.0353 H         1 <0>         0.1354
     33 H4         -2.2056   -1.7890   -0.0977 H         1 <0>         0.1303
     34 H5         -0.4527   -3.5699   -0.0682 H         1 <0>         0.1387
     35 H6          3.6208   -2.3292    0.0564 H         1 <0>         0.1562
     36 H7          3.0135   -4.6251    0.5297 H         1 <0>         0.0770
     37 H8          1.3135   -5.1499    0.4779 H         1 <0>         0.0850
     38 H9          1.3169   -4.9177   -1.9908 H         1 <0>         0.0825
     39 H10         3.0170   -4.3929   -1.9391 H         1 <0>         0.0357
     40 H11         4.7830   -6.2381   -1.5865 H         1 <0>         0.0451
     41 H12         4.1009   -5.9248    0.0275 H         1 <0>         0.0920
     42 H13         5.2004   -8.0937    0.0817 H         1 <0>         0.0501
     43 H14         3.4422   -8.3648    0.1390 H         1 <0>         0.0570
     44 H15         4.5789   -9.7341   -1.4978 H         1 <0>         0.3780
     45 H16         3.2587   -6.3497   -3.4768 H         1 <0>         0.0384
     46 H17         3.0612   -7.9835   -2.7985 H         1 <0>         0.1215
     47 H18         0.7944   -8.8663   -2.3520 H         1 <0>         0.1287
     48 H19        -1.5301   -8.9315   -3.1513 H         1 <0>         0.1292
     49 H20        -0.9189   -5.1886   -5.1636 H         1 <0>         0.1257
     50 H21         1.3990   -5.1416   -4.3442 H         1 <0>         0.1208
     51 H22        -3.4159   -7.9231   -4.4329 H         1 <0>         0.1388
     52 H23        -2.6001   -5.2653   -5.7234 H         1 <0>         0.1334
     53 H24        -4.5191   -4.3788   -6.9443 H         1 <0>         0.4093
     54 H25        -6.6800   -4.3913   -7.7165 H         1 <0>         0.3886
@<TRIPOS>BOND
     1    1    6 ar
     2    1    2 ar
     3    1   30 1
     4    2    3 ar
     5    2   31 1
     6    3    4 ar
     7    3   32 1
     8    4   10 ar
     9    4    5 ar
    10    5    6 ar
    11    5    7 ar
    12    6   33 1
    13    7    8 ar
    14    7   34 1
    15    8    9 ar
    16    8   11 1
    17    9   10 ar
    18    9   35 1
    19   11   12 1
    20   11   36 1
    21   11   37 1
    22   12   13 1
    23   12   38 1
    24   12   39 1
    25   13   14 1
    26   13   17 1
    27   14   15 1
    28   14   40 1
    29   14   41 1
    30   15   16 1
    31   15   42 1
    32   15   43 1
    33   16   44 1
    34   17   18 1
    35   17   45 1
    36   17   46 1
    37   18   23 ar
    38   18   19 ar
    39   19   20 ar
    40   19   47 1
    41   20   21 ar
    42   20   48 1
    43   21   22 ar
    44   21   24 1
    45   22   23 ar
    46   22   49 1
    47   23   50 1
    48   24   25 2
    49   24   51 1
    50   25   26 1
    51   25   52 1
    52   26   27 2
    53   26   28 am
    54   28   29 1
    55   28   53 1
    56   29   54 1
@<TRIPOS>MOLECULE
CHEMBL348256__1
   55    57     0     0     0
SMALL
USER_CHARGES

@<TRIPOS>ATOM
      1 C1          2.0414    1.7716   -3.6135 C.ar      1 <0>        -0.1040
      2 C2          1.4601    2.2962   -2.4606 C.ar      1 <0>        -0.0885
      3 C3          0.9976    1.4812   -1.4741 C.ar      1 <0>        -0.0947
      4 C4          1.1049    0.0862   -1.6140 C.ar      1 <0>         0.1315
      5 C5          1.6963   -0.4449   -2.7872 C.ar      1 <0>        -0.1030
      6 C6          2.1627    0.4266   -3.7848 C.ar      1 <0>        -0.1004
      7 C7          1.8027   -1.8413   -2.9255 C.ar      1 <0>        -0.0376
      8 C8          1.3272   -2.6273   -1.9143 C.ar      1 <0>        -0.1641
      9 C9          0.7570   -2.0403   -0.7872 C.ar      1 <0>         0.1338
     10 N1          0.6590   -0.7389   -0.6619 N.ar      1 <0>        -0.4602
     11 C10         1.4192   -4.1279   -2.0184 C.3       1 <0>        -0.0938
     12 C11         2.7446   -4.6005   -1.4177 C.3       1 <0>        -0.0133
     13 N2          2.7794   -6.0690   -1.4027 N.4       1 <0>        -0.3816
     14 C12         3.9890   -6.5230   -0.7037 C.3       1 <0>        -0.0133
     15 C13         3.9059   -6.1241    0.7711 C.3       1 <0>         0.0462
     16 O1          2.8043   -6.7962    1.3849 O.3       1 <0>        -0.5785
     17 C14         2.7932   -6.5726   -2.7826 C.3       1 <0>         0.0372
     18 C15         2.7049   -8.0769   -2.7693 C.ar      1 <0>        -0.1529
     19 C16         3.8625   -8.8340   -2.7201 C.ar      1 <0>        -0.0963
     20 C17         3.7901  -10.2109   -2.7080 C.ar      1 <0>        -0.0913
     21 C18         2.5428  -10.8421   -2.7453 C.ar      1 <0>        -0.0307
     22 C19         1.3778  -10.0702   -2.7945 C.ar      1 <0>        -0.1009
     23 C20         1.4666   -8.6942   -2.8007 C.ar      1 <0>        -0.0886
     24 C21         2.4567  -12.3116   -2.7332 C.2       1 <0>        -0.0355
     25 C22         1.2525  -12.9165   -2.7692 C.2       1 <0>        -0.1749
     26 C23         1.1668  -14.3783   -2.7573 C.2       1 <0>         0.5542
     27 O2          2.1827  -15.0470   -2.7148 O.2       1 <0>        -0.5161
     28 N3         -0.0371  -14.9831   -2.7933 N.am      1 <0>        -0.5901
     29 O3         -0.1199  -16.3966   -2.7817 O.3       1 <0>        -0.3110
     30 H1          2.3962    2.4409   -4.3833 H         1 <0>         0.1351
     31 H2          1.3757    3.3671   -2.3483 H         1 <0>         0.1379
     32 H3          0.5501    1.9042   -0.5868 H         1 <0>         0.1412
     33 H4          2.6150    0.0320   -4.6827 H         1 <0>         0.1339
     34 H5          2.2476   -2.2795   -3.8067 H         1 <0>         0.1409
     35 H6          0.3850   -2.6741    0.0043 H         1 <0>         0.1580
     36 H7          0.5911   -4.5813   -1.4735 H         1 <0>         0.1001
     37 H8          1.3695   -4.4231   -3.0664 H         1 <0>         0.0983
     38 H9          3.5713   -4.2236   -2.0198 H         1 <0>         0.1328
     39 H10         2.8363   -4.2245   -0.3987 H         1 <0>         0.1337
     40 H11         4.0691   -7.6072   -0.7829 H         1 <0>         0.1413
     41 H12         4.8657   -6.0600   -1.1565 H         1 <0>         0.1419
     42 H13         4.8300   -6.4051    1.2761 H         1 <0>         0.0946
     43 H14         3.7627   -5.0464    0.8484 H         1 <0>         0.0713
     44 H15         2.6909   -6.5900    2.3229 H         1 <0>         0.4087
     45 H16         1.9421   -6.1635   -3.3272 H         1 <0>         0.1398
     46 H17         3.7182   -6.2672   -3.2716 H         1 <0>         0.1375
     47 H18         4.8251   -8.3450   -2.6913 H         1 <0>         0.1352
     48 H19         4.6943  -10.8003   -2.6703 H         1 <0>         0.1429
     49 H20         0.4110  -10.5506   -2.8238 H         1 <0>         0.1401
     50 H21         0.5676   -8.0966   -2.8343 H         1 <0>         0.1353
     51 H22         3.3583  -12.9051   -2.6956 H         1 <0>         0.1472
     52 H23         0.3510  -12.3231   -2.8069 H         1 <0>         0.1369
     53 H24        -0.8468  -14.4500   -2.8271 H         1 <0>         0.4101
     54 H25        -1.0243  -16.7378   -2.8099 H         1 <0>         0.3931
     55 H26         1.9630   -6.4199   -0.9248 H         1 <0>         0.4308
@<TRIPOS>BOND
     1    1    6 ar
     2    1    2 ar
     3    1   30 1
     4    2    3 ar
     5    2   31 1
     6    3    4 ar
     7    3   32 1
     8    4   10 ar
     9    4    5 ar
    10    5    6 ar
    11    5    7 ar
    12    6   33 1
    13    7    8 ar
    14    7   34 1
    15    8    9 ar
    16    8   11 1
    17    9   10 ar
    18    9   35 1
    19   11   12 1
    20   11   36 1
    21   11   37 1
    22   12   13 1
    23   12   38 1
    24   12   39 1
    25   13   14 1
    26   13   17 1
    27   13   55 1
    28   14   15 1
    29   14   40 1
    30   14   41 1
    31   15   16 1
    32   15   42 1
    33   15   43 1
    34   16   44 1
    35   17   18 1
    36   17   45 1
    37   17   46 1
    38   18   23 ar
    39   18   19 ar
    40   19   20 ar
    41   19   47 1
    42   20   21 ar
    43   20   48 1
    44   21   22 ar
    45   21   24 1
    46   22   23 ar
    47   22   49 1
    48   23   50 1
    49   24   25 2
    50   24   51 1
    51   25   26 1
    52   25   52 1
    53   26   27 2
    54   26   28 am
    55   28   29 1
    56   28   53 1
    57   29   54 1
@<TRIPOS>MOLECULE
CHEMBL322504
   46    47     0     0     0
SMALL
USER_CHARGES

@<TRIPOS>ATOM
      1 C1          3.0996    2.4006    1.2522 C.ar      1 <0>        -0.1524
      2 C2          3.1715    1.1350    1.8044 C.ar      1 <0>        -0.0823
      3 C3          3.2712    0.0273    0.9851 C.ar      1 <0>        -0.1958
      4 C4          3.2986    0.1855   -0.3931 C.ar      1 <0>         0.1204
      5 C5          3.2258    1.4566   -0.9447 C.ar      1 <0>        -0.1457
      6 C6          3.1267    2.5610   -0.1210 C.ar      1 <0>        -0.0826
      7 O1          3.3971   -0.9025   -1.2012 O.3       1 <0>        -0.2577
      8 C7          3.5666   -2.1177   -0.6172 C.ar      1 <0>         0.1032
      9 C8          2.4926   -2.7505   -0.0060 C.ar      1 <0>        -0.1468
     10 C9          2.6636   -3.9861    0.5881 C.ar      1 <0>        -0.0862
     11 C10         3.9034   -4.5959    0.5760 C.ar      1 <0>        -0.1180
     12 C11         4.9814   -3.9677   -0.0343 C.ar      1 <0>         0.1590
     13 C12         4.8105   -2.7289   -0.6364 C.ar      1 <0>        -0.1491
     14 N1          6.2370   -4.5851   -0.0461 N.am      1 <0>        -0.6763
     15 C13         6.3279   -5.9255   -0.1529 C.2       1 <0>         0.5133
     16 O2          5.3219   -6.6030   -0.1588 O.2       1 <0>        -0.5161
     17 C14         7.6795   -6.5826   -0.2649 C.3       1 <0>        -0.1394
     18 C15         7.5023   -8.0984   -0.3729 C.3       1 <0>        -0.1060
     19 C16         8.8745   -8.7655   -0.4866 C.3       1 <0>        -0.1195
     20 C17         8.6973  -10.2813   -0.5946 C.3       1 <0>        -0.1153
     21 C18        10.0695  -10.9484   -0.7083 C.3       1 <0>        -0.1046
     22 C19         9.8923  -12.4643   -0.8163 C.3       1 <0>        -0.0662
     23 S1         11.5192  -13.2552   -0.9511 S.3       1 <0>        -0.2573
     24 H1          3.0175    3.2651    1.8943 H         1 <0>         0.1257
     25 H2          3.1501    1.0125    2.8772 H         1 <0>         0.1261
     26 H3          3.3281   -0.9610    1.4170 H         1 <0>         0.1299
     27 H4          3.2473    1.5824   -2.0172 H         1 <0>         0.1325
     28 H5          3.0703    3.5506   -0.5498 H         1 <0>         0.1317
     29 H6          1.5224   -2.2762    0.0053 H         1 <0>         0.1326
     30 H7          1.8266   -4.4761    1.0632 H         1 <0>         0.1358
     31 H8          4.0345   -5.5614    1.0418 H         1 <0>         0.1451
     32 H9          5.6462   -2.2400   -1.1149 H         1 <0>         0.1354
     33 H10         7.0420   -4.0483    0.0226 H         1 <0>         0.4136
     34 H11         8.1909   -6.2123   -1.1534 H         1 <0>         0.0991
     35 H12         8.2719   -6.3481    0.6195 H         1 <0>         0.0989
     36 H13         6.9908   -8.4686    0.5156 H         1 <0>         0.0717
     37 H14         6.9099   -8.3329   -1.2573 H         1 <0>         0.0717
     38 H15         9.3859   -8.3953   -1.3751 H         1 <0>         0.0658
     39 H16         9.4669   -8.5310    0.3978 H         1 <0>         0.0659
     40 H17         8.1858  -10.6516    0.2939 H         1 <0>         0.0660
     41 H18         8.1049  -10.5158   -1.4790 H         1 <0>         0.0661
     42 H19        10.5809  -10.5782   -1.5968 H         1 <0>         0.0755
     43 H20        10.6619  -10.7139    0.1761 H         1 <0>         0.0755
     44 H21         9.3809  -12.8345    0.0722 H         1 <0>         0.0832
     45 H22         9.2999  -12.6988   -1.7007 H         1 <0>         0.0833
     46 H23        11.2369  -14.5673   -1.0387 H         1 <0>         0.0902
@<TRIPOS>BOND
     1    1    6 ar
     2    1    2 ar
     3    1   24 1
     4    2    3 ar
     5    2   25 1
     6    3    4 ar
     7    3   26 1
     8    4    5 ar
     9    4    7 1
    10    5    6 ar
    11    5   27 1
    12    6   28 1
    13    7    8 1
    14    8   13 ar
    15    8    9 ar
    16    9   10 ar
    17    9   29 1
    18   10   11 ar
    19   10   30 1
    20   11   12 ar
    21   11   31 1
    22   12   13 ar
    23   12   14 1
    24   13   32 1
    25   14   15 am
    26   14   33 1
    27   15   16 2
    28   15   17 1
    29   17   18 1
    30   17   34 1
    31   17   35 1
    32   18   19 1
    33   18   36 1
    34   18   37 1
    35   19   20 1
    36   19   38 1
    37   19   39 1
    38   20   21 1
    39   20   40 1
    40   20   41 1
    41   21   22 1
    42   21   42 1
    43   21   43 1
    44   22   23 1
    45   22   44 1
    46   22   45 1
    47   23   46 1
@<TRIPOS>MOLECULE
CHEMBL332246
   34    34     0     0     0
SMALL
USER_CHARGES

@<TRIPOS>ATOM
      1 C1          0.9534   -0.4401    0.7097 C.ar      1 <0>        -0.1504
      2 C2          2.1968    0.1708    0.7263 C.ar      1 <0>        -0.0803
      3 C3          2.3684    1.3415   -0.0077 C.ar      1 <0>         0.0950
      4 C4          1.2936    1.8507   -0.7251 C.ar      1 <0>         0.0764
      5 N1          0.1269    1.2379   -0.7133 N.ar      1 <0>        -0.4653
      6 C5         -0.0680    0.1275   -0.0288 C.ar      1 <0>         0.0803
      7 N2          3.6055    1.9958   -0.0221 N.am      1 <0>        -0.6724
      8 C6          4.7459    1.2828    0.0649 C.2       1 <0>         0.5124
      9 O1          4.7051    0.0706    0.0594 O.2       1 <0>        -0.5177
     10 C7          6.0716    1.9917    0.1691 C.3       1 <0>        -0.1393
     11 C8          7.1970    0.9587    0.2543 C.3       1 <0>        -0.1062
     12 C9          8.5430    1.6784    0.3601 C.3       1 <0>        -0.1194
     13 C10         9.6684    0.6454    0.4453 C.3       1 <0>        -0.1153
     14 C11        11.0144    1.3651    0.5511 C.3       1 <0>        -0.1045
     15 C12        12.1398    0.3321    0.6363 C.3       1 <0>        -0.0663
     16 S1         13.7356    1.1855    0.7618 S.3       1 <0>        -0.2572
     17 H1          0.7853   -1.3518    1.2638 H         1 <0>         0.1399
     18 H2          3.0127   -0.2504    1.2948 H         1 <0>         0.1450
     19 H3          1.4150    2.7581   -1.2980 H         1 <0>         0.1574
     20 H4         -1.0392   -0.3446   -0.0451 H         1 <0>         0.1592
     21 H5          3.6421    2.9624   -0.0947 H         1 <0>         0.4149
     22 H6          6.2190    2.6178   -0.7109 H         1 <0>         0.0992
     23 H7          6.0814    2.6143    1.0637 H         1 <0>         0.0999
     24 H8          7.0496    0.3326    1.1343 H         1 <0>         0.0713
     25 H9          7.1872    0.3361   -0.6403 H         1 <0>         0.0716
     26 H10         8.6904    2.3045   -0.5199 H         1 <0>         0.0661
     27 H11         8.5528    2.3010    1.2547 H         1 <0>         0.0660
     28 H12         9.5210    0.0193    1.3253 H         1 <0>         0.0659
     29 H13         9.6586    0.0228   -0.4493 H         1 <0>         0.0660
     30 H14        11.1618    1.9912   -0.3289 H         1 <0>         0.0756
     31 H15        11.0242    1.9877    1.4458 H         1 <0>         0.0756
     32 H16        11.9924   -0.2940    1.5163 H         1 <0>         0.0832
     33 H17        12.1300   -0.2905   -0.2583 H         1 <0>         0.0832
     34 H18        14.6341    0.1869    0.8295 H         1 <0>         0.0903
@<TRIPOS>BOND
     1    1    6 ar
     2    1    2 ar
     3    1   17 1
     4    2    3 ar
     5    2   18 1
     6    3    4 ar
     7    3    7 1
     8    4    5 ar
     9    4   19 1
    10    5    6 ar
    11    6   20 1
    12    7    8 am
    13    7   21 1
    14    8    9 2
    15    8   10 1
    16   10   11 1
    17   10   22 1
    18   10   23 1
    19   11   12 1
    20   11   24 1
    21   11   25 1
    22   12   13 1
    23   12   26 1
    24   12   27 1
    25   13   14 1
    26   13   28 1
    27   13   29 1
    28   14   15 1
    29   14   30 1
    30   14   31 1
    31   15   16 1
    32   15   32 1
    33   15   33 1
    34   16   34 1
@<TRIPOS>MOLECULE
CHEMBL482358
   53    56     0     0     0
SMALL
USER_CHARGES

@<TRIPOS>ATOM
      1 C1          0.1045    1.6182    0.0329 C.ar      1 <0>        -0.1233
      2 C2          1.3028    2.3016    0.1215 C.ar      1 <0>        -0.1181
      3 C3          2.4976    1.6065    0.1077 C.ar      1 <0>        -0.1148
      4 C4          2.4941    0.2279    0.0058 C.ar      1 <0>        -0.0843
      5 C5          1.2957   -0.4556   -0.0819 C.ar      1 <0>        -0.1171
      6 C6          0.1010    0.2396   -0.0696 C.ar      1 <0>        -0.1180
      7 C7          3.7966   -0.5298   -0.0103 C.3       1 <0>        -0.0717
      8 C8          4.1934   -0.8924    1.4222 C.3       1 <0>        -0.1224
      9 C9          5.4418   -1.7765    1.3973 C.3       1 <0>         0.1522
     10 H1          5.2626   -2.6428    0.7605 H         1 <0>         0.1183
     11 C10         5.7617   -2.2368    2.7965 C.2       1 <0>         0.5138
     12 O1          5.2723   -3.2643    3.2161 O.2       1 <0>        -0.5227
     13 N1          6.5847   -1.5209    3.5859 N.am      1 <0>        -0.6539
     14 C11         7.2019   -0.3588    3.1076 C.ar      1 <0>         0.1012
     15 C12         7.8061    0.5327    3.9790 C.ar      1 <0>        -0.1180
     16 C13         8.4148    1.6723    3.4856 C.ar      1 <0>        -0.1256
     17 C14         8.4240    1.9273    2.1265 C.ar      1 <0>        -0.1018
     18 C15         7.8208    1.0438    1.2489 C.ar      1 <0>        -0.1431
     19 C16         7.2087   -0.0970    1.7363 C.ar      1 <0>         0.1705
     20 N2          6.5793   -1.0067    0.8720 N.pl3     1 <0>        -0.6274
     21 C17         7.0403   -1.1856   -0.5071 C.3       1 <0>         0.1679
     22 C18         8.0241   -2.3258   -0.5640 C.ar      1 <0>        -0.0826
     23 C19         9.3806   -2.0704   -0.4687 C.ar      1 <0>        -0.1042
     24 C20        10.2864   -3.1096   -0.5201 C.ar      1 <0>        -0.0538
     25 C21         9.8318   -4.4209   -0.6686 C.ar      1 <0>        -0.1216
     26 C22         8.4621   -4.6716   -0.7641 C.ar      1 <0>        -0.0873
     27 C23         7.5665   -3.6238   -0.7056 C.ar      1 <0>        -0.1112
     28 C24        10.7970   -5.5394   -0.7249 C.2       1 <0>         0.5711
     29 O2         11.9893   -5.3181   -0.6419 O.2       1 <0>        -0.5137
     30 N3         10.3548   -6.8045   -0.8684 N.am      1 <0>        -0.5933
     31 O3         11.2792   -7.8758   -0.9223 O.3       1 <0>        -0.3123
     32 H2         -0.8291    2.1609    0.0482 H         1 <0>         0.1211
     33 H3          1.3055    3.3787    0.2012 H         1 <0>         0.1215
     34 H4          3.4338    2.1405    0.1763 H         1 <0>         0.1204
     35 H5          1.2930   -1.5326   -0.1620 H         1 <0>         0.1211
     36 H6         -0.8352   -0.2944   -0.1385 H         1 <0>         0.1217
     37 H7          3.6797   -1.4411   -0.5967 H         1 <0>         0.0734
     38 H8          4.5731    0.0919   -0.4560 H         1 <0>         0.0782
     39 H9          4.4043    0.0185    1.9825 H         1 <0>         0.0745
     40 H10         3.3756   -1.4319    1.9002 H         1 <0>         0.0815
     41 H11         6.7516   -1.8131    4.4957 H         1 <0>         0.4114
     42 H12         7.8015    0.3384    5.0414 H         1 <0>         0.1280
     43 H13         8.8852    2.3672    4.1656 H         1 <0>         0.1269
     44 H14         8.9031    2.8186    1.7490 H         1 <0>         0.1270
     45 H15         7.8278    1.2441    0.1876 H         1 <0>         0.1296
     46 H16         6.1881   -1.4086   -1.1490 H         1 <0>         0.0904
     47 H17         7.5240   -0.2709   -0.8500 H         1 <0>         0.0943
     48 H18         9.7310   -1.0553   -0.3542 H         1 <0>         0.1332
     49 H19        11.3450   -2.9090   -0.4460 H         1 <0>         0.1402
     50 H20         8.1039   -5.6839   -0.8792 H         1 <0>         0.1259
     51 H21         6.5062   -3.8168   -0.7750 H         1 <0>         0.1292
     52 H22         9.4033   -6.9811   -0.9347 H         1 <0>         0.4078
     53 H23        10.8683   -8.7449   -1.0264 H         1 <0>         0.3900
@<TRIPOS>BOND
     1    1    6 ar
     2    1    2 ar
     3    1   32 1
     4    2    3 ar
     5    2   33 1
     6    3    4 ar
     7    3   34 1
     8    4    5 ar
     9    4    7 1
    10    5    6 ar
    11    5   35 1
    12    6   36 1
    13    7    8 1
    14    7   37 1
    15    7   38 1
    16    8    9 1
    17    8   39 1
    18    8   40 1
    19    9   10 1
    20    9   20 1
    21    9   11 1
    22   11   12 2
    23   11   13 am
    24   13   14 1
    25   13   41 1
    26   14   19 ar
    27   14   15 ar
    28   15   16 ar
    29   15   42 1
    30   16   17 ar
    31   16   43 1
    32   17   18 ar
    33   17   44 1
    34   18   19 ar
    35   18   45 1
    36   19   20 1
    37   20   21 1
    38   21   22 1
    39   21   46 1
    40   21   47 1
    41   22   27 ar
    42   22   23 ar
    43   23   24 ar
    44   23   48 1
    45   24   25 ar
    46   24   49 1
    47   25   26 ar
    48   25   28 1
    49   26   27 ar
    50   26   50 1
    51   27   51 1
    52   28   29 2
    53   28   30 am
    54   30   31 1
    55   30   52 1
    56   31   53 1
@<TRIPOS>MOLECULE
CHEMBL190014
   43    44     0     0     0
SMALL
USER_CHARGES

@<TRIPOS>ATOM
      1 C1         -0.0017    1.4059    0.0109 C.ar      1 <0>        -0.1258
      2 C2          1.1901    2.1062   -0.0034 C.ar      1 <0>        -0.1182
      3 C3          2.3924    1.4242   -0.0187 C.ar      1 <0>        -0.1187
      4 C4          2.4029    0.0419   -0.0192 C.ar      1 <0>        -0.0821
      5 C5          1.2112   -0.6584   -0.0040 C.ar      1 <0>        -0.1188
      6 C6          0.0089    0.0236    0.0098 C.ar      1 <0>        -0.1182
      7 C7          3.7136   -0.7016   -0.0369 C.3       1 <0>        -0.0822
      8 C8          4.1764   -0.9536    1.3995 C.3       1 <0>        -0.1130
      9 C9          5.5071   -1.7085    1.3816 C.3       1 <0>        -0.1068
     10 C10         5.9699   -1.9605    2.8180 C.3       1 <0>        -0.1390
     11 C11         7.2806   -2.7040    2.8003 C.2       1 <0>         0.5124
     12 O1          7.7940   -3.0029    1.7430 O.2       1 <0>        -0.5111
     13 N1          7.8822   -3.0368    3.9595 N.am      1 <0>        -0.6773
     14 C12         9.0442   -3.8074    3.9458 C.ar      1 <0>         0.1757
     15 C13         9.9742   -3.6427    2.9241 C.ar      1 <0>        -0.1280
     16 C14        11.1225   -4.4019    2.9076 C.ar      1 <0>        -0.0328
     17 C15        11.3538   -5.3384    3.9188 C.ar      1 <0>        -0.1446
     18 C16        10.4178   -5.5009    4.9437 C.ar      1 <0>        -0.0668
     19 C17         9.2739   -4.7351    4.9569 C.ar      1 <0>        -0.1524
     20 C18        12.5835   -6.1545    3.9040 C.2       1 <0>         0.5736
     21 O2         13.3968   -6.0123    3.0114 O.2       1 <0>        -0.5153
     22 N2         12.8051   -7.0572    4.8799 N.am      1 <0>        -0.5946
     23 O3         13.9849   -7.8401    4.8657 O.3       1 <0>        -0.3130
     24 H1         -0.9410    1.9388    0.0273 H         1 <0>         0.1208
     25 H2          1.1818    3.1862   -0.0031 H         1 <0>         0.1214
     26 H3          3.3234    1.9714   -0.0306 H         1 <0>         0.1209
     27 H4          1.2194   -1.7384   -0.0048 H         1 <0>         0.1207
     28 H5         -0.9222   -0.5235    0.0213 H         1 <0>         0.1213
     29 H6          3.5837   -1.6548   -0.5493 H         1 <0>         0.0738
     30 H7          4.4618   -0.1066   -0.5606 H         1 <0>         0.0739
     31 H8          4.3063   -0.0004    1.9119 H         1 <0>         0.0653
     32 H9          3.4282   -1.5486    1.9232 H         1 <0>         0.0651
     33 H10         5.3772   -2.6617    0.8692 H         1 <0>         0.0729
     34 H11         6.2553   -1.1135    0.8579 H         1 <0>         0.0731
     35 H12         6.0997   -1.0072    3.3304 H         1 <0>         0.0993
     36 H13         5.2216   -2.5555    3.3417 H         1 <0>         0.0992
     37 H14         7.5068   -2.7402    4.8034 H         1 <0>         0.4149
     38 H15         9.7949   -2.9188    2.1430 H         1 <0>         0.1492
     39 H16        11.8437   -4.2742    2.1139 H         1 <0>         0.1437
     40 H17        10.5933   -6.2241    5.7265 H         1 <0>         0.1297
     41 H18         8.5519   -4.8575    5.7508 H         1 <0>         0.1355
     42 H19        12.1563   -7.1706    5.5920 H         1 <0>         0.4071
     43 H20        14.0553   -8.4588    5.6055 H         1 <0>         0.3891
@<TRIPOS>BOND
     1    1    6 ar
     2    1    2 ar
     3    1   24 1
     4    2    3 ar
     5    2   25 1
     6    3    4 ar
     7    3   26 1
     8    4    5 ar
     9    4    7 1
    10    5    6 ar
    11    5   27 1
    12    6   28 1
    13    7    8 1
    14    7   29 1
    15    7   30 1
    16    8    9 1
    17    8   31 1
    18    8   32 1
    19    9   10 1
    20    9   33 1
    21    9   34 1
    22   10   11 1
    23   10   35 1
    24   10   36 1
    25   11   12 2
    26   11   13 am
    27   13   14 1
    28   13   37 1
    29   14   19 ar
    30   14   15 ar
    31   15   16 ar
    32   15   38 1
    33   16   17 ar
    34   16   39 1
    35   17   18 ar
    36   17   20 1
    37   18   19 ar
    38   18   40 1
    39   19   41 1
    40   20   21 2
    41   20   22 am
    42   22   23 1
    43   22   42 1
    44   23   43 1
@<TRIPOS>MOLECULE
CHEMBL390452
   36    38     0     0     0
SMALL
USER_CHARGES

@<TRIPOS>ATOM
      1 C1          0.7266   -8.5215    0.0441 C.ar      1 <0>        -0.1373
      2 C2          2.0082   -9.0558    0.0352 C.ar      1 <0>        -0.0761
      3 C3          3.1142   -8.2339    0.0124 C.ar      1 <0>        -0.1127
      4 C4          2.9507   -6.8536   -0.0018 C.ar      1 <0>         0.0716
      5 C5          1.6491   -6.3171    0.0073 C.ar      1 <0>        -0.1503
      6 C6          0.5407   -7.1682    0.0304 C.ar      1 <0>        -0.0570
      7 C7          1.8182   -4.8655   -0.0113 C.2       1 <0>        -0.0997
      8 C8          3.1607   -4.6431   -0.0296 C.2       1 <0>        -0.0548
      9 O1          3.8171   -5.8221   -0.0238 O.3       1 <0>        -0.1779
     10 C9          3.7979   -3.3212   -0.0526 C.2       1 <0>         0.4799
     11 O2          3.1157   -2.3186   -0.1523 O.2       1 <0>        -0.4247
     12 C10         5.2689   -3.2079    0.0453 C.ar      1 <0>        -0.1688
     13 C11         5.8685   -1.9501    0.1573 C.ar      1 <0>        -0.0416
     14 C12         7.2419   -1.8411    0.2490 C.ar      1 <0>        -0.1329
     15 C13         8.0337   -2.9719    0.2308 C.ar      1 <0>        -0.0638
     16 C14         7.4480   -4.2378    0.1196 C.ar      1 <0>        -0.0918
     17 C15         6.0598   -4.3547    0.0320 C.ar      1 <0>        -0.0397
     18 C16         8.2931   -5.4432    0.0998 C.2       1 <0>        -0.0025
     19 C17         9.6332   -5.3283    0.1888 C.2       1 <0>        -0.2088
     20 C18        10.4738   -6.5272    0.1691 C.2       1 <0>         0.5608
     21 O3          9.9625   -7.6273    0.0723 O.2       1 <0>        -0.5233
     22 N1         11.8137   -6.4123    0.2581 N.am      1 <0>        -0.5932
     23 O4         12.6265   -7.5716    0.2390 O.3       1 <0>        -0.3154
     24 H1         -0.1291   -9.1803    0.0574 H         1 <0>         0.1344
     25 H2          2.1397  -10.1277    0.0466 H         1 <0>         0.1402
     26 H3          4.1060   -8.6614    0.0061 H         1 <0>         0.1383
     27 H4         -0.4582   -6.7578    0.0371 H         1 <0>         0.1327
     28 H5          1.0364   -4.1204   -0.0107 H         1 <0>         0.1714
     29 H6          5.2557   -1.0609    0.1719 H         1 <0>         0.1405
     30 H7          7.6990   -0.8664    0.3350 H         1 <0>         0.1382
     31 H8          9.1074   -2.8792    0.3022 H         1 <0>         0.1357
     32 H9          5.6013   -5.3291   -0.0503 H         1 <0>         0.1524
     33 H10         7.8394   -6.4195    0.0139 H         1 <0>         0.1420
     34 H11        10.0870   -4.3520    0.2747 H         1 <0>         0.1355
     35 H12        12.2212   -5.5354    0.3352 H         1 <0>         0.4097
     36 H13        13.5736   -7.3891    0.3079 H         1 <0>         0.3892
@<TRIPOS>BOND
     1    1    6 ar
     2    1    2 ar
     3    1   24 1
     4    2    3 ar
     5    2   25 1
     6    3    4 ar
     7    3   26 1
     8    4    9 1
     9    4    5 ar
    10    5    6 ar
    11    5    7 1
    12    6   27 1
    13    7    8 2
    14    7   28 1
    15    8    9 1
    16    8   10 1
    17   10   11 2
    18   10   12 1
    19   12   17 ar
    20   12   13 ar
    21   13   14 ar
    22   13   29 1
    23   14   15 ar
    24   14   30 1
    25   15   16 ar
    26   15   31 1
    27   16   17 ar
    28   16   18 1
    29   17   32 1
    30   18   19 2
    31   18   33 1
    32   19   20 1
    33   19   34 1
    34   20   21 2
    35   20   22 am
    36   22   23 1
    37   22   35 1
    38   23   36 1
@<TRIPOS>MOLECULE
CHEMBL146446
   44    45     0     0     0
SMALL
USER_CHARGES

@<TRIPOS>ATOM
      1 C1         -0.0167    1.3793    0.0096 C.ar      1 <0>        -0.1468
      2 C2          1.1742    2.0821    0.0020 C.ar      1 <0>        -0.0830
      3 C3          2.3793    1.4113   -0.0093 C.ar      1 <0>        -0.1304
      4 C4          2.4070    0.0187   -0.0134 C.ar      1 <0>         0.1082
      5 C5          1.2044   -0.6760   -0.0132 C.ar      1 <0>        -0.1792
      6 C6          0.0021   -0.0041    0.0020 C.ar      1 <0>        -0.0689
      7 C7          1.5447   -2.1535   -0.0431 C.3       1 <0>        -0.0975
      8 C8          3.0352   -2.1302   -0.4570 C.3       1 <0>         0.0632
      9 O1          3.4686   -0.8335   -0.0121 O.3       1 <0>        -0.2729
     10 C9          3.1762   -2.2564   -1.9520 C.2       1 <0>         0.4962
     11 O2          3.6366   -1.3385   -2.5973 O.2       1 <0>        -0.5141
     12 N1          2.7908   -3.3894   -2.5720 N.am      1 <0>        -0.7274
     13 C10         2.9279   -3.5121   -4.0254 C.3       1 <0>         0.1169
     14 C11         2.4214   -4.8852   -4.4713 C.3       1 <0>        -0.1304
     15 C12         2.5646   -5.0134   -5.9892 C.3       1 <0>        -0.1185
     16 C13         2.0580   -6.3865   -6.4351 C.3       1 <0>        -0.1179
     17 C14         2.2012   -6.5146   -7.9530 C.3       1 <0>        -0.1076
     18 C15         1.6947   -7.8878   -8.3989 C.3       1 <0>        -0.1263
     19 C16         1.8358   -8.0140   -9.8940 C.2       1 <0>         0.5205
     20 O3          2.2961   -7.0961  -10.5393 O.2       1 <0>        -0.5183
     21 N2          1.4503   -9.1469  -10.5140 N.am      1 <0>        -0.6003
     22 O4          1.5829   -9.2655  -11.9188 O.3       1 <0>        -0.3204
     23 H1         -0.9581    1.9084    0.0260 H         1 <0>         0.1299
     24 H2          1.1606    3.1620    0.0046 H         1 <0>         0.1334
     25 H3          3.3049    1.9678   -0.0146 H         1 <0>         0.1301
     26 H4         -0.9257   -0.5569    0.0087 H         1 <0>         0.1256
     27 H5          1.4211   -2.6017    0.9427 H         1 <0>         0.1053
     28 H6          0.9424   -2.6769   -0.7857 H         1 <0>         0.0954
     29 H7          3.5897   -2.9185    0.0523 H         1 <0>         0.1440
     30 H8          2.4226   -4.1235   -2.0559 H         1 <0>         0.4015
     31 H9          2.3419   -2.7328   -4.5127 H         1 <0>         0.0693
     32 H10         3.9768   -3.4044   -4.3018 H         1 <0>         0.0703
     33 H11         3.0073   -5.6645   -3.9840 H         1 <0>         0.0707
     34 H12         1.3725   -4.9929   -4.1950 H         1 <0>         0.0702
     35 H13         1.9786   -4.2341   -6.4765 H         1 <0>         0.0684
     36 H14         3.6135   -4.9057   -6.2656 H         1 <0>         0.0687
     37 H15         2.6440   -7.1658   -5.9478 H         1 <0>         0.0652
     38 H16         1.0092   -6.4942   -6.1588 H         1 <0>         0.0650
     39 H17         1.6153   -5.7354   -8.4403 H         1 <0>         0.0738
     40 H18         3.2501   -6.4070   -8.2294 H         1 <0>         0.0739
     41 H19         2.2807   -8.6670   -7.9116 H         1 <0>         0.0992
     42 H20         0.6458   -7.9954   -8.1226 H         1 <0>         0.0992
     43 H21         1.0822   -9.8811   -9.9979 H         1 <0>         0.4080
     44 H22         1.2802  -10.1132  -12.2722 H         1 <0>         0.3878
@<TRIPOS>BOND
     1    1    6 ar
     2    1    2 ar
     3    1   23 1
     4    2    3 ar
     5    2   24 1
     6    3    4 ar
     7    3   25 1
     8    4    9 1
     9    4    5 ar
    10    5    6 ar
    11    5    7 1
    12    6   26 1
    13    7    8 1
    14    7   27 1
    15    7   28 1
    16    8    9 1
    17    8   10 1
    18    8   29 1
    19   10   11 2
    20   10   12 am
    21   12   13 1
    22   12   30 1
    23   13   14 1
    24   13   31 1
    25   13   32 1
    26   14   15 1
    27   14   33 1
    28   14   34 1
    29   15   16 1
    30   15   35 1
    31   15   36 1
    32   16   17 1
    33   16   37 1
    34   16   38 1
    35   17   18 1
    36   17   39 1
    37   17   40 1
    38   18   19 1
    39   18   41 1
    40   18   42 1
    41   19   20 2
    42   19   21 am
    43   21   22 1
    44   21   43 1
    45   22   44 1
@<TRIPOS>MOLECULE
CHEMBL146446__1
   44    45     0     0     0
SMALL
USER_CHARGES

@<TRIPOS>ATOM
      1 C1         -0.0167    1.3793    0.0096 C.ar      1 <0>        -0.1469
      2 C2          1.1742    2.0821    0.0020 C.ar      1 <0>        -0.0818
      3 C3          2.3793    1.4113   -0.0093 C.ar      1 <0>        -0.1338
      4 C4          2.4070    0.0187   -0.0134 C.ar      1 <0>         0.1042
      5 C5          1.2044   -0.6760   -0.0132 C.ar      1 <0>        -0.1772
      6 C6          0.0021   -0.0041    0.0020 C.ar      1 <0>        -0.0672
      7 C7          1.5447   -2.1535   -0.0431 C.3       1 <0>        -0.0974
      8 C8          3.0352   -2.1302   -0.4570 C.3       1 <0>         0.0638
      9 O1          3.4686   -0.8335   -0.0121 O.3       1 <0>        -0.2743
     10 C9          3.8018   -3.2200    0.2471 C.2       1 <0>         0.5175
     11 O2          4.6718   -2.9331    1.0418 O.2       1 <0>        -0.5103
     12 N1          3.5206   -4.5135   -0.0065 N.am      1 <0>        -0.7260
     13 C10         4.2659   -5.5729    0.6779 C.3       1 <0>         0.1175
     14 C11         3.7542   -6.9380    0.2137 C.3       1 <0>        -0.1307
     15 C12         4.5325   -8.0444    0.9285 C.3       1 <0>        -0.1186
     16 C13         4.0208   -9.4096    0.4643 C.3       1 <0>        -0.1180
     17 C14         4.7992  -10.5160    1.1791 C.3       1 <0>        -0.1076
     18 C15         4.2874  -11.8811    0.7149 C.3       1 <0>        -0.1263
     19 C16         5.0541  -12.9709    1.4189 C.2       1 <0>         0.5204
     20 O3          5.9241  -12.6840    2.2137 O.2       1 <0>        -0.5182
     21 N2          4.7729  -14.2644    1.1653 N.am      1 <0>        -0.6003
     22 O4          5.4933  -15.2884    1.8268 O.3       1 <0>        -0.3204
     23 H1         -0.9581    1.9084    0.0260 H         1 <0>         0.1305
     24 H2          1.1606    3.1620    0.0046 H         1 <0>         0.1341
     25 H3          3.3049    1.9678   -0.0146 H         1 <0>         0.1310
     26 H4         -0.9257   -0.5569    0.0087 H         1 <0>         0.1267
     27 H5          1.4211   -2.6017    0.9427 H         1 <0>         0.0955
     28 H6          0.9424   -2.6769   -0.7857 H         1 <0>         0.1020
     29 H7          3.1372   -2.2215   -1.5383 H         1 <0>         0.1152
     30 H8          2.8248   -4.7430   -0.6421 H         1 <0>         0.4024
     31 H9          5.3260   -5.4826    0.4411 H         1 <0>         0.0714
     32 H10         4.1249   -5.4790    1.7546 H         1 <0>         0.0710
     33 H11         2.6941   -7.0284    0.4506 H         1 <0>         0.0708
     34 H12         3.8952   -7.0320   -0.8630 H         1 <0>         0.0709
     35 H13         5.5927   -7.9541    0.6916 H         1 <0>         0.0689
     36 H14         4.3915   -7.9505    2.0052 H         1 <0>         0.0688
     37 H15         2.9607   -9.4999    0.7011 H         1 <0>         0.0651
     38 H16         4.1618   -9.5035   -0.6125 H         1 <0>         0.0652
     39 H17         5.8593  -10.4256    0.9422 H         1 <0>         0.0739
     40 H18         4.6581  -10.4220    2.2558 H         1 <0>         0.0739
     41 H19         3.2273  -11.9715    0.9517 H         1 <0>         0.0992
     42 H20         4.4285  -11.9751   -0.3619 H         1 <0>         0.0992
     43 H21         4.0771  -14.4939    0.5297 H         1 <0>         0.4080
     44 H22         5.2211  -16.1829    1.5804 H         1 <0>         0.3878
@<TRIPOS>BOND
     1    1    6 ar
     2    1    2 ar
     3    1   23 1
     4    2    3 ar
     5    2   24 1
     6    3    4 ar
     7    3   25 1
     8    4    9 1
     9    4    5 ar
    10    5    6 ar
    11    5    7 1
    12    6   26 1
    13    7    8 1
    14    7   27 1
    15    7   28 1
    16    8    9 1
    17    8   10 1
    18    8   29 1
    19   10   11 2
    20   10   12 am
    21   12   13 1
    22   12   30 1
    23   13   14 1
    24   13   31 1
    25   13   32 1
    26   14   15 1
    27   14   33 1
    28   14   34 1
    29   15   16 1
    30   15   35 1
    31   15   36 1
    32   16   17 1
    33   16   37 1
    34   16   38 1
    35   17   18 1
    36   17   39 1
    37   17   40 1
    38   18   19 1
    39   18   41 1
    40   18   42 1
    41   19   20 2
    42   19   21 am
    43   21   22 1
    44   21   43 1
    45   22   44 1
@<TRIPOS>MOLECULE
CHEMBL274270
   90    92     0     0     0
SMALL
USER_CHARGES

@<TRIPOS>ATOM
      1 C1         -0.0187    1.5258    0.0104 C.3       1 <0>        -0.1520
      2 C2          0.0021   -0.0041    0.0020 C.3       1 <0>        -0.1110
      3 C3          0.7182   -0.4975   -1.2568 C.3       1 <0>        -0.0995
      4 C4         -0.0892   -0.0968   -2.4931 C.3       1 <0>        -0.1585
      5 C5          0.8489   -2.0166   -1.2051 C.3       1 <0>         0.1504
      6 H1         -0.1575   -2.4590   -1.1518 H         1 <0>         0.0984
      7 C6          1.5574   -2.5528   -2.4126 C.2       1 <0>         0.5072
      8 O1          2.7675   -2.4309   -2.4751 O.2       1 <0>        -0.4888
      9 N1          0.9609   -3.1376   -3.4696 N.am      1 <0>        -0.6178
     10 C7         -0.3181   -2.6219   -3.9434 C.3       1 <0>         0.1110
     11 C8         -1.1997   -3.7201   -4.5302 C.3       1 <0>        -0.1359
     12 C9         -0.3757   -4.5323   -5.5336 C.3       1 <0>        -0.1172
     13 C10         0.7393   -5.2415   -4.7682 C.3       1 <0>        -0.1247
     14 C11         1.6798   -4.2275   -4.1225 C.3       1 <0>         0.1504
     15 H2          2.3708   -3.8320   -4.8613 H         1 <0>         0.0801
     16 C12         2.4658   -4.9519   -3.0430 C.2       1 <0>         0.5028
     17 O2          1.9015   -5.7028   -2.2735 O.2       1 <0>        -0.4928
     18 N2          3.8124   -4.7415   -2.9713 N.am      1 <0>        -0.7066
     19 C13         4.5019   -5.4090   -1.8333 C.3       1 <0>         0.1359
     20 H3          4.2117   -6.4632   -1.8042 H         1 <0>         0.1112
     21 C14         4.0247   -4.7151   -0.5860 C.2       1 <0>         0.5104
     22 O3          3.0130   -5.1091   -0.0282 O.2       1 <0>        -0.5025
     23 N3          4.7093   -3.6547   -0.0613 N.am      1 <0>        -0.7213
     24 C15         3.8886   -2.8833    0.9292 C.3       1 <0>         0.1267
     25 H4          3.3526   -3.5541    1.5902 H         1 <0>         0.1078
     26 C16         2.9243   -2.0971    0.0702 C.2       1 <0>         0.5231
     27 O4          3.3628   -1.1275   -0.5137 O.2       1 <0>        -0.4946
     28 N4          1.6294   -2.4634   -0.0262 N.am      1 <0>        -0.7205
     29 C17         4.7812   -1.9311    1.7244 C.3       1 <0>        -0.1140
     30 C18         5.7654   -2.7415    2.5703 C.3       1 <0>         0.0642
     31 O5          6.6000   -1.8511    3.3137 O.3       1 <0>        -0.3128
     32 C19         7.5364   -2.4137    4.1221 C.ar      1 <0>         0.1295
     33 C20         7.6535   -3.7942    4.1937 C.ar      1 <0>        -0.2094
     34 C21         8.6066   -4.3637    5.0158 C.ar      1 <0>        -0.0801
     35 C22         9.4431   -3.5590    5.7672 C.ar      1 <0>        -0.1584
     36 C23         9.3281   -2.1829    5.6979 C.ar      1 <0>        -0.0802
     37 C24         8.3807   -1.6084    4.8726 C.ar      1 <0>        -0.1524
     38 C25         6.0157   -5.2990   -1.9956 C.3       1 <0>        -0.1303
     39 C26         6.4537   -6.0796   -3.2364 C.3       1 <0>        -0.1164
     40 C27         7.9710   -5.9694   -3.3991 C.3       1 <0>        -0.1194
     41 C28         8.4090   -6.7501   -4.6399 C.3       1 <0>        -0.1123
     42 C29         9.9263   -6.6398   -4.8025 C.3       1 <0>        -0.1734
     43 C30        10.3577   -7.4087   -6.0247 C.2       1 <0>         0.3513
     44 O6          9.5363   -7.9854   -6.6963 O.2       1 <0>        -0.4514
     45 C31        11.8141   -7.4580   -6.4087 C.3       1 <0>        -0.1774
     46 C32        11.9789   -8.2974   -7.6773 C.3       1 <0>        -0.1465
     47 H5          1.0039    1.9031    0.0027 H         1 <0>         0.0551
     48 H6         -0.5459    1.8868   -0.8726 H         1 <0>         0.0564
     49 H7         -0.5289    1.8773    0.9072 H         1 <0>         0.0544
     50 H8          0.5293   -0.3651    0.8851 H         1 <0>         0.0631
     51 H9         -1.0205   -0.3814    0.0098 H         1 <0>         0.0604
     52 H10         1.7103   -0.0491   -1.3098 H         1 <0>         0.1067
     53 H11        -0.1826    0.9885   -2.5300 H         1 <0>         0.0691
     54 H12         0.4210   -0.4484   -3.3899 H         1 <0>         0.0569
     55 H13        -1.0813   -0.5452   -2.4401 H         1 <0>         0.0601
     56 H14        -0.8489   -2.1451   -3.1151 H         1 <0>         0.0852
     57 H15        -0.1344   -1.8639   -4.7117 H         1 <0>         0.0638
     58 H16        -1.5524   -4.3753   -3.7345 H         1 <0>         0.0725
     59 H17        -2.0537   -3.2743   -5.0403 H         1 <0>         0.0813
     60 H18        -1.0149   -5.2675   -6.0200 H         1 <0>         0.0749
     61 H19         0.0545   -3.8647   -6.2781 H         1 <0>         0.0676
     62 H20         0.2978   -5.8719   -3.9930 H         1 <0>         0.0855
     63 H21         1.3045   -5.8741   -5.4557 H         1 <0>         0.0793
     64 H22         4.2914   -4.1972   -3.6138 H         1 <0>         0.4135
     65 H23         5.6179   -3.4033   -0.2781 H         1 <0>         0.4143
     66 H24         1.2124   -3.0174    0.6680 H         1 <0>         0.4139
     67 H25         5.3342   -1.2917    1.0363 H         1 <0>         0.0957
     68 H26         4.1636   -1.3140    2.3770 H         1 <0>         0.0932
     69 H27         5.2123   -3.3808    3.2584 H         1 <0>         0.0655
     70 H28         6.3829   -3.3586    1.9177 H         1 <0>         0.0635
     71 H29         6.9999   -4.4232    3.6076 H         1 <0>         0.1262
     72 H30         8.6982   -5.4383    5.0719 H         1 <0>         0.1246
     73 H31        10.1873   -4.0061    6.4095 H         1 <0>         0.1240
     74 H32         9.9824   -1.5564    6.2860 H         1 <0>         0.1297
     75 H33         8.2942   -0.5334    4.8155 H         1 <0>         0.1307
     76 H34         6.2938   -4.2511   -2.1087 H         1 <0>         0.0765
     77 H35         6.5065   -5.7121   -1.1144 H         1 <0>         0.0848
     78 H36         6.1756   -7.1275   -3.1233 H         1 <0>         0.0681
     79 H37         5.9628   -5.6665   -4.1176 H         1 <0>         0.0662
     80 H38         8.2491   -4.9216   -3.5121 H         1 <0>         0.0646
     81 H39         8.4618   -6.3825   -2.5179 H         1 <0>         0.0647
     82 H40         8.1309   -7.7979   -4.5268 H         1 <0>         0.0678
     83 H41         7.9181   -6.3369   -5.5211 H         1 <0>         0.0675
     84 H42        10.2044   -5.5920   -4.9156 H         1 <0>         0.0978
     85 H43        10.4172   -7.0530   -3.9213 H         1 <0>         0.0978
     86 H44        12.1757   -6.4464   -6.5929 H         1 <0>         0.0973
     87 H45        12.3885   -7.9074   -5.5986 H         1 <0>         0.0973
     88 H46        13.0323   -8.3330   -7.9551 H         1 <0>         0.0613
     89 H47        11.6173   -9.3090   -7.4932 H         1 <0>         0.0594
     90 H48        11.4046   -7.8480   -8.4874 H         1 <0>         0.0593
@<TRIPOS>BOND
     1    1    2 1
     2    1   47 1
     3    1   48 1
     4    1   49 1
     5    2    3 1
     6    2   50 1
     7    2   51 1
     8    3    4 1
     9    3    5 1
    10    3   52 1
    11    4   53 1
    12    4   54 1
    13    4   55 1
    14    5    6 1
    15    5   28 1
    16    5    7 1
    17    7    8 2
    18    7    9 am
    19    9   14 1
    20    9   10 1
    21   10   11 1
    22   10   56 1
    23   10   57 1
    24   11   12 1
    25   11   58 1
    26   11   59 1
    27   12   13 1
    28   12   60 1
    29   12   61 1
    30   13   14 1
    31   13   62 1
    32   13   63 1
    33   14   15 1
    34   14   16 1
    35   16   17 2
    36   16   18 am
    37   18   19 1
    38   18   64 1
    39   19   20 1
    40   19   21 1
    41   19   38 1
    42   21   22 2
    43   21   23 am
    44   23   24 1
    45   23   65 1
    46   24   25 1
    47   24   26 1
    48   24   29 1
    49   26   27 2
    50   26   28 am
    51   28   66 1
    52   29   30 1
    53   29   67 1
    54   29   68 1
    55   30   31 1
    56   30   69 1
    57   30   70 1
    58   31   32 1
    59   32   37 ar
    60   32   33 ar
    61   33   34 ar
    62   33   71 1
    63   34   35 ar
    64   34   72 1
    65   35   36 ar
    66   35   73 1
    67   36   37 ar
    68   36   74 1
    69   37   75 1
    70   38   39 1
    71   38   76 1
    72   38   77 1
    73   39   40 1
    74   39   78 1
    75   39   79 1
    76   40   41 1
    77   40   80 1
    78   40   81 1
    79   41   42 1
    80   41   82 1
    81   41   83 1
    82   42   43 1
    83   42   84 1
    84   42   85 1
    85   43   44 2
    86   43   45 1
    87   45   46 1
    88   45   86 1
    89   45   87 1
    90   46   88 1
    91   46   89 1
    92   46   90 1
@<TRIPOS>MOLECULE
CHEMBL274270__1
   90    92     0     0     0
SMALL
USER_CHARGES

@<TRIPOS>ATOM
      1 C1          0.2884    1.6372   -2.4819 C.3       1 <0>        -0.1503
      2 C2          0.1171    0.1173   -2.5223 C.3       1 <0>        -0.1290
      3 C3          0.7182   -0.4975   -1.2568 C.3       1 <0>        -0.0992
      4 C4         -0.0784   -0.0327   -0.0360 C.3       1 <0>        -0.1402
      5 C5          0.6595   -2.0189   -1.3532 C.3       1 <0>         0.1502
      6 H1         -0.3890   -2.3273   -1.4831 H         1 <0>         0.0985
      7 C6          1.4685   -2.5322   -2.5064 C.2       1 <0>         0.5068
      8 O1          2.6805   -2.5663   -2.3932 O.2       1 <0>        -0.4883
      9 N1          0.9679   -2.9346   -3.6907 N.am      1 <0>        -0.6180
     10 C7         -0.1581   -2.2134   -4.2721 C.3       1 <0>         0.1117
     11 C8         -1.0681   -3.1275   -5.0870 C.3       1 <0>        -0.1358
     12 C9         -0.2082   -3.9470   -6.0536 C.3       1 <0>        -0.1172
     13 C10         0.6913   -4.8640   -5.2278 C.3       1 <0>        -0.1247
     14 C11         1.6406   -4.0462   -4.3561 C.3       1 <0>         0.1504
     15 H2          2.4740   -3.6800   -4.9488 H         1 <0>         0.0802
     16 C12         2.1693   -4.9632   -3.2665 C.2       1 <0>         0.5028
     17 O2          1.4139   -5.6996   -2.6652 O.2       1 <0>        -0.4928
     18 N2          3.5063   -4.9400   -2.9933 N.am      1 <0>        -0.7066
     19 C13         3.9384   -5.7934   -1.8526 C.3       1 <0>         0.1359
     20 H3          3.5246   -6.7982   -1.9771 H         1 <0>         0.1113
     21 C14         3.3695   -5.1586   -0.6124 C.2       1 <0>         0.5104
     22 O3          2.2478   -5.4644   -0.2406 O.2       1 <0>        -0.5025
     23 N3          4.0905   -4.2501    0.1110 N.am      1 <0>        -0.7213
     24 C15         3.2309   -3.4701    1.0609 C.3       1 <0>         0.1268
     25 H4          2.5286   -4.1214    1.5677 H         1 <0>         0.1079
     26 C16         2.5022   -2.4886    0.1713 C.2       1 <0>         0.5229
     27 O4          3.1327   -1.5365   -0.2402 O.2       1 <0>        -0.4947
     28 N4          1.2011   -2.6701   -0.1362 N.am      1 <0>        -0.7202
     29 C17         4.1039   -2.7205    2.0667 C.3       1 <0>        -0.1140
     30 C18         4.8513   -3.7274    2.9434 C.3       1 <0>         0.0642
     31 O5          5.6676   -3.0264    3.8838 O.3       1 <0>        -0.3128
     32 C19         6.4028   -3.7790    4.7440 C.ar      1 <0>         0.1295
     33 C20         6.3443   -5.1636    4.6804 C.ar      1 <0>        -0.2094
     34 C21         7.0930   -5.9263    5.5557 C.ar      1 <0>        -0.0802
     35 C22         7.8999   -5.3109    6.4948 C.ar      1 <0>        -0.1584
     36 C23         7.9596   -3.9311    6.5605 C.ar      1 <0>        -0.0802
     37 C24         7.2176   -3.1639    5.6834 C.ar      1 <0>        -0.1524
     38 C25         5.4620   -5.8703   -1.7985 C.3       1 <0>        -0.1303
     39 C26         5.9812   -6.5861   -3.0471 C.3       1 <0>        -0.1163
     40 C27         7.5083   -6.6631   -2.9928 C.3       1 <0>        -0.1194
     41 C28         8.0275   -7.3790   -4.2414 C.3       1 <0>        -0.1123
     42 C29         9.5546   -7.4560   -4.1872 C.3       1 <0>        -0.1734
     43 C30        10.0660   -8.1611   -5.4170 C.2       1 <0>         0.3513
     44 O6          9.2892   -8.5607   -6.2508 O.2       1 <0>        -0.4514
     45 C31        11.5467   -8.3675   -5.6062 C.3       1 <0>        -0.1774
     46 C32        11.7947   -9.1025   -6.9250 C.3       1 <0>        -0.1465
     47 H5         -0.2221    2.0372   -1.6058 H         1 <0>         0.0584
     48 H6          1.3491    1.8820   -2.4275 H         1 <0>         0.0554
     49 H7         -0.1399    2.0752   -3.3834 H         1 <0>         0.0558
     50 H8         -0.9437   -0.1274   -2.5766 H         1 <0>         0.0662
     51 H9          0.6276   -0.2826   -3.3984 H         1 <0>         0.0649
     52 H10         1.7559   -0.1796   -1.1560 H         1 <0>         0.1059
     53 H11         0.2870   -0.5462    0.8533 H         1 <0>         0.0562
     54 H12         0.0438    1.0431    0.0896 H         1 <0>         0.0621
     55 H13        -1.1337   -0.2640   -0.1812 H         1 <0>         0.0538
     56 H14        -0.7441   -1.7478   -3.4753 H         1 <0>         0.0844
     57 H15         0.2240   -1.4197   -4.9223 H         1 <0>         0.0642
     58 H16        -1.6082   -3.7998   -4.4214 H         1 <0>         0.0727
     59 H17        -1.7797   -2.5283   -5.6552 H         1 <0>         0.0815
     60 H18        -0.8517   -4.5441   -6.6979 H         1 <0>         0.0750
     61 H19         0.4020   -3.2774   -6.6572 H         1 <0>         0.0677
     62 H20         0.0700   -5.4983   -4.5915 H         1 <0>         0.0856
     63 H21         1.2722   -5.5008   -5.8983 H         1 <0>         0.0794
     64 H22         4.1350   -4.4078   -3.5032 H         1 <0>         0.4135
     65 H23         5.0443   -4.1025    0.0459 H         1 <0>         0.4143
     66 H24         0.6246   -3.2249    0.4319 H         1 <0>         0.4140
     67 H25         4.8232   -2.1001    1.5320 H         1 <0>         0.0958
     68 H26         3.4749   -2.0890    2.6941 H         1 <0>         0.0933
     69 H27         4.1320   -4.3478    3.4780 H         1 <0>         0.0655
     70 H28         5.4803   -4.3589    2.3160 H         1 <0>         0.0635
     71 H29         5.7136   -5.6448    3.9475 H         1 <0>         0.1262
     72 H30         7.0477   -7.0043    5.5066 H         1 <0>         0.1246
     73 H31         8.4842   -5.9090    7.1784 H         1 <0>         0.1241
     74 H32         8.5904   -3.4527    7.2951 H         1 <0>         0.1297
     75 H33         7.2680   -2.0862    5.7322 H         1 <0>         0.1307
     76 H34         5.8755   -4.8625   -1.7591 H         1 <0>         0.0765
     77 H35         5.7665   -6.4230   -0.9098 H         1 <0>         0.0848
     78 H36         5.5677   -7.5938   -3.0865 H         1 <0>         0.0681
     79 H37         5.6766   -6.0334   -3.9358 H         1 <0>         0.0662
     80 H38         7.9218   -5.6554   -2.9534 H         1 <0>         0.0646
     81 H39         7.8128   -7.2158   -2.1041 H         1 <0>         0.0647
     82 H40         7.6140   -8.3867   -4.2808 H         1 <0>         0.0678
     83 H41         7.7229   -6.8262   -5.1302 H         1 <0>         0.0675
     84 H42         9.9681   -6.4483   -4.1477 H         1 <0>         0.0978
     85 H43         9.8591   -8.0087   -3.2984 H         1 <0>         0.0977
     86 H44        12.0483   -7.4000   -5.6296 H         1 <0>         0.0973
     87 H45        11.9394   -8.9605   -4.7803 H         1 <0>         0.0973
     88 H46        12.8658   -9.2518   -7.0619 H         1 <0>         0.0613
     89 H47        11.2931  -10.0699   -6.9016 H         1 <0>         0.0594
     90 H48        11.4021   -8.5095   -7.7509 H         1 <0>         0.0594
@<TRIPOS>BOND
     1    1    2 1
     2    1   47 1
     3    1   48 1
     4    1   49 1
     5    2    3 1
     6    2   50 1
     7    2   51 1
     8    3    4 1
     9    3    5 1
    10    3   52 1
    11    4   53 1
    12    4   54 1
    13    4   55 1
    14    5    6 1
    15    5   28 1
    16    5    7 1
    17    7    8 2
    18    7    9 am
    19    9   14 1
    20    9   10 1
    21   10   11 1
    22   10   56 1
    23   10   57 1
    24   11   12 1
    25   11   58 1
    26   11   59 1
    27   12   13 1
    28   12   60 1
    29   12   61 1
    30   13   14 1
    31   13   62 1
    32   13   63 1
    33   14   15 1
    34   14   16 1
    35   16   17 2
    36   16   18 am
    37   18   19 1
    38   18   64 1
    39   19   20 1
    40   19   21 1
    41   19   38 1
    42   21   22 2
    43   21   23 am
    44   23   24 1
    45   23   65 1
    46   24   25 1
    47   24   26 1
    48   24   29 1
    49   26   27 2
    50   26   28 am
    51   28   66 1
    52   29   30 1
    53   29   67 1
    54   29   68 1
    55   30   31 1
    56   30   69 1
    57   30   70 1
    58   31   32 1
    59   32   37 ar
    60   32   33 ar
    61   33   34 ar
    62   33   71 1
    63   34   35 ar
    64   34   72 1
    65   35   36 ar
    66   35   73 1
    67   36   37 ar
    68   36   74 1
    69   37   75 1
    70   38   39 1
    71   38   76 1
    72   38   77 1
    73   39   40 1
    74   39   78 1
    75   39   79 1
    76   40   41 1
    77   40   80 1
    78   40   81 1
    79   41   42 1
    80   41   82 1
    81   41   83 1
    82   42   43 1
    83   42   84 1
    84   42   85 1
    85   43   44 2
    86   43   45 1
    87   45   46 1
    88   45   86 1
    89   45   87 1
    90   46   88 1
    91   46   89 1
    92   46   90 1
@<TRIPOS>MOLECULE
CHEMBL141236
   57    60     0     0     0
SMALL
USER_CHARGES

@<TRIPOS>ATOM
      1 C1         -0.0165    1.3620    0.0095 C.ar      1 <0>        -0.1336
      2 C2          1.1697    2.0834    0.0021 C.ar      1 <0>        -0.0954
      3 C3          2.3856    1.4362   -0.0134 C.ar      1 <0>        -0.1174
      4 C4          2.4281    0.0456   -0.0212 C.ar      1 <0>         0.1007
      5 C5          1.2234   -0.6807   -0.0132 C.ar      1 <0>        -0.1004
      6 C6          0.0021   -0.0041    0.0020 C.ar      1 <0>        -0.0845
      7 C7          1.6036   -2.0953   -0.0245 C.2       1 <0>        -0.2060
      8 C8          2.9451   -2.1410   -0.0380 C.2       1 <0>         0.0846
      9 N1          3.4551   -0.8713   -0.0363 N.pl3     1 <0>        -0.4711
     10 C9          4.8815   -0.5372   -0.0482 C.3       1 <0>         0.1380
     11 C10         5.3632   -0.3066    1.3856 C.3       1 <0>        -0.1840
     12 C11         5.8641    1.0935    1.7459 C.3       1 <0>        -0.1730
     13 C12         6.8583   -0.0599    1.5974 C.3       1 <0>        -0.1666
     14 C13         0.6664   -3.2754   -0.0210 C.3       1 <0>        -0.0575
     15 C14         0.2361   -3.5891   -1.4554 C.3       1 <0>        -0.0083
     16 N2         -0.6775   -4.7395   -1.4520 N.4       1 <0>        -0.5096
     17 C15        -1.0906   -5.0407   -2.8292 C.3       1 <0>         0.0459
     18 C16        -2.0278   -6.2208   -2.8257 C.ar      1 <0>        -0.1612
     19 C17        -1.5199   -7.5035   -2.9366 C.ar      1 <0>        -0.0903
     20 C18        -2.3710   -8.5884   -2.9347 C.ar      1 <0>        -0.0930
     21 C19        -3.7505   -8.3901   -2.8199 C.ar      1 <0>        -0.0297
     22 C20        -4.2558   -7.0910   -2.7078 C.ar      1 <0>        -0.1039
     23 C21        -3.3914   -6.0167   -2.7060 C.ar      1 <0>        -0.0900
     24 C22        -4.6660   -9.5428   -2.8175 C.2       1 <0>        -0.0364
     25 C23        -5.9952   -9.3476   -2.7066 C.2       1 <0>        -0.1742
     26 C24        -6.9059  -10.4943   -2.7042 C.2       1 <0>         0.5540
     27 O1         -6.4628  -11.6234   -2.8024 O.2       1 <0>        -0.5157
     28 N3         -8.2349  -10.2991   -2.5934 N.am      1 <0>        -0.5902
     29 O2         -9.1155  -11.4080   -2.5911 O.3       1 <0>        -0.3109
     30 H1         -0.9613    1.8849    0.0259 H         1 <0>         0.1256
     31 H2          1.1388    3.1630    0.0081 H         1 <0>         0.1297
     32 H3          3.3028    2.0064   -0.0198 H         1 <0>         0.1219
     33 H4         -0.9246   -0.5587    0.0082 H         1 <0>         0.1169
     34 H5          3.5346   -3.0459   -0.0490 H         1 <0>         0.1691
     35 H6          5.4433   -1.3588   -0.4925 H         1 <0>         0.0978
     36 H7          5.0376    0.3686   -0.6341 H         1 <0>         0.0918
     37 H8          4.8311   -0.8648    2.1558 H         1 <0>         0.1096
     38 H9          5.8503    1.8503    0.9616 H         1 <0>         0.0977
     39 H10         5.6614    1.4567    2.7534 H         1 <0>         0.0993
     40 H11         7.3097   -0.4556    2.5072 H         1 <0>         0.1018
     41 H12         7.4986   -0.0620    0.7153 H         1 <0>         0.1000
     42 H13         1.1742   -4.1414    0.4036 H         1 <0>         0.0903
     43 H14        -0.2127   -3.0396    0.5787 H         1 <0>         0.0912
     44 H15        -0.2717   -2.7231   -1.8800 H         1 <0>         0.1324
     45 H16         1.1152   -3.8250   -2.0551 H         1 <0>         0.1313
     46 H17        -0.2074   -5.5412   -1.0590 H         1 <0>         0.4269
     47 H18        -1.5985   -4.1747   -3.2538 H         1 <0>         0.1384
     48 H19        -0.2116   -5.2766   -3.4289 H         1 <0>         0.1383
     49 H20        -0.4543   -7.6551   -3.0253 H         1 <0>         0.1364
     50 H21        -1.9733   -9.5887   -3.0221 H         1 <0>         0.1429
     51 H22        -5.3200   -6.9299   -2.6191 H         1 <0>         0.1399
     52 H23        -3.7799   -5.0130   -2.6151 H         1 <0>         0.1359
     53 H24        -4.2727  -10.5449   -2.9046 H         1 <0>         0.1474
     54 H25        -6.3885   -8.3456   -2.6195 H         1 <0>         0.1369
     55 H26        -8.5881   -9.3991   -2.5152 H         1 <0>         0.4101
     56 H27       -10.0487  -11.1689   -2.5074 H         1 <0>         0.3931
     57 H28        -1.4912   -4.5212   -0.8969 H         1 <0>         0.4271
@<TRIPOS>BOND
     1    1    6 ar
     2    1    2 ar
     3    1   30 1
     4    2    3 ar
     5    2   31 1
     6    3    4 ar
     7    3   32 1
     8    4    9 1
     9    4    5 ar
    10    5    6 ar
    11    5    7 1
    12    6   33 1
    13    7    8 2
    14    7   14 1
    15    8    9 1
    16    8   34 1
    17    9   10 1
    18   10   11 1
    19   10   35 1
    20   10   36 1
    21   11   13 1
    22   11   12 1
    23   11   37 1
    24   12   13 1
    25   12   38 1
    26   12   39 1
    27   13   40 1
    28   13   41 1
    29   14   15 1
    30   14   42 1
    31   14   43 1
    32   15   16 1
    33   15   44 1
    34   15   45 1
    35   16   17 1
    36   16   46 1
    37   16   57 1
    38   17   18 1
    39   17   47 1
    40   17   48 1
    41   18   23 ar
    42   18   19 ar
    43   19   20 ar
    44   19   49 1
    45   20   21 ar
    46   20   50 1
    47   21   22 ar
    48   21   24 1
    49   22   23 ar
    50   22   51 1
    51   23   52 1
    52   24   25 2
    53   24   53 1
    54   25   26 1
    55   25   54 1
    56   26   27 2
    57   26   28 am
    58   28   29 1
    59   28   55 1
    60   29   56 1
@<TRIPOS>MOLECULE
CHEMBL141236__1
   56    59     0     0     0
SMALL
USER_CHARGES

@<TRIPOS>ATOM
      1 C1         -0.0165    1.3620    0.0095 C.ar      1 <0>        -0.1476
      2 C2          1.1697    2.0834    0.0021 C.ar      1 <0>        -0.0998
      3 C3          2.3856    1.4362   -0.0134 C.ar      1 <0>        -0.1274
      4 C4          2.4281    0.0456   -0.0212 C.ar      1 <0>         0.1015
      5 C5          1.2234   -0.6807   -0.0132 C.ar      1 <0>        -0.1012
      6 C6          0.0021   -0.0041    0.0020 C.ar      1 <0>        -0.0695
      7 C7          1.6036   -2.0953   -0.0245 C.2       1 <0>        -0.1681
      8 C8          2.9451   -2.1410   -0.0380 C.2       1 <0>         0.0540
      9 N1          3.4551   -0.8713   -0.0363 N.pl3     1 <0>        -0.4800
     10 C9          4.8815   -0.5372   -0.0482 C.3       1 <0>         0.1427
     11 C10         5.3632   -0.3066    1.3856 C.3       1 <0>        -0.1783
     12 C11         5.8641    1.0935    1.7459 C.3       1 <0>        -0.1740
     13 C12         6.8583   -0.0599    1.5974 C.3       1 <0>        -0.1701
     14 C13         0.6664   -3.2754   -0.0210 C.3       1 <0>        -0.0390
     15 C14         0.2361   -3.5891   -1.4554 C.3       1 <0>         0.0652
     16 N2         -0.6775   -4.7395   -1.4520 N.3       1 <0>        -0.6853
     17 C15        -1.1125   -5.0703   -2.8156 C.3       1 <0>         0.0954
     18 C16        -2.0461   -6.2524   -2.7722 C.ar      1 <0>        -0.0673
     19 C17        -1.5366   -7.5359   -2.8648 C.ar      1 <0>        -0.1168
     20 C18        -2.3845   -8.6226   -2.8263 C.ar      1 <0>        -0.0896
     21 C19        -3.7624   -8.4253   -2.6928 C.ar      1 <0>        -0.0811
     22 C20        -4.2695   -7.1254   -2.5993 C.ar      1 <0>        -0.0983
     23 C21        -3.4082   -6.0491   -2.6342 C.ar      1 <0>        -0.0993
     24 C22        -4.6745   -9.5800   -2.6513 C.2       1 <0>        -0.0015
     25 C23        -6.0023   -9.3858   -2.5225 C.2       1 <0>        -0.2128
     26 C24        -6.9096  -10.5343   -2.4813 C.2       1 <0>         0.5610
     27 O1         -6.4650  -11.6642   -2.5633 O.2       1 <0>        -0.5257
     28 N3         -8.2371  -10.3402   -2.3525 N.am      1 <0>        -0.5936
     29 O2         -9.1145  -11.4509   -2.3126 O.3       1 <0>        -0.3162
     30 H1         -0.9613    1.8849    0.0259 H         1 <0>         0.1211
     31 H2          1.1388    3.1630    0.0081 H         1 <0>         0.1233
     32 H3          3.3028    2.0064   -0.0198 H         1 <0>         0.1158
     33 H4         -0.9246   -0.5587    0.0082 H         1 <0>         0.1210
     34 H5          3.5346   -3.0459   -0.0490 H         1 <0>         0.1644
     35 H6          5.4433   -1.3588   -0.4925 H         1 <0>         0.0936
     36 H7          5.0376    0.3686   -0.6341 H         1 <0>         0.0864
     37 H8          4.8311   -0.8648    2.1558 H         1 <0>         0.1099
     38 H9          5.8503    1.8503    0.9616 H         1 <0>         0.0961
     39 H10         5.6614    1.4567    2.7534 H         1 <0>         0.0970
     40 H11         7.3097   -0.4556    2.5072 H         1 <0>         0.0990
     41 H12         7.4986   -0.0620    0.7153 H         1 <0>         0.0978
     42 H13         1.1742   -4.1414    0.4036 H         1 <0>         0.0666
     43 H14        -0.2127   -3.0396    0.5787 H         1 <0>         0.0790
     44 H15        -0.2717   -2.7231   -1.8800 H         1 <0>         0.0743
     45 H16         1.1152   -3.8250   -2.0551 H         1 <0>         0.0296
     46 H17        -0.2522   -5.5376   -1.0045 H         1 <0>         0.3419
     47 H18        -1.6296   -4.2146   -3.2496 H         1 <0>         0.0829
     48 H19        -0.2427   -5.3164   -3.4248 H         1 <0>         0.0408
     49 H20        -0.4721   -7.6866   -2.9678 H         1 <0>         0.1241
     50 H21        -1.9854   -9.6235   -2.8994 H         1 <0>         0.1296
     51 H22        -5.3325   -6.9651   -2.4964 H         1 <0>         0.1282
     52 H23        -3.7978   -5.0448   -2.5577 H         1 <0>         0.1283
     53 H24        -4.2799  -10.5827   -2.7241 H         1 <0>         0.1389
     54 H25        -6.3969   -8.3831   -2.4498 H         1 <0>         0.1348
     55 H26        -8.5914   -9.4396   -2.2872 H         1 <0>         0.4097
     56 H27       -10.0468  -11.2124   -2.2185 H         1 <0>         0.3887
@<TRIPOS>BOND
     1    1    6 ar
     2    1    2 ar
     3    1   30 1
     4    2    3 ar
     5    2   31 1
     6    3    4 ar
     7    3   32 1
     8    4    9 1
     9    4    5 ar
    10    5    6 ar
    11    5    7 1
    12    6   33 1
    13    7    8 2
    14    7   14 1
    15    8    9 1
    16    8   34 1
    17    9   10 1
    18   10   11 1
    19   10   35 1
    20   10   36 1
    21   11   13 1
    22   11   12 1
    23   11   37 1
    24   12   13 1
    25   12   38 1
    26   12   39 1
    27   13   40 1
    28   13   41 1
    29   14   15 1
    30   14   42 1
    31   14   43 1
    32   15   16 1
    33   15   44 1
    34   15   45 1
    35   16   17 1
    36   16   46 1
    37   17   18 1
    38   17   47 1
    39   17   48 1
    40   18   23 ar
    41   18   19 ar
    42   19   20 ar
    43   19   49 1
    44   20   21 ar
    45   20   50 1
    46   21   22 ar
    47   21   24 1
    48   22   23 ar
    49   22   51 1
    50   23   52 1
    51   24   25 2
    52   24   53 1
    53   25   26 1
    54   25   54 1
    55   26   27 2
    56   26   28 am
    57   28   29 1
    58   28   55 1
    59   29   56 1
@<TRIPOS>MOLECULE
CHEMBL472631
   44    45     0     0     0
SMALL
USER_CHARGES

@<TRIPOS>ATOM
      1 C1         -0.0185    1.4769   -0.4185 C.ar      1 <0>        -0.0934
      2 C2          1.1627    2.1628   -0.4074 C.ar      1 <0>        -0.0879
      3 C3          2.3726    1.4704   -0.3017 C.ar      1 <0>        -0.0445
      4 C4          2.3750    0.0756   -0.2075 C.ar      1 <0>        -0.0826
      5 C5          1.1948   -0.6121   -0.2184 C.ar      1 <0>        -0.1043
      6 C6         -0.0172    0.0802   -0.3241 C.ar      1 <0>        -0.0633
      7 C7         -1.2885   -0.6593   -0.3356 C.2       1 <0>        -0.0073
      8 C8         -1.2868   -2.0051   -0.2446 C.2       1 <0>        -0.2058
      9 C9         -2.5525   -2.7414   -0.2560 C.2       1 <0>         0.5601
     10 O1         -3.6060   -2.1390   -0.3475 O.2       1 <0>        -0.5238
     11 N1         -2.5507   -4.0860   -0.1651 N.am      1 <0>        -0.5932
     12 O2         -3.7747   -4.7980   -0.1761 O.3       1 <0>        -0.3156
     13 C10         3.6478    2.2122   -0.2903 C.2       1 <0>         0.1429
     14 N2          4.7678    1.5719   -0.1925 N.2       1 <0>        -0.3364
     15 O3          5.9918    2.2838   -0.1815 O.3       1 <0>        -0.2188
     16 C11         7.1476    1.4511   -0.0690 C.3       1 <0>         0.0823
     17 C12         8.4055    2.3221   -0.0672 C.3       1 <0>         0.0556
     18 N3          8.4162    3.1641    1.1365 N.3       1 <0>        -0.5327
     19 C13         9.3203    4.3112    0.9689 C.3       1 <0>         0.0181
     20 C14         9.2557    5.1920    2.2195 C.3       1 <0>         0.0631
     21 O4          9.5856    4.4058    3.3677 O.3       1 <0>        -0.3851
     22 C15         8.7247    3.2804    3.5616 C.3       1 <0>         0.0638
     23 C16         8.7839    2.3803    2.3246 C.3       1 <0>         0.0144
     24 H1         -0.9533    2.0122   -0.4956 H         1 <0>         0.1367
     25 H2          1.1619    3.2403   -0.4805 H         1 <0>         0.1360
     26 H3          3.3102   -0.4584   -0.1263 H         1 <0>         0.1358
     27 H4          1.1969   -1.6896   -0.1459 H         1 <0>         0.1320
     28 H5         -2.2235   -0.1248   -0.4168 H         1 <0>         0.1418
     29 H6         -0.3518   -2.5396   -0.1634 H         1 <0>         0.1357
     30 H7         -1.7110   -4.5661   -0.0922 H         1 <0>         0.4098
     31 H8         -3.6725   -5.7571   -0.1065 H         1 <0>         0.3892
     32 H9          3.6464    3.2897   -0.3635 H         1 <0>         0.1263
     33 H10         7.0973    0.8834    0.8601 H         1 <0>         0.0579
     34 H11         7.1833    0.7630   -0.9137 H         1 <0>         0.0624
     35 H12         9.2892    1.6840   -0.0721 H         1 <0>         0.0626
     36 H13         8.4099    2.9558   -0.9540 H         1 <0>         0.0862
     37 H14        10.3402    3.9533    0.8281 H         1 <0>         0.0440
     38 H15         9.0142    4.8918    0.0986 H         1 <0>         0.0878
     39 H16         9.9667    6.0126    2.1238 H         1 <0>         0.0995
     40 H17         8.2484    5.5933    2.3304 H         1 <0>         0.0606
     41 H18         9.0516    2.7185    4.4366 H         1 <0>         0.0991
     42 H19         7.7019    3.6261    3.7115 H         1 <0>         0.0601
     43 H20         8.0863    1.5513    2.4440 H         1 <0>         0.0860
     44 H21         9.7952    1.9914    2.2055 H         1 <0>         0.0448
@<TRIPOS>BOND
     1    1    6 ar
     2    1    2 ar
     3    1   24 1
     4    2    3 ar
     5    2   25 1
     6    3    4 ar
     7    3   13 1
     8    4    5 ar
     9    4   26 1
    10    5    6 ar
    11    5   27 1
    12    6    7 1
    13    7    8 2
    14    7   28 1
    15    8    9 1
    16    8   29 1
    17    9   10 2
    18    9   11 am
    19   11   12 1
    20   11   30 1
    21   12   31 1
    22   13   14 2
    23   13   32 1
    24   14   15 1
    25   15   16 1
    26   16   17 1
    27   16   33 1
    28   16   34 1
    29   17   18 1
    30   17   35 1
    31   17   36 1
    32   18   23 1
    33   18   19 1
    34   19   20 1
    35   19   37 1
    36   19   38 1
    37   20   21 1
    38   20   39 1
    39   20   40 1
    40   21   22 1
    41   22   23 1
    42   22   41 1
    43   22   42 1
    44   23   43 1
    45   23   44 1
@<TRIPOS>MOLECULE
CHEMBL472631__1
   45    46     0     0     0
SMALL
USER_CHARGES

@<TRIPOS>ATOM
      1 C1          0.0504    0.9161    0.0650 C.ar      1 <0>        -0.0970
      2 C2          1.1819    1.6799    0.0196 C.ar      1 <0>        -0.0761
      3 C3          2.4393    1.0692    0.0396 C.ar      1 <0>        -0.0729
      4 C4          2.5400   -0.3236    0.1059 C.ar      1 <0>        -0.0730
      5 C5          1.4096   -1.0891    0.1513 C.ar      1 <0>        -0.1102
      6 C6          0.1502   -0.4785    0.1314 C.ar      1 <0>        -0.0403
      7 C7         -1.0676   -1.3019    0.1807 C.2       1 <0>        -0.0228
      8 C8         -0.9710   -2.6458    0.2447 C.2       1 <0>        -0.1886
      9 C9         -2.1834   -3.4655    0.2938 C.2       1 <0>         0.5565
     10 O1         -3.2782   -2.9343    0.2768 O.2       1 <0>        -0.5188
     11 N1         -2.0869   -4.8083    0.3577 N.am      1 <0>        -0.5918
     12 O2         -3.2593   -5.6009    0.4052 O.3       1 <0>        -0.3128
     13 C10         3.6608    1.8950   -0.0099 C.2       1 <0>         0.1789
     14 N2          4.8247    1.3302    0.0085 N.2       1 <0>        -0.3330
     15 O3          5.9971    2.1229   -0.0389 O.3       1 <0>        -0.2697
     16 C11         7.2104    1.3683   -0.0117 C.3       1 <0>         0.0468
     17 C12         8.4055    2.3221   -0.0672 C.3       1 <0>         0.0000
     18 N3          8.4162    3.1641    1.1365 N.4       1 <0>        -0.3870
     19 C13         9.4758    4.1752    1.0177 C.3       1 <0>        -0.0439
     20 C14         9.4848    5.0513    2.2728 C.3       1 <0>         0.0356
     21 O4          9.6747    4.2240    3.4240 O.3       1 <0>        -0.3559
     22 C15         8.6797    3.2070    3.5703 C.3       1 <0>         0.0373
     23 C16         8.6692    2.3274    2.3176 C.3       1 <0>        -0.0494
     24 H1         -0.9208    1.3883    0.0541 H         1 <0>         0.1415
     25 H2          1.1052    2.7559   -0.0320 H         1 <0>         0.1375
     26 H3          3.5118   -0.7945    0.1209 H         1 <0>         0.1351
     27 H4          1.4876   -2.1651    0.2021 H         1 <0>         0.1358
     28 H5         -2.0392   -0.8304    0.1657 H         1 <0>         0.1454
     29 H6          0.0005   -3.1172    0.2597 H         1 <0>         0.1361
     30 H7         -1.2143   -5.2317    0.3712 H         1 <0>         0.4096
     31 H8         -3.0896   -6.5519    0.4496 H         1 <0>         0.3913
     32 H9          3.5834    2.9710   -0.0615 H         1 <0>         0.1320
     33 H10         7.2542    0.7839    0.9074 H         1 <0>         0.0819
     34 H11         7.2405    0.6977   -0.8705 H         1 <0>         0.1067
     35 H12         9.3289    1.7450   -0.1151 H         1 <0>         0.1508
     36 H13         8.3254    2.9538   -0.9518 H         1 <0>         0.1420
     37 H14        10.4411    3.6797    0.9132 H         1 <0>         0.1406
     38 H15         9.2890    4.7965    0.1418 H         1 <0>         0.1434
     39 H16        10.2977    5.7745    2.2061 H         1 <0>         0.1434
     40 H17         8.5341    5.5780    2.3559 H         1 <0>         0.0810
     41 H18         8.9099    2.5953    4.4426 H         1 <0>         0.1428
     42 H19         7.7014    3.6706    3.6978 H         1 <0>         0.0805
     43 H20         7.8836    1.5771    2.4067 H         1 <0>         0.1412
     44 H21         9.6348    1.8326    2.2126 H         1 <0>         0.1415
     45 H22         7.5228    3.6228    1.2342 H         1 <0>         0.4279
@<TRIPOS>BOND
     1    1    6 ar
     2    1    2 ar
     3    1   24 1
     4    2    3 ar
     5    2   25 1
     6    3    4 ar
     7    3   13 1
     8    4    5 ar
     9    4   26 1
    10    5    6 ar
    11    5   27 1
    12    6    7 1
    13    7    8 2
    14    7   28 1
    15    8    9 1
    16    8   29 1
    17    9   10 2
    18    9   11 am
    19   11   12 1
    20   11   30 1
    21   12   31 1
    22   13   14 2
    23   13   32 1
    24   14   15 1
    25   15   16 1
    26   16   17 1
    27   16   33 1
    28   16   34 1
    29   17   18 1
    30   17   35 1
    31   17   36 1
    32   18   23 1
    33   18   19 1
    34   18   45 1
    35   19   20 1
    36   19   37 1
    37   19   38 1
    38   20   21 1
    39   20   39 1
    40   20   40 1
    41   21   22 1
    42   22   23 1
    43   22   41 1
    44   22   42 1
    45   23   43 1
    46   23   44 1
@<TRIPOS>MOLECULE
CHEMBL471042
   40    41     0     0     0
SMALL
USER_CHARGES

@<TRIPOS>ATOM
      1 C1         -0.0167    1.3781    0.0096 C.ar      1 <0>        -0.0940
      2 C2          1.1709    2.0855    0.0021 C.ar      1 <0>        -0.0566
      3 C3          2.3773    1.4107   -0.0130 C.ar      1 <0>        -0.0410
      4 C4          2.3961    0.0285   -0.0201 C.ar      1 <0>        -0.0565
      5 C5          1.2084   -0.6789   -0.0117 C.ar      1 <0>        -0.0940
      6 C6          0.0021   -0.0041    0.0020 C.ar      1 <0>        -0.0433
      7 C7         -1.2926   -0.7753    0.0102 C.3       1 <0>         0.1110
      8 O1         -1.7147   -1.0118   -1.3344 O.3       1 <0>        -0.2339
      9 N1         -2.9285   -1.7335   -1.4386 N.2       1 <0>        -0.3317
     10 C8         -3.4176   -2.0120   -2.6036 C.2       1 <0>         0.1524
     11 C9         -4.6822   -2.7639   -2.7121 C.ar      1 <0>        -0.0507
     12 C10        -5.3546   -3.1705   -1.5558 C.ar      1 <0>        -0.0797
     13 C11        -6.5255   -3.8667   -1.6552 C.ar      1 <0>        -0.0959
     14 C12        -7.0522   -4.1732   -2.9154 C.ar      1 <0>        -0.0583
     15 C13        -6.3781   -3.7657   -4.0726 C.ar      1 <0>        -0.1039
     16 C14        -5.2103   -3.0646   -3.9711 C.ar      1 <0>        -0.0849
     17 C15        -8.3127   -4.9233   -3.0236 C.2       1 <0>        -0.0101
     18 C16        -8.8198   -5.2184   -4.2382 C.2       1 <0>        -0.2023
     19 C17       -10.0748   -5.9652   -4.3459 C.2       1 <0>         0.5593
     20 O2        -10.6602   -6.3197   -3.3396 O.2       1 <0>        -0.5230
     21 N2        -10.5815   -6.2601   -5.5595 N.am      1 <0>        -0.5929
     22 O3        -11.7950   -6.9823   -5.6636 O.3       1 <0>        -0.3153
     23 N3          3.6490    2.1682   -0.0221 N.pl3     1 <0>         0.0305
     24 O4          3.6326    3.3771   -0.0163 O.2       1 <0>        -0.1539
     25 O5          4.7040    1.5780   -0.0353 O.3       1 <0>        -0.1537
     26 H1         -0.9591    1.9053    0.0259 H         1 <0>         0.1504
     27 H2          1.1563    3.1654    0.0076 H         1 <0>         0.1577
     28 H3          3.3385   -0.4987   -0.0326 H         1 <0>         0.1577
     29 H4          1.2231   -1.7588   -0.0179 H         1 <0>         0.1504
     30 H5         -1.1445   -1.7285    0.5175 H         1 <0>         0.0776
     31 H6         -2.0553   -0.1993    0.5344 H         1 <0>         0.0776
     32 H7         -2.9001   -1.6940   -3.4966 H         1 <0>         0.1289
     33 H8         -4.9479   -2.9342   -0.5836 H         1 <0>         0.1375
     34 H9         -7.0446   -4.1810   -0.7618 H         1 <0>         0.1359
     35 H10        -6.7837   -4.0018   -5.0454 H         1 <0>         0.1351
     36 H11        -4.6926   -2.7460   -4.8638 H         1 <0>         0.1358
     37 H12        -8.8323   -5.2379   -2.1306 H         1 <0>         0.1420
     38 H13        -8.3003   -4.9039   -5.1312 H         1 <0>         0.1364
     39 H14       -10.1148   -5.9776   -6.3616 H         1 <0>         0.4099
     40 H15       -12.0785   -7.1459   -6.5735 H         1 <0>         0.3895
@<TRIPOS>BOND
     1    1    6 ar
     2    1    2 ar
     3    1   26 1
     4    2    3 ar
     5    2   27 1
     6    3    4 ar
     7    3   23 1
     8    4    5 ar
     9    4   28 1
    10    5    6 ar
    11    5   29 1
    12    6    7 1
    13    7    8 1
    14    7   30 1
    15    7   31 1
    16    8    9 1
    17    9   10 2
    18   10   11 1
    19   10   32 1
    20   11   16 ar
    21   11   12 ar
    22   12   13 ar
    23   12   33 1
    24   13   14 ar
    25   13   34 1
    26   14   15 ar
    27   14   17 1
    28   15   16 ar
    29   15   35 1
    30   16   36 1
    31   17   18 2
    32   17   37 1
    33   18   19 1
    34   18   38 1
    35   19   20 2
    36   19   21 am
    37   21   22 1
    38   21   39 1
    39   22   40 1
    40   23   24 2
    41   23   25 1
@<TRIPOS>MOLECULE
CHEMBL341601
   53    56     0     0     0
SMALL
USER_CHARGES

@<TRIPOS>ATOM
      1 C1         -0.0166    1.3739    0.0096 C.ar      1 <0>        -0.1387
      2 C2          1.1715    2.0887    0.0021 C.ar      1 <0>        -0.0776
      3 C3          2.3835    1.4330   -0.0135 C.ar      1 <0>        -0.1477
      4 C4          2.4230    0.0419   -0.0218 C.ar      1 <0>         0.1296
      5 C5          1.2201   -0.6797   -0.0137 C.ar      1 <0>        -0.0947
      6 C6          0.0021   -0.0041    0.0020 C.ar      1 <0>        -0.0569
      7 C7          1.5887   -2.1073   -0.0265 C.ar      1 <0>        -0.0950
      8 C8          0.8500   -3.2882   -0.0266 C.ar      1 <0>        -0.0569
      9 C9          1.5007   -4.5029   -0.0413 C.ar      1 <0>        -0.1385
     10 C10         2.8862   -4.5530   -0.0561 C.ar      1 <0>        -0.0773
     11 C11         3.6293   -3.3925   -0.0558 C.ar      1 <0>        -0.1476
     12 C12         2.9905   -2.1561   -0.0414 C.ar      1 <0>         0.1295
     13 N1          3.4724   -0.8594   -0.0383 N.pl3     1 <0>        -0.5088
     14 C13         4.8908   -0.4931   -0.0508 C.3       1 <0>         0.0982
     15 C14         5.3995   -0.3745    1.3873 C.3       1 <0>        -0.0348
     16 N2          6.8218   -0.0072    1.3748 N.4       1 <0>        -0.5048
     17 C15         7.3103    0.1066    2.7555 C.3       1 <0>         0.0470
     18 C16         8.7694    0.4835    2.7427 C.ar      1 <0>        -0.1639
     19 C17         9.7359   -0.5069    2.7208 C.ar      1 <0>        -0.0889
     20 C18        11.0730   -0.1701    2.7094 C.ar      1 <0>        -0.0929
     21 C19        11.4513    1.1761    2.7196 C.ar      1 <0>        -0.0268
     22 C20        10.4687    2.1709    2.7413 C.ar      1 <0>        -0.1042
     23 C21         9.1357    1.8181    2.7472 C.ar      1 <0>        -0.0890
     24 C22        12.8765    1.5442    2.7081 C.2       1 <0>        -0.0382
     25 C23        13.2374    2.8431    2.7180 C.2       1 <0>        -0.1721
     26 C24        14.6551    3.2092    2.7065 C.2       1 <0>         0.5536
     27 O1         15.5076    2.3410    2.6880 O.2       1 <0>        -0.5151
     28 N3         15.0158    4.5078    2.7164 N.am      1 <0>        -0.5899
     29 O2         16.3868    4.8619    2.7053 O.3       1 <0>        -0.3106
     30 H1         -0.9602    1.8990    0.0259 H         1 <0>         0.1336
     31 H2          1.1469    3.1684    0.0081 H         1 <0>         0.1335
     32 H3          3.3032    1.9991   -0.0196 H         1 <0>         0.1189
     33 H4         -0.9248   -0.5584    0.0083 H         1 <0>         0.1314
     34 H5         -0.2293   -3.2520   -0.0147 H         1 <0>         0.1313
     35 H6          0.9292   -5.4194   -0.0411 H         1 <0>         0.1336
     36 H7          3.3873   -5.5097   -0.0676 H         1 <0>         0.1337
     37 H8          4.7081   -3.4425   -0.0666 H         1 <0>         0.1191
     38 H9          5.4597   -1.2607   -0.5753 H         1 <0>         0.1081
     39 H10         5.0147    0.4627   -0.5600 H         1 <0>         0.1079
     40 H11         4.8306    0.3931    1.9118 H         1 <0>         0.1387
     41 H12         5.2756   -1.3303    1.8965 H         1 <0>         0.1388
     42 H13         7.3485   -0.7178    0.8892 H         1 <0>         0.4294
     43 H14         6.7414    0.8743    3.2801 H         1 <0>         0.1401
     44 H15         7.1863   -0.8491    3.2647 H         1 <0>         0.1404
     45 H16         9.4422   -1.5461    2.7129 H         1 <0>         0.1368
     46 H17        11.8262   -0.9440    2.6930 H         1 <0>         0.1439
     47 H18        10.7531    3.2127    2.7497 H         1 <0>         0.1406
     48 H19         8.3756    2.5852    2.7596 H         1 <0>         0.1358
     49 H20        13.6331    0.7737    2.6917 H         1 <0>         0.1480
     50 H21        12.4808    3.6136    2.7344 H         1 <0>         0.1370
     51 H22        14.3363    5.1998    2.7311 H         1 <0>         0.4101
     52 H23        16.5468    5.8155    2.7137 H         1 <0>         0.3934
     53 H24         6.9365    0.8775    0.9034 H         1 <0>         0.4289
@<TRIPOS>BOND
     1    1    6 ar
     2    1    2 ar
     3    1   30 1
     4    2    3 ar
     5    2   31 1
     6    3    4 ar
     7    3   32 1
     8    4   13 1
     9    4    5 ar
    10    5    6 ar
    11    5    7 1
    12    6   33 1
    13    7   12 ar
    14    7    8 ar
    15    8    9 ar
    16    8   34 1
    17    9   10 ar
    18    9   35 1
    19   10   11 ar
    20   10   36 1
    21   11   12 ar
    22   11   37 1
    23   12   13 1
    24   13   14 1
    25   14   15 1
    26   14   38 1
    27   14   39 1
    28   15   16 1
    29   15   40 1
    30   15   41 1
    31   16   17 1
    32   16   42 1
    33   16   53 1
    34   17   18 1
    35   17   43 1
    36   17   44 1
    37   18   23 ar
    38   18   19 ar
    39   19   20 ar
    40   19   45 1
    41   20   21 ar
    42   20   46 1
    43   21   22 ar
    44   21   24 1
    45   22   23 ar
    46   22   47 1
    47   23   48 1
    48   24   25 2
    49   24   49 1
    50   25   26 1
    51   25   50 1
    52   26   27 2
    53   26   28 am
    54   28   29 1
    55   28   51 1
    56   29   52 1
@<TRIPOS>MOLECULE
CHEMBL141087
   61    64     0     0     0
SMALL
USER_CHARGES

@<TRIPOS>ATOM
      1 C1         -0.0167    1.3781    0.0096 C.ar      1 <0>        -0.1061
      2 C2          1.1709    2.0855    0.0021 C.ar      1 <0>        -0.1217
      3 C3          2.3773    1.4107   -0.0130 C.ar      1 <0>        -0.0952
      4 C4          2.3960    0.0285   -0.0201 C.ar      1 <0>        -0.1022
      5 C5          1.2084   -0.6789   -0.0117 C.ar      1 <0>        -0.0961
      6 C6          0.0021   -0.0041    0.0020 C.ar      1 <0>        -0.1226
      7 C7          3.7112   -0.7071   -0.0376 C.3       1 <0>         0.1033
      8 O1          4.1410   -0.9464    1.3041 O.3       1 <0>        -0.3092
      9 C8          5.3194   -1.6054    1.4666 C.ar      1 <0>         0.1202
     10 C9          6.0487   -2.0076    0.3505 C.ar      1 <0>        -0.1766
     11 C10         7.2438   -2.6754    0.4970 C.ar      1 <0>        -0.0780
     12 C11         7.7332   -2.9541    1.7689 C.ar      1 <0>         0.0608
     13 C12         6.9992   -2.5493    2.8979 C.ar      1 <0>        -0.0582
     14 C13         5.7906   -1.8678    2.7373 C.ar      1 <0>        -0.1282
     15 C14         7.7729   -2.9862    4.0626 C.2       1 <0>        -0.2115
     16 C15         8.8730   -3.5983    3.5965 C.2       1 <0>         0.0948
     17 N1          8.8676   -3.5893    2.2286 N.pl3     1 <0>        -0.5864
     18 H1          9.5584   -3.9730    1.6659 H         1 <0>         0.4231
     19 C16         7.4040   -2.7857    5.5100 C.3       1 <0>        -0.0587
     20 C17         6.4728   -3.9133    5.9598 C.3       1 <0>        -0.0091
     21 N2          6.1133   -3.7179    7.3707 N.4       1 <0>        -0.5096
     22 C18         5.2192   -4.8005    7.8026 C.3       1 <0>         0.0458
     23 C19         4.8504   -4.6001    9.2500 C.ar      1 <0>        -0.1610
     24 C20         5.6363   -5.1565   10.2441 C.ar      1 <0>        -0.0903
     25 C21         5.3051   -4.9779   11.5707 C.ar      1 <0>        -0.0931
     26 C22         4.1721   -4.2320   11.9104 C.ar      1 <0>        -0.0299
     27 C23         3.3835   -3.6726   10.9002 C.ar      1 <0>        -0.1039
     28 C24         3.7307   -3.8557    9.5783 C.ar      1 <0>        -0.0899
     29 C25         3.8113   -4.0370   13.3241 C.2       1 <0>        -0.0362
     30 C26         2.7184   -3.3172   13.6477 C.2       1 <0>        -0.1744
     31 C27         2.3594   -3.1233   15.0540 C.2       1 <0>         0.5540
     32 O2          3.0478   -3.6118   15.9307 O.2       1 <0>        -0.5159
     33 N3          1.2667   -2.4037   15.3776 N.am      1 <0>        -0.5901
     34 O3          0.9196   -2.2161   16.7375 O.3       1 <0>        -0.3110
     35 H2         -0.9591    1.9053    0.0259 H         1 <0>         0.1267
     36 H3          1.1563    3.1654    0.0076 H         1 <0>         0.1274
     37 H4          3.3051    1.9634   -0.0196 H         1 <0>         0.1243
     38 H5          1.2231   -1.7588   -0.0176 H         1 <0>         0.1234
     39 H6         -0.9258   -0.5567    0.0082 H         1 <0>         0.1268
     40 H7          3.5884   -1.6586   -0.5549 H         1 <0>         0.0726
     41 H8          4.4573   -0.1052   -0.5563 H         1 <0>         0.0731
     42 H9          5.6731   -1.7941   -0.6393 H         1 <0>         0.1366
     43 H10         7.8010   -2.9831   -0.3754 H         1 <0>         0.1294
     44 H11         5.2261   -1.5518    3.6021 H         1 <0>         0.1266
     45 H12         9.6476   -4.0333    4.2106 H         1 <0>         0.1740
     46 H13         8.3074   -2.7954    6.1198 H         1 <0>         0.0916
     47 H14         6.8973   -1.8277    5.6264 H         1 <0>         0.0922
     48 H15         5.5695   -3.9036    5.3500 H         1 <0>         0.1328
     49 H16         6.9796   -4.8713    5.8433 H         1 <0>         0.1318
     50 H17         6.9495   -3.7269    7.9352 H         1 <0>         0.4268
     51 H18         4.3159   -4.7908    7.1928 H         1 <0>         0.1385
     52 H19         5.7260   -5.7585    7.6861 H         1 <0>         0.1385
     53 H20         6.5110   -5.7324    9.9801 H         1 <0>         0.1364
     54 H21         5.9189   -5.4134   12.3453 H         1 <0>         0.1428
     55 H22         2.5068   -3.0955   11.1547 H         1 <0>         0.1398
     56 H23         3.1251   -3.4207    8.7971 H         1 <0>         0.1360
     57 H24         4.4222   -4.4706   14.1021 H         1 <0>         0.1473
     58 H25         2.1075   -2.8837   12.8698 H         1 <0>         0.1369
     59 H26         0.7181   -2.0143   14.6788 H         1 <0>         0.4101
     60 H27         0.1212   -1.6870   16.8703 H         1 <0>         0.3931
     61 H28         5.6442   -2.8311    7.4785 H         1 <0>         0.4275
@<TRIPOS>BOND
     1    1    6 ar
     2    1    2 ar
     3    1   35 1
     4    2    3 ar
     5    2   36 1
     6    3    4 ar
     7    3   37 1
     8    4    5 ar
     9    4    7 1
    10    5    6 ar
    11    5   38 1
    12    6   39 1
    13    7    8 1
    14    7   40 1
    15    7   41 1
    16    8    9 1
    17    9   14 ar
    18    9   10 ar
    19   10   11 ar
    20   10   42 1
    21   11   12 ar
    22   11   43 1
    23   12   17 1
    24   12   13 ar
    25   13   14 ar
    26   13   15 1
    27   14   44 1
    28   15   16 2
    29   15   19 1
    30   16   17 1
    31   16   45 1
    32   17   18 1
    33   19   20 1
    34   19   46 1
    35   19   47 1
    36   20   21 1
    37   20   48 1
    38   20   49 1
    39   21   22 1
    40   21   50 1
    41   21   61 1
    42   22   23 1
    43   22   51 1
    44   22   52 1
    45   23   28 ar
    46   23   24 ar
    47   24   25 ar
    48   24   53 1
    49   25   26 ar
    50   25   54 1
    51   26   27 ar
    52   26   29 1
    53   27   28 ar
    54   27   55 1
    55   28   56 1
    56   29   30 2
    57   29   57 1
    58   30   31 1
    59   30   58 1
    60   31   32 2
    61   31   33 am
    62   33   34 1
    63   33   59 1
    64   34   60 1
@<TRIPOS>MOLECULE
CHEMBL1083742
   59    60     0     0     0
SMALL
USER_CHARGES

@<TRIPOS>ATOM
      1 C1         -0.0167    1.3781    0.0096 C.ar      1 <0>        -0.1234
      2 C2          1.1709    2.0855    0.0021 C.ar      1 <0>        -0.1176
      3 C3          2.3773    1.4107   -0.0130 C.ar      1 <0>        -0.1176
      4 C4          2.3960    0.0285   -0.0201 C.ar      1 <0>        -0.0844
      5 C5          1.2084   -0.6789   -0.0117 C.ar      1 <0>        -0.1169
      6 C6          0.0021   -0.0041    0.0020 C.ar      1 <0>        -0.1177
      7 C7          3.7112   -0.7071   -0.0376 C.3       1 <0>        -0.0789
      8 C8          4.1714   -0.9633    1.3989 C.3       1 <0>        -0.1368
      9 C9          5.5066   -1.7102    1.3812 C.3       1 <0>         0.1031
     10 N1          5.9472   -1.9554    2.7567 N.am      1 <0>        -0.6202
     11 C10         5.5482   -3.1853    3.4454 C.3       1 <0>         0.1302
     12 C11         6.5910   -4.2750    3.1886 C.3       1 <0>        -0.1366
     13 C12         6.1743   -5.5595    3.9078 C.3       1 <0>        -0.1158
     14 C13         7.2172   -6.6491    3.6510 C.3       1 <0>        -0.1050
     15 C14         6.8004   -7.9336    4.3703 C.3       1 <0>        -0.1264
     16 C15         7.8276   -9.0069    4.1173 C.2       1 <0>         0.5210
     17 O1          8.7975   -8.7680    3.4295 O.2       1 <0>        -0.5188
     18 N2          7.6685  -10.2322    4.6555 N.am      1 <0>        -0.6002
     19 O2          8.6336  -11.2407    4.4178 O.3       1 <0>        -0.3207
     20 C16         6.7197   -1.0496    3.3885 C.2       1 <0>         0.6975
     21 O3          7.0853   -1.2531    4.5296 O.2       1 <0>        -0.5229
     22 N3          7.0868    0.0819    2.7549 N.am      1 <0>        -0.6888
     23 C17         7.8593    0.9877    3.3867 C.2       1 <0>         0.5634
     24 O4          8.2248    0.7843    4.5276 O.2       1 <0>        -0.4604
     25 C18         8.2618    2.2283    2.6920 C.ar      1 <0>        -0.1398
     26 C19         7.8389    2.4678    1.3832 C.ar      1 <0>        -0.0862
     27 C20         8.2183    3.6280    0.7406 C.ar      1 <0>        -0.1250
     28 C21         9.0162    4.5532    1.3901 C.ar      1 <0>        -0.0880
     29 C22         9.4388    4.3221    2.6872 C.ar      1 <0>        -0.1243
     30 C23         9.0620    3.1687    3.3436 C.ar      1 <0>        -0.0545
     31 H1         -0.9591    1.9053    0.0259 H         1 <0>         0.1213
     32 H2          1.1563    3.1654    0.0076 H         1 <0>         0.1217
     33 H3          3.3051    1.9634   -0.0196 H         1 <0>         0.1204
     34 H4          1.2231   -1.7588   -0.0176 H         1 <0>         0.1211
     35 H5         -0.9258   -0.5567    0.0082 H         1 <0>         0.1218
     36 H6          3.5884   -1.6586   -0.5549 H         1 <0>         0.0775
     37 H7          4.4573   -0.1052   -0.5563 H         1 <0>         0.0748
     38 H8          4.2941   -0.0118    1.9163 H         1 <0>         0.0670
     39 H9          3.4252   -1.5652    1.9176 H         1 <0>         0.0750
     40 H10         5.3838   -2.6617    0.8639 H         1 <0>         0.0924
     41 H11         6.2527   -1.1082    0.8625 H         1 <0>         0.0726
     42 H12         5.4773   -2.9954    4.5163 H         1 <0>         0.0877
     43 H13         4.5792   -3.5141    3.0697 H         1 <0>         0.0814
     44 H14         6.6619   -4.4649    2.1176 H         1 <0>         0.0652
     45 H15         7.5600   -3.9463    3.5642 H         1 <0>         0.0701
     46 H16         6.1034   -5.3696    4.9788 H         1 <0>         0.0683
     47 H17         5.2053   -5.8882    3.5322 H         1 <0>         0.0660
     48 H18         7.2881   -6.8390    2.5800 H         1 <0>         0.0726
     49 H19         8.1862   -6.3204    4.0266 H         1 <0>         0.0736
     50 H20         6.7295   -7.7437    5.4412 H         1 <0>         0.1001
     51 H21         5.8314   -8.2623    3.9946 H         1 <0>         0.0994
     52 H22         6.8927  -10.4233    5.2056 H         1 <0>         0.4081
     53 H23         8.4336  -12.0850    4.8447 H         1 <0>         0.3876
     54 H24         6.7951    0.2443    1.8442 H         1 <0>         0.4067
     55 H25         7.2164    1.7463    0.8750 H         1 <0>         0.1232
     56 H26         7.8922    3.8144   -0.2720 H         1 <0>         0.1323
     57 H27         9.3107    5.4597    0.8823 H         1 <0>         0.1307
     58 H28        10.0617    5.0482    3.1884 H         1 <0>         0.1339
     59 H29         9.3885    2.9918    4.3577 H         1 <0>         0.1391
@<TRIPOS>BOND
     1    1    6 ar
     2    1    2 ar
     3    1   31 1
     4    2    3 ar
     5    2   32 1
     6    3    4 ar
     7    3   33 1
     8    4    5 ar
     9    4    7 1
    10    5    6 ar
    11    5   34 1
    12    6   35 1
    13    7    8 1
    14    7   36 1
    15    7   37 1
    16    8    9 1
    17    8   38 1
    18    8   39 1
    19    9   10 1
    20    9   40 1
    21    9   41 1
    22   10   11 1
    23   10   20 am
    24   11   12 1
    25   11   42 1
    26   11   43 1
    27   12   13 1
    28   12   44 1
    29   12   45 1
    30   13   14 1
    31   13   46 1
    32   13   47 1
    33   14   15 1
    34   14   48 1
    35   14   49 1
    36   15   16 1
    37   15   50 1
    38   15   51 1
    39   16   17 2
    40   16   18 am
    41   18   19 1
    42   18   52 1
    43   19   53 1
    44   20   21 2
    45   20   22 am
    46   22   23 am
    47   22   54 1
    48   23   24 2
    49   23   25 1
    50   25   30 ar
    51   25   26 ar
    52   26   27 ar
    53   26   55 1
    54   27   28 ar
    55   27   56 1
    56   28   29 ar
    57   28   57 1
    58   29   30 ar
    59   29   58 1
    60   30   59 1
@<TRIPOS>MOLECULE
CHEMBL152543
   50    52     0     0     0
SMALL
USER_CHARGES

@<TRIPOS>ATOM
      1 C1         -0.0167    1.3798    0.0096 C.ar      1 <0>        -0.1016
      2 C2          1.1659    2.0890    0.0021 C.ar      1 <0>        -0.0913
      3 C3          2.3861    1.4063   -0.0132 C.ar      1 <0>        -0.0718
      4 C4          2.3968    0.0080   -0.0208 C.ar      1 <0>        -0.1003
      5 C5          1.2058   -0.6869   -0.0132 C.ar      1 <0>        -0.1020
      6 C6          0.0021   -0.0041    0.0020 C.ar      1 <0>        -0.0951
      7 C7         -1.2949   -0.7714    0.0108 C.3       1 <0>         0.1594
      8 N1         -1.7290   -1.0126   -1.3675 N.am      1 <0>        -0.7278
      9 C8         -2.8719   -1.6859   -1.6060 C.2       1 <0>         0.5666
     10 O1         -3.5427   -2.0932   -0.6772 O.2       1 <0>        -0.5432
     11 C9         -3.3089   -1.9288   -2.9939 C.ar      1 <0>        -0.2048
     12 C10        -2.5358   -1.4663   -4.0628 C.ar      1 <0>        -0.0317
     13 C11        -2.9459   -1.6948   -5.3563 C.ar      1 <0>        -0.2067
     14 C12        -4.1297   -2.3855   -5.6010 C.ar      1 <0>         0.2655
     15 C13        -4.9020   -2.8471   -4.5387 C.ar      1 <0>        -0.2078
     16 C14        -4.4941   -2.6271   -3.2430 C.ar      1 <0>        -0.0043
     17 N2         -4.5416   -2.6145   -6.9092 N.pl3     1 <0>        -0.6280
     18 C15        -3.8238   -2.1905   -8.1202 C.3       1 <0>         0.1087
     19 C16        -4.6664   -2.6389   -9.3328 C.3       1 <0>        -0.1331
     20 C17        -6.0883   -2.7908   -8.7309 C.3       1 <0>        -0.1344
     21 C18        -5.7672   -3.3282   -7.3116 C.3       1 <0>         0.1065
     22 C19         3.6531    2.1558   -0.0218 C.2       1 <0>        -0.0056
     23 C20         4.8276    1.4942   -0.0365 C.2       1 <0>        -0.2078
     24 C21         6.0878    2.2397   -0.0451 C.2       1 <0>         0.5602
     25 O2          6.0750    3.4566   -0.0388 O.2       1 <0>        -0.5241
     26 N3          7.2620    1.5783   -0.0598 N.am      1 <0>        -0.5932
     27 O3          8.4807    2.2992   -0.0681 O.3       1 <0>        -0.3156
     28 H1         -0.9599    1.9056    0.0260 H         1 <0>         0.1306
     29 H2          1.1496    3.1688    0.0078 H         1 <0>         0.1330
     30 H3          3.3353   -0.5263   -0.0330 H         1 <0>         0.1305
     31 H4          1.2123   -1.7669   -0.0194 H         1 <0>         0.1297
     32 H5         -1.1495   -1.7251    0.5181 H         1 <0>         0.0793
     33 H6         -2.0556   -0.1931    0.5353 H         1 <0>         0.0795
     34 H7         -1.1938   -0.6877   -2.1084 H         1 <0>         0.4001
     35 H8         -1.6177   -0.9298   -3.8736 H         1 <0>         0.1230
     36 H9         -2.3490   -1.3378   -6.1825 H         1 <0>         0.1250
     37 H10        -5.8200   -3.3822   -4.7317 H         1 <0>         0.1267
     38 H11        -5.0913   -2.9895   -2.4193 H         1 <0>         0.1356
     39 H12        -3.7142   -1.1060   -8.1256 H         1 <0>         0.0649
     40 H13        -2.8428   -2.6644   -8.1547 H         1 <0>         0.0647
     41 H14        -4.6568   -1.8768  -10.1121 H         1 <0>         0.0839
     42 H15        -4.3077   -3.5925   -9.7202 H         1 <0>         0.0776
     43 H16        -6.5967   -1.8279   -8.6819 H         1 <0>         0.0775
     44 H17        -6.6768   -3.5133   -9.2964 H         1 <0>         0.0858
     45 H18        -5.5877   -4.4029   -7.3420 H         1 <0>         0.0665
     46 H19        -6.5826   -3.0982   -6.6258 H         1 <0>         0.0750
     47 H20         3.6417    3.2357   -0.0162 H         1 <0>         0.1405
     48 H21         4.8390    0.4142   -0.0421 H         1 <0>         0.1351
     49 H22         7.2722    0.6083   -0.0648 H         1 <0>         0.4097
     50 H23         9.2689    1.7391   -0.0786 H         1 <0>         0.3892
@<TRIPOS>BOND
     1    1    6 ar
     2    1    2 ar
     3    1   28 1
     4    2    3 ar
     5    2   29 1
     6    3    4 ar
     7    3   22 1
     8    4    5 ar
     9    4   30 1
    10    5    6 ar
    11    5   31 1
    12    6    7 1
    13    7    8 1
    14    7   32 1
    15    7   33 1
    16    8    9 am
    17    8   34 1
    18    9   10 2
    19    9   11 1
    20   11   16 ar
    21   11   12 ar
    22   12   13 ar
    23   12   35 1
    24   13   14 ar
    25   13   36 1
    26   14   15 ar
    27   14   17 1
    28   15   16 ar
    29   15   37 1
    30   16   38 1
    31   17   21 1
    32   17   18 1
    33   18   19 1
    34   18   39 1
    35   18   40 1
    36   19   20 1
    37   19   41 1
    38   19   42 1
    39   20   21 1
    40   20   43 1
    41   20   44 1
    42   21   45 1
    43   21   46 1
    44   22   23 2
    45   22   47 1
    46   23   24 1
    47   23   48 1
    48   24   25 2
    49   24   26 am
    50   26   27 1
    51   26   49 1
    52   27   50 1
@<TRIPOS>MOLECULE
CHEMBL270249
   41    43     0     0     0
SMALL
USER_CHARGES

@<TRIPOS>ATOM
      1 C1         -0.0167    1.3784    0.0096 C.ar      1 <0>        -0.1538
      2 C2          1.1698    2.0883    0.0021 C.ar      1 <0>        -0.0786
      3 C3          2.3773    1.4175   -0.0134 C.ar      1 <0>        -0.1443
      4 C4          2.3989    0.0304   -0.0210 C.ar      1 <0>         0.1244
      5 C5          1.2070   -0.6796   -0.0130 C.ar      1 <0>        -0.2104
      6 C6          0.0021   -0.0041    0.0020 C.ar      1 <0>        -0.0796
      7 O1          3.5855   -0.6319   -0.0368 O.3       1 <0>        -0.2897
      8 C7          3.5315   -2.0598   -0.0438 C.3       1 <0>         0.0523
      9 C8          4.9322   -2.6155   -0.0612 C.2       1 <0>         0.5178
     10 O2          5.8831   -1.8627   -0.0670 O.2       1 <0>        -0.4688
     11 N1          5.1282   -3.9489   -0.0703 N.am      1 <0>        -0.6056
     12 C9          6.4196   -4.4611   -0.0864 C.2       1 <0>         0.3169
     13 N2          6.8178   -5.7192   -0.1025 N.2       1 <0>        -0.5224
     14 C10         8.1111   -6.0324   -0.1165 C.2       1 <0>         0.1581
     15 C11         9.0417   -5.0288   -0.1140 C.2       1 <0>        -0.2326
     16 S1          7.9802   -3.5902   -0.0984 S.3       1 <0>         0.1391
     17 C12         8.5378   -7.4482   -0.1341 C.2       1 <0>        -0.0897
     18 C13         7.7689   -8.5808   -0.1448 C.2       1 <0>        -0.1232
     19 C14         8.3976   -9.8080   -0.1613 C.2       1 <0>        -0.1337
     20 C15         9.7534   -9.8562   -0.1663 C.2       1 <0>        -0.1394
     21 S2         10.1897   -8.1252   -0.1547 S.3       1 <0>         0.0937
     22 C16        10.6585  -11.0610   -0.1826 C.3       1 <0>        -0.0400
     23 C17        10.9555  -11.4469   -1.6088 C.2       1 <0>         0.5213
     24 O3         10.4791  -10.8065   -2.5220 O.2       1 <0>        -0.5031
     25 N3         11.7504  -12.5036   -1.8694 N.am      1 <0>        -0.5984
     26 O4         12.0295  -12.8661   -3.2095 O.3       1 <0>        -0.3166
     27 H1         -0.9596    1.9047    0.0260 H         1 <0>         0.1261
     28 H2          1.1525    3.1682    0.0080 H         1 <0>         0.1324
     29 H3          3.3038    1.9724   -0.0200 H         1 <0>         0.1340
     30 H4          1.2211   -1.7595   -0.0193 H         1 <0>         0.1282
     31 H5         -0.9260   -0.5563    0.0082 H         1 <0>         0.1273
     32 H6          3.0134   -2.4083    0.8497 H         1 <0>         0.1063
     33 H7          2.9951   -2.3988   -0.9302 H         1 <0>         0.1063
     34 H8          4.3676   -4.5509   -0.0657 H         1 <0>         0.4298
     35 H9         10.1199   -5.0892   -0.1232 H         1 <0>         0.2005
     36 H10         6.6909   -8.5144   -0.1402 H         1 <0>         0.1407
     37 H11         7.8180  -10.7193   -0.1697 H         1 <0>         0.1360
     38 H12        11.5900  -10.8228    0.3308 H         1 <0>         0.1164
     39 H13        10.1667  -11.8917    0.3236 H         1 <0>         0.1243
     40 H14        12.1314  -13.0157   -1.1390 H         1 <0>         0.4090
     41 H15        12.6082  -13.6360   -3.2963 H         1 <0>         0.3888
@<TRIPOS>BOND
     1    1    6 ar
     2    1    2 ar
     3    1   27 1
     4    2    3 ar
     5    2   28 1
     6    3    4 ar
     7    3   29 1
     8    4    5 ar
     9    4    7 1
    10    5    6 ar
    11    5   30 1
    12    6   31 1
    13    7    8 1
    14    8    9 1
    15    8   32 1
    16    8   33 1
    17    9   10 2
    18    9   11 am
    19   11   12 1
    20   11   34 1
    21   12   16 1
    22   12   13 2
    23   13   14 1
    24   14   15 2
    25   14   17 1
    26   15   16 1
    27   15   35 1
    28   17   21 1
    29   17   18 2
    30   18   19 1
    31   18   36 1
    32   19   20 2
    33   19   37 1
    34   20   21 1
    35   20   22 1
    36   22   23 1
    37   22   38 1
    38   22   39 1
    39   23   24 2
    40   23   25 am
    41   25   26 1
    42   25   40 1
    43   26   41 1
@<TRIPOS>MOLECULE
CHEMBL57792
   47    48     0     0     0
SMALL
USER_CHARGES

@<TRIPOS>ATOM
      1 C1         -0.0173    1.4248    0.0099 C.3       1 <0>         0.0254
      2 O1          0.0021   -0.0041    0.0020 O.3       1 <0>        -0.3092
      3 C2          0.6052   -0.6065   -1.0547 C.ar      1 <0>         0.1924
      4 C3          1.1707    0.1547   -2.0584 C.ar      1 <0>        -0.2509
      5 C4          1.7877   -0.4566   -3.1404 C.ar      1 <0>        -0.0401
      6 C5          1.8473   -1.8299   -3.2330 C.ar      1 <0>        -0.1772
      7 C6          1.2855   -2.6213   -2.2357 C.ar      1 <0>         0.1546
      8 C7          0.6628   -2.0089   -1.1308 C.ar      1 <0>        -0.1474
      9 C8          0.1984   -3.0462   -0.2893 C.2       1 <0>        -0.0745
     10 C9          0.5363   -4.2301   -0.8656 C.2       1 <0>        -0.0047
     11 N1          1.1907   -3.9819   -2.0584 N.pl3     1 <0>        -0.5787
     12 H1          1.5370   -4.6560   -2.6638 H         1 <0>         0.4183
     13 C10         0.2408   -5.5603   -0.3164 C.2       1 <0>         0.5856
     14 O2         -0.3540   -5.6640    0.7399 O.2       1 <0>        -0.5179
     15 N2          0.6286   -6.6658   -0.9828 N.am      1 <0>        -0.7308
     16 C11         0.3340   -7.9923   -0.4352 C.3       1 <0>         0.1172
     17 C12         0.8781   -9.0662   -1.3793 C.3       1 <0>        -0.1315
     18 C13         0.5704  -10.4515   -0.8074 C.3       1 <0>        -0.1181
     19 C14         1.1146  -11.5254   -1.7516 C.3       1 <0>        -0.1181
     20 C15         0.8069  -12.9108   -1.1797 C.3       1 <0>        -0.1075
     21 C16         1.3511  -13.9847   -2.1239 C.3       1 <0>        -0.1264
     22 C17         1.0480  -15.3492   -1.5606 C.2       1 <0>         0.5205
     23 O3          0.4552  -15.4525   -0.5076 O.2       1 <0>        -0.5181
     24 N3          1.4358  -16.4547   -2.2269 N.am      1 <0>        -0.6003
     25 O4          1.1511  -17.7368   -1.6976 O.3       1 <0>        -0.3203
     26 H2          1.0053    1.8021    0.0021 H         1 <0>         0.0585
     27 H3         -0.5445    1.7859   -0.8732 H         1 <0>         0.0585
     28 H4         -0.5275    1.7763    0.9067 H         1 <0>         0.1026
     29 H5          1.1322    1.2325   -2.0010 H         1 <0>         0.1318
     30 H6          2.2256    0.1507   -3.9186 H         1 <0>         0.1317
     31 H7          2.3303   -2.2928   -4.0809 H         1 <0>         0.1249
     32 H8         -0.3299   -2.9204    0.6443 H         1 <0>         0.1585
     33 H9          1.1028   -6.5831   -1.8249 H         1 <0>         0.3954
     34 H10         0.8056   -8.0949    0.5421 H         1 <0>         0.0728
     35 H11        -0.7446   -8.1116   -0.3324 H         1 <0>         0.0728
     36 H12         0.4065   -8.9636   -2.3566 H         1 <0>         0.0698
     37 H13         1.9567   -8.9469   -1.4821 H         1 <0>         0.0698
     38 H14         1.0421  -10.5541    0.1699 H         1 <0>         0.0693
     39 H15        -0.5081  -10.5708   -0.7046 H         1 <0>         0.0693
     40 H16         0.6430  -11.4229   -2.7289 H         1 <0>         0.0648
     41 H17         2.1932  -11.4062   -1.8544 H         1 <0>         0.0648
     42 H18         1.2786  -13.0134   -0.2024 H         1 <0>         0.0741
     43 H19        -0.2716  -13.0301   -1.0769 H         1 <0>         0.0741
     44 H20         0.8794  -13.8821   -3.1012 H         1 <0>         0.0991
     45 H21         2.4297  -13.8654   -2.2267 H         1 <0>         0.0991
     46 H22         1.9100  -16.3720   -3.0691 H         1 <0>         0.4080
     47 H23         1.4680  -18.4678   -2.2455 H         1 <0>         0.3878
@<TRIPOS>BOND
     1    1    2 1
     2    1   26 1
     3    1   27 1
     4    1   28 1
     5    2    3 1
     6    3    8 ar
     7    3    4 ar
     8    4    5 ar
     9    4   29 1
    10    5    6 ar
    11    5   30 1
    12    6    7 ar
    13    6   31 1
    14    7   11 1
    15    7    8 ar
    16    8    9 1
    17    9   10 2
    18    9   32 1
    19   10   11 1
    20   10   13 1
    21   11   12 1
    22   13   14 2
    23   13   15 am
    24   15   16 1
    25   15   33 1
    26   16   17 1
    27   16   34 1
    28   16   35 1
    29   17   18 1
    30   17   36 1
    31   17   37 1
    32   18   19 1
    33   18   38 1
    34   18   39 1
    35   19   20 1
    36   19   40 1
    37   19   41 1
    38   20   21 1
    39   20   42 1
    40   20   43 1
    41   21   22 1
    42   21   44 1
    43   21   45 1
    44   22   23 2
    45   22   24 am
    46   24   25 1
    47   24   46 1
    48   25   47 1
@<TRIPOS>MOLECULE
CHEMBL127953
   52    54     0     0     0
SMALL
USER_CHARGES

@<TRIPOS>ATOM
      1 C1         -0.0173    1.4248    0.0099 C.3       1 <0>         0.0259
      2 O1          0.0021   -0.0041    0.0020 O.3       1 <0>        -0.3166
      3 C2          0.6058   -0.6072   -1.0558 C.ar      1 <0>         0.1340
      4 C3          1.1725    0.1636   -2.0616 C.ar      1 <0>        -0.2116
      5 C4          1.7864   -0.4455   -3.1362 C.ar      1 <0>        -0.0446
      6 C5          1.8373   -1.8364   -3.2115 C.ar      1 <0>        -0.0642
      7 C6          1.2673   -2.6076   -2.1998 C.ar      1 <0>        -0.0623
      8 C7          0.6595   -1.9925   -1.1252 C.ar      1 <0>        -0.1518
      9 C8          2.4963   -2.4946   -4.3660 C.2       1 <0>         0.1256
     10 C9          2.5444   -3.8583   -4.4473 C.2       1 <0>        -0.2453
     11 S1          3.4234   -4.0673   -5.9904 S.3       1 <0>         0.1166
     12 C10         3.6338   -2.3321   -6.3640 C.2       1 <0>         0.3152
     13 N1          3.0386   -1.7665   -5.3304 N.2       1 <0>        -0.5345
     14 N2          4.2551   -1.7366   -7.4550 N.am      1 <0>        -0.6121
     15 C11         4.8050   -2.5024   -8.4181 C.2       1 <0>         0.5135
     16 O2          4.7576   -3.7113   -8.3326 O.2       1 <0>        -0.4946
     17 C12         5.4788   -1.8566   -9.6013 C.3       1 <0>        -0.1324
     18 C13         6.0140   -2.9414  -10.5382 C.3       1 <0>        -0.1076
     19 C14         6.6981   -2.2857  -11.7394 C.3       1 <0>        -0.1205
     20 C15         7.2333   -3.3705  -12.6763 C.3       1 <0>        -0.1197
     21 C16         7.9174   -2.7148  -13.8776 C.3       1 <0>        -0.1146
     22 C17         8.4527   -3.7996  -14.8144 C.3       1 <0>        -0.1403
     23 C18         9.1264   -3.1538  -15.9976 C.2       1 <0>         0.4510
     24 O3          9.1739   -1.9445  -16.0832 O.2       1 <0>        -0.4239
     25 C19         9.7246   -3.9868  -17.0452 C.2       1 <0>         0.0968
     26 N3          9.7331   -5.3021  -17.0693 N.2       1 <0>        -0.4192
     27 C20        10.3634   -5.7052  -18.1715 C.2       1 <0>        -0.0441
     28 C21        10.7578   -4.6017  -18.8519 C.2       1 <0>        -0.0390
     29 O4         10.3522   -3.5339  -18.1471 O.3       1 <0>        -0.1709
     30 H1          1.0053    1.8021    0.0021 H         1 <0>         0.0567
     31 H2         -0.5445    1.7859   -0.8732 H         1 <0>         0.0567
     32 H3         -0.5275    1.7763    0.9067 H         1 <0>         0.1016
     33 H4          1.1324    1.2412   -2.0029 H         1 <0>         0.1306
     34 H5          2.2268    0.1547   -3.9186 H         1 <0>         0.1344
     35 H6          1.3048   -3.6855   -2.2555 H         1 <0>         0.1331
     36 H7          0.2216   -2.5893   -0.3388 H         1 <0>         0.1353
     37 H8          2.1588   -4.6034   -3.7673 H         1 <0>         0.1987
     38 H9          4.2930   -0.7698   -7.5234 H         1 <0>         0.4274
     39 H10         4.7586   -1.2375  -10.1363 H         1 <0>         0.1053
     40 H11         6.3050   -1.2358   -9.2548 H         1 <0>         0.1053
     41 H12         6.7342   -3.5605  -10.0032 H         1 <0>         0.0744
     42 H13         5.1878   -3.5622  -10.8847 H         1 <0>         0.0744
     43 H14         5.9779   -1.6666  -12.2744 H         1 <0>         0.0661
     44 H15         7.5243   -1.6649  -11.3929 H         1 <0>         0.0661
     45 H16         7.9535   -3.9896  -12.1413 H         1 <0>         0.0675
     46 H17         6.4072   -3.9913  -13.0229 H         1 <0>         0.0675
     47 H18         7.1972   -2.0957  -14.4125 H         1 <0>         0.0720
     48 H19         8.7436   -2.0940  -13.5310 H         1 <0>         0.0720
     49 H20         9.1728   -4.4187  -14.2795 H         1 <0>         0.1117
     50 H21         7.6265   -4.4204  -15.1610 H         1 <0>         0.1117
     51 H22        10.5308   -6.7297  -18.4697 H         1 <0>         0.1962
     52 H23        11.2954   -4.5846  -19.7885 H         1 <0>         0.2265
@<TRIPOS>BOND
     1    1    2 1
     2    1   30 1
     3    1   31 1
     4    1   32 1
     5    2    3 1
     6    3    8 ar
     7    3    4 ar
     8    4    5 ar
     9    4   33 1
    10    5    6 ar
    11    5   34 1
    12    6    7 ar
    13    6    9 1
    14    7    8 ar
    15    7   35 1
    16    8   36 1
    17    9   13 1
    18    9   10 2
    19   10   11 1
    20   10   37 1
    21   11   12 1
    22   12   13 2
    23   12   14 1
    24   14   15 am
    25   14   38 1
    26   15   16 2
    27   15   17 1
    28   17   18 1
    29   17   39 1
    30   17   40 1
    31   18   19 1
    32   18   41 1
    33   18   42 1
    34   19   20 1
    35   19   43 1
    36   19   44 1
    37   20   21 1
    38   20   45 1
    39   20   46 1
    40   21   22 1
    41   21   47 1
    42   21   48 1
    43   22   23 1
    44   22   49 1
    45   22   50 1
    46   23   24 2
    47   23   25 1
    48   25   29 1
    49   25   26 2
    50   26   27 1
    51   27   28 2
    52   27   51 1
    53   28   29 1
    54   28   52 1
@<TRIPOS>MOLECULE
CHEMBL242533
   37    39     0     0     0
SMALL
USER_CHARGES

@<TRIPOS>ATOM
      1 C1          0.0424    1.1204   -1.6807 C.ar      1 <0>        -0.1485
      2 C2          1.2119    1.6681   -2.1937 C.ar      1 <0>        -0.0804
      3 C3          2.4099    0.9992   -2.0786 C.ar      1 <0>        -0.1367
      4 C4          2.4533   -0.2383   -1.4426 C.ar      1 <0>         0.1170
      5 C5          1.2661   -0.7917   -0.9232 C.ar      1 <0>        -0.1253
      6 C6          0.0593   -0.0908   -1.0532 C.ar      1 <0>        -0.0569
      7 C7          1.6094   -2.0353   -0.3424 C.2       1 <0>        -0.0954
      8 C8          2.9484   -2.2150   -0.5095 C.2       1 <0>        -0.0131
      9 N1          3.4707   -1.1251   -1.1788 N.pl3     1 <0>        -0.5765
     10 H1          4.4018   -1.0051   -1.4226 H         1 <0>         0.4194
     11 C9          3.7151   -3.3808   -0.0517 C.2       1 <0>         0.4602
     12 O1          3.1369   -4.3429    0.4178 O.2       1 <0>        -0.4278
     13 C10         5.1895   -3.3854   -0.1612 C.ar      1 <0>        -0.1577
     14 C11         5.8965   -2.1794   -0.1498 C.ar      1 <0>        -0.0836
     15 C12         7.2734   -2.1807   -0.2514 C.ar      1 <0>        -0.1221
     16 C13         7.9630   -3.3713   -0.3651 C.ar      1 <0>        -0.0721
     17 C14         7.2692   -4.5864   -0.3781 C.ar      1 <0>        -0.0794
     18 C15         5.8775   -4.5918   -0.2703 C.ar      1 <0>        -0.0344
     19 C16         8.0054   -5.8556   -0.4994 C.2       1 <0>        -0.0075
     20 C17         9.3497   -5.8483   -0.5982 C.2       1 <0>        -0.2030
     21 C18        10.0819   -7.1107   -0.7188 C.2       1 <0>         0.5596
     22 O2          9.4767   -8.1665   -0.7299 O.2       1 <0>        -0.5214
     23 N2         11.4260   -7.1034   -0.8176 N.am      1 <0>        -0.5929
     24 O3         12.1340   -8.3241   -0.9343 O.3       1 <0>        -0.3147
     25 H2         -0.8879    1.6607   -1.7757 H         1 <0>         0.1266
     26 H3          1.1808    2.6279   -2.6879 H         1 <0>         0.1296
     27 H4          3.3133    1.4333   -2.4809 H         1 <0>         0.1239
     28 H5         -0.8547   -0.5083   -0.6573 H         1 <0>         0.1273
     29 H6          0.9310   -2.7192    0.1459 H         1 <0>         0.1573
     30 H7          5.3640   -1.2440   -0.0615 H         1 <0>         0.1310
     31 H8          7.8137   -1.2456   -0.2423 H         1 <0>         0.1380
     32 H9          9.0401   -3.3648   -0.4446 H         1 <0>         0.1368
     33 H10         5.3365   -5.5266   -0.2752 H         1 <0>         0.1438
     34 H11         7.4683   -6.7926   -0.5092 H         1 <0>         0.1439
     35 H12         9.8868   -4.9114   -0.5884 H         1 <0>         0.1357
     36 H13        11.9084   -6.2619   -0.8088 H         1 <0>         0.4096
     37 H14        13.0929   -8.2180   -0.9994 H         1 <0>         0.3895
@<TRIPOS>BOND
     1    1    6 ar
     2    1    2 ar
     3    1   25 1
     4    2    3 ar
     5    2   26 1
     6    3    4 ar
     7    3   27 1
     8    4    9 1
     9    4    5 ar
    10    5    6 ar
    11    5    7 1
    12    6   28 1
    13    7    8 2
    14    7   29 1
    15    8    9 1
    16    8   11 1
    17    9   10 1
    18   11   12 2
    19   11   13 1
    20   13   18 ar
    21   13   14 ar
    22   14   15 ar
    23   14   30 1
    24   15   16 ar
    25   15   31 1
    26   16   17 ar
    27   16   32 1
    28   17   18 ar
    29   17   19 1
    30   18   33 1
    31   19   20 2
    32   19   34 1
    33   20   21 1
    34   20   35 1
    35   21   22 2
    36   21   23 am
    37   23   24 1
    38   23   36 1
    39   24   37 1
@<TRIPOS>MOLECULE
CHEMBL318616
   70    71     0     0     0
SMALL
USER_CHARGES

@<TRIPOS>ATOM
      1 C1         -2.1377    1.6307   -1.1497 C.3       1 <0>        -0.1491
      2 C2         -1.7780    0.1578   -1.3549 C.3       1 <0>        -0.0959
      3 C3         -0.5564    0.0540   -2.2703 C.3       1 <0>        -0.1534
      4 C4         -1.4578   -0.4822   -0.0026 C.3       1 <0>        -0.1003
      5 C5         -1.2362   -1.9846   -0.1891 C.3       1 <0>        -0.1244
      6 H1         -0.5094   -2.1687   -0.9803 H         1 <0>         0.1284
      7 C6         -2.5691   -2.6953   -0.5004 C.3       1 <0>        -0.1538
      8 C7         -2.7349   -3.6596    0.6538 C.2       1 <0>         0.5351
      9 O1         -3.6640   -4.4240    0.8023 O.2       1 <0>        -0.4661
     10 N1         -1.6926   -3.5353    1.4848 N.am      1 <0>        -0.5560
     11 C8         -0.7850   -2.6213    1.1072 C.2       1 <0>         0.5344
     12 O2          0.2324   -2.3478    1.7071 O.2       1 <0>        -0.4760
     13 C9         -1.5524   -4.3329    2.7056 C.3       1 <0>         0.1110
     14 H2         -0.6297   -4.0568    3.2160 H         1 <0>         0.1316
     15 C10        -2.7442   -4.0679    3.6276 C.3       1 <0>        -0.1268
     16 C11        -2.7162   -2.6101    4.0911 C.3       1 <0>        -0.0833
     17 C12        -1.4757   -2.3734    4.9549 C.3       1 <0>        -0.1202
     18 C13        -1.4477   -0.9155    5.4185 C.3       1 <0>        -0.1171
     19 C14        -2.7046   -0.6168    6.2382 C.3       1 <0>        -0.1205
     20 C15        -3.9450   -0.8535    5.3744 C.3       1 <0>        -0.1191
     21 C16        -3.9731   -2.3113    4.9109 C.3       1 <0>        -0.1126
     22 C17        -1.5099   -5.7961    2.3475 C.2       1 <0>         0.5098
     23 O3         -1.5889   -6.1389    1.1868 O.2       1 <0>        -0.5200
     24 N2         -1.3840   -6.7238    3.3170 N.am      1 <0>        -0.7260
     25 C18        -1.3427   -8.1462    2.9689 C.3       1 <0>         0.1198
     26 C19        -1.1963   -8.9793    4.2439 C.3       1 <0>        -0.1322
     27 C20        -1.1532  -10.4648    3.8803 C.3       1 <0>        -0.1164
     28 C21        -1.0067  -11.2978    5.1553 C.3       1 <0>        -0.1052
     29 C22        -0.9636  -12.7834    4.7917 C.3       1 <0>        -0.1273
     30 C23        -0.8194  -13.6039    6.0475 C.2       1 <0>         0.5213
     31 O4         -0.7572  -13.0546    7.1270 O.2       1 <0>        -0.5193
     32 N3         -0.7594  -14.9481    5.9710 N.am      1 <0>        -0.5999
     33 O5         -0.6239  -15.7191    7.1510 O.3       1 <0>        -0.3204
     34 H3         -2.3658    2.0867   -2.1131 H         1 <0>         0.0580
     35 H4         -3.0080    1.7046   -0.4976 H         1 <0>         0.0553
     36 H5         -1.2957    2.1500   -0.6921 H         1 <0>         0.0564
     37 H6         -2.6200   -0.3615   -1.8125 H         1 <0>         0.0753
     38 H7         -0.2606   -0.9909   -2.3644 H         1 <0>         0.0565
     39 H8         -0.8049    0.4513   -3.2544 H         1 <0>         0.0575
     40 H9          0.2667    0.6276   -1.8442 H         1 <0>         0.0576
     41 H10        -0.5553   -0.0302    0.4088 H         1 <0>         0.0813
     42 H11        -2.2901   -0.3200    0.6823 H         1 <0>         0.0710
     43 H12        -3.3900   -1.9786   -0.5224 H         1 <0>         0.1220
     44 H13        -2.5045   -3.2352   -1.4451 H         1 <0>         0.1218
     45 H14        -3.6713   -4.2596    3.0873 H         1 <0>         0.0900
     46 H15        -2.6863   -4.7260    4.4946 H         1 <0>         0.0855
     47 H16        -2.6845   -1.9530    3.2220 H         1 <0>         0.0672
     48 H17        -1.5074   -3.0304    5.8240 H         1 <0>         0.0650
     49 H18        -0.5803   -2.5862    4.3709 H         1 <0>         0.0651
     50 H19        -0.5640   -0.7469    6.0338 H         1 <0>         0.0626
     51 H20        -1.4160   -0.2585    4.5494 H         1 <0>         0.0601
     52 H21        -2.7362   -1.2738    7.1073 H         1 <0>         0.0618
     53 H22        -2.6846    0.4218    6.5684 H         1 <0>         0.0609
     54 H23        -4.8404   -0.6406    5.9584 H         1 <0>         0.0626
     55 H24        -3.9134   -0.1964    4.5053 H         1 <0>         0.0601
     56 H25        -4.8568   -2.4800    4.2955 H         1 <0>         0.0623
     57 H26        -4.0047   -2.9684    5.7800 H         1 <0>         0.0648
     58 H27        -1.3208   -6.4496    4.2453 H         1 <0>         0.4019
     59 H28        -2.2654   -8.4223    2.4585 H         1 <0>         0.0702
     60 H29        -0.4936   -8.3350    2.3120 H         1 <0>         0.0687
     61 H30        -0.2736   -8.7032    4.7543 H         1 <0>         0.0724
     62 H31        -2.0454   -8.7905    4.9007 H         1 <0>         0.0728
     63 H32        -2.0758  -10.7409    3.3699 H         1 <0>         0.0691
     64 H33        -0.3040  -10.6536    3.2234 H         1 <0>         0.0688
     65 H34        -0.0841  -11.0217    5.6657 H         1 <0>         0.0742
     66 H35        -1.8558  -11.1091    5.8121 H         1 <0>         0.0743
     67 H36        -1.8863  -13.0595    4.2813 H         1 <0>         0.1003
     68 H37        -0.1145  -12.9722    4.1348 H         1 <0>         0.1001
     69 H38        -0.8092  -15.3875    5.1076 H         1 <0>         0.4084
     70 H39        -0.5898  -16.6730    6.9958 H         1 <0>         0.3880
@<TRIPOS>BOND
     1    1    2 1
     2    1   34 1
     3    1   35 1
     4    1   36 1
     5    2    3 1
     6    2    4 1
     7    2   37 1
     8    3   38 1
     9    3   39 1
    10    3   40 1
    11    4    5 1
    12    4   41 1
    13    4   42 1
    14    5    6 1
    15    5   11 1
    16    5    7 1
    17    7    8 1
    18    7   43 1
    19    7   44 1
    20    8    9 2
    21    8   10 am
    22   10   11 am
    23   10   13 1
    24   11   12 2
    25   13   14 1
    26   13   15 1
    27   13   22 1
    28   15   16 1
    29   15   45 1
    30   15   46 1
    31   16   21 1
    32   16   17 1
    33   16   47 1
    34   17   18 1
    35   17   48 1
    36   17   49 1
    37   18   19 1
    38   18   50 1
    39   18   51 1
    40   19   20 1
    41   19   52 1
    42   19   53 1
    43   20   21 1
    44   20   54 1
    45   20   55 1
    46   21   56 1
    47   21   57 1
    48   22   23 2
    49   22   24 am
    50   24   25 1
    51   24   58 1
    52   25   26 1
    53   25   59 1
    54   25   60 1
    55   26   27 1
    56   26   61 1
    57   26   62 1
    58   27   28 1
    59   27   63 1
    60   27   64 1
    61   28   29 1
    62   28   65 1
    63   28   66 1
    64   29   30 1
    65   29   67 1
    66   29   68 1
    67   30   31 2
    68   30   32 am
    69   32   33 1
    70   32   69 1
    71   33   70 1
@<TRIPOS>MOLECULE
CHEMBL141502
   51    53     0     0     0
SMALL
USER_CHARGES

@<TRIPOS>ATOM
      1 C1         -0.0173    1.4248    0.0099 C.3       1 <0>         0.0251
      2 O1          0.0021   -0.0041    0.0020 O.3       1 <0>        -0.3184
      3 C2          0.6262   -0.6188    1.0422 C.ar      1 <0>         0.1166
      4 C3          1.2036    0.1448    2.0537 C.ar      1 <0>        -0.1752
      5 C4          1.8389   -0.4613    3.1141 C.ar      1 <0>        -0.0789
      6 C5          1.9085   -1.8489    3.1822 C.ar      1 <0>         0.0611
      7 C6          1.3266   -2.6227    2.1624 C.ar      1 <0>        -0.0592
      8 C7          0.6800   -1.9971    1.0940 C.ar      1 <0>        -0.1287
      9 C8          1.5696   -4.0209    2.5256 C.2       1 <0>        -0.2114
     10 C9          2.2490   -4.0139    3.6834 C.2       1 <0>         0.0947
     11 N1          2.4612   -2.7256    4.0919 N.pl3     1 <0>        -0.5864
     12 H1          2.9307   -2.4674    4.9004 H         1 <0>         0.4232
     13 C10         1.1380   -5.2370    1.7472 C.3       1 <0>        -0.0586
     14 C11         2.1780   -5.5481    0.6690 C.3       1 <0>        -0.0090
     15 N2          1.7572   -6.7335   -0.0897 N.4       1 <0>        -0.5095
     16 C12         2.7558   -7.0322   -1.1249 C.3       1 <0>         0.0458
     17 C13         2.3241   -8.2483   -1.9032 C.ar      1 <0>        -0.1611
     18 C14         2.7127   -9.5084   -1.4828 C.ar      1 <0>        -0.0903
     19 C15         2.3222  -10.6259   -2.1899 C.ar      1 <0>        -0.0931
     20 C16         1.5311  -10.4836   -3.3342 C.ar      1 <0>        -0.0299
     21 C17         1.1422   -9.2071   -3.7522 C.ar      1 <0>        -0.1039
     22 C18         1.5365   -8.0997   -3.0315 C.ar      1 <0>        -0.0899
     23 C19         1.1102  -11.6715   -4.0950 C.2       1 <0>        -0.0362
     24 C20         0.3476  -11.5303   -5.1976 C.2       1 <0>        -0.1743
     25 C21        -0.0710  -12.7119   -5.9545 C.2       1 <0>         0.5540
     26 O2          0.2695  -13.8213   -5.5881 O.2       1 <0>        -0.5159
     27 N3         -0.8335  -12.5708   -7.0568 N.am      1 <0>        -0.5901
     28 O3         -1.2383  -13.7134   -7.7887 O.3       1 <0>        -0.3110
     29 H2          1.0053    1.8021    0.0021 H         1 <0>         0.0576
     30 H3         -0.5445    1.7859   -0.8732 H         1 <0>         0.1042
     31 H4         -0.5275    1.7763    0.9067 H         1 <0>         0.0581
     32 H5          1.1527    1.2226    2.0056 H         1 <0>         0.1374
     33 H6          2.2835    0.1405    3.8929 H         1 <0>         0.1295
     34 H7          0.2283   -2.5882    0.3111 H         1 <0>         0.1270
     35 H8          2.5792   -4.8948    4.2139 H         1 <0>         0.1743
     36 H9          1.0491   -6.0880    2.4226 H         1 <0>         0.0917
     37 H10         0.1737   -5.0441    1.2770 H         1 <0>         0.0922
     38 H11         2.2669   -4.6972   -0.0063 H         1 <0>         0.1328
     39 H12         3.1422   -5.7411    1.1393 H         1 <0>         0.1317
     40 H13         1.6749   -7.5213    0.5355 H         1 <0>         0.4269
     41 H14         2.8447   -6.1813   -1.8002 H         1 <0>         0.1385
     42 H15         3.7200   -7.2252   -0.6547 H         1 <0>         0.1384
     43 H16         3.3237   -9.6166   -0.5989 H         1 <0>         0.1364
     44 H17         2.6268  -11.6085   -1.8610 H         1 <0>         0.1428
     45 H18         0.5315   -9.0893   -4.6352 H         1 <0>         0.1398
     46 H19         1.2333   -7.1134   -3.3506 H         1 <0>         0.1361
     47 H20         1.4124  -12.6560   -3.7699 H         1 <0>         0.1473
     48 H21         0.0454  -10.5458   -5.5228 H         1 <0>         0.1370
     49 H22        -1.1049  -11.6865   -7.3489 H         1 <0>         0.4102
     50 H23        -1.7820  -13.5124   -8.5627 H         1 <0>         0.3931
     51 H24         0.8646   -6.5549   -0.5249 H         1 <0>         0.4275
@<TRIPOS>BOND
     1    1    2 1
     2    1   29 1
     3    1   30 1
     4    1   31 1
     5    2    3 1
     6    3    8 ar
     7    3    4 ar
     8    4    5 ar
     9    4   32 1
    10    5    6 ar
    11    5   33 1
    12    6   11 1
    13    6    7 ar
    14    7    8 ar
    15    7    9 1
    16    8   34 1
    17    9   10 2
    18    9   13 1
    19   10   11 1
    20   10   35 1
    21   11   12 1
    22   13   14 1
    23   13   36 1
    24   13   37 1
    25   14   15 1
    26   14   38 1
    27   14   39 1
    28   15   16 1
    29   15   40 1
    30   15   51 1
    31   16   17 1
    32   16   41 1
    33   16   42 1
    34   17   22 ar
    35   17   18 ar
    36   18   19 ar
    37   18   43 1
    38   19   20 ar
    39   19   44 1
    40   20   21 ar
    41   20   23 1
    42   21   22 ar
    43   21   45 1
    44   22   46 1
    45   23   24 2
    46   23   47 1
    47   24   25 1
    48   24   48 1
    49   25   26 2
    50   25   27 am
    51   27   28 1
    52   27   49 1
    53   28   50 1
@<TRIPOS>MOLECULE
CHEMBL141502__1
   50    52     0     0     0
SMALL
USER_CHARGES

@<TRIPOS>ATOM
      1 C1         -0.0173    1.4248    0.0099 C.3       1 <0>         0.0282
      2 O1          0.0021   -0.0041    0.0020 O.3       1 <0>        -0.3189
      3 C2         -1.2011   -0.6379    0.0101 C.ar      1 <0>         0.1002
      4 C3         -2.3775    0.1074    0.0195 C.ar      1 <0>        -0.1776
      5 C4         -3.6039   -0.5182    0.0273 C.ar      1 <0>        -0.0909
      6 C5         -3.6760   -1.9073    0.0258 C.ar      1 <0>         0.0642
      7 C6         -2.4900   -2.6627    0.0163 C.ar      1 <0>        -0.0612
      8 C7         -1.2514   -2.0173    0.0032 C.ar      1 <0>        -0.1099
      9 C8         -2.9042   -4.0678    0.0173 C.2       1 <0>        -0.1748
     10 C9         -4.2466   -4.0819    0.0268 C.2       1 <0>         0.0641
     11 N1         -4.7264   -2.8008    0.0320 N.pl3     1 <0>        -0.5957
     12 H1         -5.6653   -2.5573    0.0395 H         1 <0>         0.4162
     13 C10        -1.9955   -5.2700    0.0084 C.3       1 <0>        -0.0401
     14 C11        -1.5766   -5.6033    1.4417 C.3       1 <0>         0.0644
     15 N2         -0.6908   -6.7751    1.4330 N.3       1 <0>        -0.6852
     16 C12        -0.2675   -7.1252    2.7954 C.3       1 <0>         0.0952
     17 C13         0.6378   -8.3290    2.7465 C.ar      1 <0>        -0.0672
     18 C14         0.0975   -9.6005    2.8292 C.ar      1 <0>        -0.1168
     19 C15         0.9193  -10.7069    2.7856 C.ar      1 <0>        -0.0898
     20 C16         2.3019  -10.5416    2.6570 C.ar      1 <0>        -0.0812
     21 C17         2.8401   -9.2537    2.5735 C.ar      1 <0>        -0.0983
     22 C18         2.0047   -8.1574    2.6133 C.ar      1 <0>        -0.0992
     23 C19         3.1863  -11.7175    2.6101 C.2       1 <0>        -0.0014
     24 C20         4.5187  -11.5542    2.4860 C.2       1 <0>        -0.2130
     25 C21         5.3985  -12.7238    2.4394 C.2       1 <0>         0.5610
     26 O2          4.9268  -13.8433    2.5127 O.2       1 <0>        -0.5258
     27 N3          6.7305  -12.5606    2.3153 N.am      1 <0>        -0.5935
     28 O3          7.5813  -13.6917    2.2703 O.3       1 <0>        -0.3163
     29 H2          1.0053    1.8021    0.0021 H         1 <0>         0.0992
     30 H3         -0.5445    1.7859   -0.8732 H         1 <0>         0.0538
     31 H4         -0.5275    1.7763    0.9067 H         1 <0>         0.0537
     32 H5         -2.3273    1.1863    0.0211 H         1 <0>         0.1314
     33 H6         -4.5100    0.0696    0.0350 H         1 <0>         0.1233
     34 H7         -0.3384   -2.5942   -0.0083 H         1 <0>         0.1311
     35 H8         -4.8572   -4.9726    0.0298 H         1 <0>         0.1695
     36 H9         -2.5227   -6.1208   -0.4233 H         1 <0>         0.0679
     37 H10        -1.1094   -5.0512   -0.5876 H         1 <0>         0.0801
     38 H11        -1.0494   -4.7525    1.8733 H         1 <0>         0.0748
     39 H12        -2.4627   -5.8220    2.0376 H         1 <0>         0.0299
     40 H13        -1.1337   -7.5599    0.9791 H         1 <0>         0.3419
     41 H14         0.2688   -6.2849    3.2364 H         1 <0>         0.0832
     42 H15        -1.1445   -7.3545    3.4007 H         1 <0>         0.0408
     43 H16        -0.9705   -9.7264    2.9286 H         1 <0>         0.1241
     44 H17         0.4963  -11.6984    2.8511 H         1 <0>         0.1295
     45 H18         3.9070   -9.1181    2.4743 H         1 <0>         0.1282
     46 H19         2.4184   -7.1621    2.5445 H         1 <0>         0.1285
     47 H20         2.7678  -12.7109    2.6752 H         1 <0>         0.1388
     48 H21         4.9373  -10.5607    2.4209 H         1 <0>         0.1349
     49 H22         7.1065  -11.6683    2.2569 H         1 <0>         0.4097
     50 H23         8.5193  -13.4749    2.1800 H         1 <0>         0.3887
@<TRIPOS>BOND
     1    1    2 1
     2    1   29 1
     3    1   30 1
     4    1   31 1
     5    2    3 1
     6    3    8 ar
     7    3    4 ar
     8    4    5 ar
     9    4   32 1
    10    5    6 ar
    11    5   33 1
    12    6   11 1
    13    6    7 ar
    14    7    8 ar
    15    7    9 1
    16    8   34 1
    17    9   10 2
    18    9   13 1
    19   10   11 1
    20   10   35 1
    21   11   12 1
    22   13   14 1
    23   13   36 1
    24   13   37 1
    25   14   15 1
    26   14   38 1
    27   14   39 1
    28   15   16 1
    29   15   40 1
    30   16   17 1
    31   16   41 1
    32   16   42 1
    33   17   22 ar
    34   17   18 ar
    35   18   19 ar
    36   18   43 1
    37   19   20 ar
    38   19   44 1
    39   20   21 ar
    40   20   23 1
    41   21   22 ar
    42   21   45 1
    43   22   46 1
    44   23   24 2
    45   23   47 1
    46   24   25 1
    47   24   48 1
    48   25   26 2
    49   25   27 am
    50   27   28 1
    51   27   49 1
    52   28   50 1
@<TRIPOS>MOLECULE
CHEMBL189912
   37    38     0     0     0
SMALL
USER_CHARGES

@<TRIPOS>ATOM
      1 C1         -0.0036    1.4021    0.0106 C.ar      1 <0>        -0.1224
      2 C2          1.1881    2.1024   -0.0037 C.ar      1 <0>        -0.1179
      3 C3          2.3904    1.4204   -0.0190 C.ar      1 <0>        -0.1161
      4 C4          2.4010    0.0381   -0.0195 C.ar      1 <0>        -0.0866
      5 C5          1.2093   -0.6622   -0.0043 C.ar      1 <0>        -0.1162
      6 C6          0.0069    0.0198    0.0096 C.ar      1 <0>        -0.1179
      7 C7          3.7117   -0.7054   -0.0372 C.3       1 <0>        -0.0662
      8 C8          4.1745   -0.9574    1.3992 C.3       1 <0>        -0.1329
      9 C9          5.4852   -1.7009    1.3816 C.2       1 <0>         0.5135
     10 O1          5.9986   -1.9998    0.3243 O.2       1 <0>        -0.5108
     11 N1          6.0868   -2.0337    2.5408 N.am      1 <0>        -0.6764
     12 C10         7.2488   -2.8043    2.5270 C.ar      1 <0>         0.1755
     13 C11         8.1788   -2.6397    1.5054 C.ar      1 <0>        -0.1278
     14 C12         9.3271   -3.3989    1.4888 C.ar      1 <0>        -0.0328
     15 C13         9.5584   -4.3354    2.5000 C.ar      1 <0>        -0.1443
     16 C14         8.6224   -4.4979    3.5250 C.ar      1 <0>        -0.0668
     17 C15         7.4785   -3.7321    3.5382 C.ar      1 <0>        -0.1520
     18 C16        10.7882   -5.1514    2.4852 C.2       1 <0>         0.5736
     19 O2         11.6014   -5.0092    1.5926 O.2       1 <0>        -0.5151
     20 N2         11.0097   -6.0542    3.4611 N.am      1 <0>        -0.5946
     21 O3         12.1895   -6.8370    3.4469 O.3       1 <0>        -0.3130
     22 H1         -0.9429    1.9349    0.0270 H         1 <0>         0.1218
     23 H2          1.1799    3.1824   -0.0033 H         1 <0>         0.1225
     24 H3          3.3215    1.9675   -0.0309 H         1 <0>         0.1221
     25 H4          1.2175   -1.7422   -0.0051 H         1 <0>         0.1219
     26 H5         -0.9241   -0.5273    0.0211 H         1 <0>         0.1224
     27 H6          3.5818   -1.6587   -0.5496 H         1 <0>         0.0823
     28 H7          4.4599   -0.1104   -0.5609 H         1 <0>         0.0825
     29 H8          4.3044   -0.0042    1.9116 H         1 <0>         0.1010
     30 H9          3.4262   -1.5524    1.9229 H         1 <0>         0.1009
     31 H10         5.7115   -1.7372    3.3846 H         1 <0>         0.4152
     32 H11         7.9995   -1.9158    0.7242 H         1 <0>         0.1493
     33 H12        10.0483   -3.2711    0.6951 H         1 <0>         0.1438
     34 H13         8.7979   -5.2210    4.3077 H         1 <0>         0.1298
     35 H14         6.7565   -3.8545    4.3320 H         1 <0>         0.1356
     36 H15        10.3609   -6.1676    4.1733 H         1 <0>         0.4071
     37 H16        12.2599   -7.4558    4.1867 H         1 <0>         0.3892
@<TRIPOS>BOND
     1    1    6 ar
     2    1    2 ar
     3    1   22 1
     4    2    3 ar
     5    2   23 1
     6    3    4 ar
     7    3   24 1
     8    4    5 ar
     9    4    7 1
    10    5    6 ar
    11    5   25 1
    12    6   26 1
    13    7    8 1
    14    7   27 1
    15    7   28 1
    16    8    9 1
    17    8   29 1
    18    8   30 1
    19    9   10 2
    20    9   11 am
    21   11   12 1
    22   11   31 1
    23   12   17 ar
    24   12   13 ar
    25   13   14 ar
    26   13   32 1
    27   14   15 ar
    28   14   33 1
    29   15   16 ar
    30   15   18 1
    31   16   17 ar
    32   16   34 1
    33   17   35 1
    34   18   19 2
    35   18   20 am
    36   20   21 1
    37   20   36 1
    38   21   37 1
@<TRIPOS>MOLECULE
CHEMBL142120
   47    49     0     0     0
SMALL
USER_CHARGES

@<TRIPOS>ATOM
      1 C1         -0.0165    1.3620    0.0095 C.ar      1 <0>        -0.1387
      2 C2          1.1697    2.0834    0.0021 C.ar      1 <0>        -0.0840
      3 C3          2.3856    1.4362   -0.0134 C.ar      1 <0>        -0.1337
      4 C4          2.4281    0.0456   -0.0212 C.ar      1 <0>         0.1056
      5 C5          1.2234   -0.6807   -0.0132 C.ar      1 <0>        -0.1169
      6 C6          0.0021   -0.0041    0.0020 C.ar      1 <0>        -0.0680
      7 C7          1.6036   -2.0953   -0.0245 C.2       1 <0>        -0.1675
      8 C8          2.9451   -2.1410   -0.0380 C.2       1 <0>         0.0469
      9 N1          3.4551   -0.8713   -0.0363 N.pl3     1 <0>        -0.5919
     10 H1          4.3995   -0.6501   -0.0442 H         1 <0>         0.4148
     11 C9          3.7676   -3.4037   -0.0533 C.3       1 <0>        -0.0773
     12 C10         3.9264   -3.8914   -1.4948 C.3       1 <0>        -0.0079
     13 N2          4.7282   -5.1222   -1.5097 N.4       1 <0>        -0.5090
     14 C11         4.8807   -5.5905   -2.8937 C.3       1 <0>         0.0461
     15 C12         5.7032   -6.8532   -2.9090 C.ar      1 <0>        -0.1633
     16 C13         7.0805   -6.7762   -3.0212 C.ar      1 <0>        -0.0899
     17 C14         7.8399   -7.9270   -3.0364 C.ar      1 <0>        -0.0932
     18 C15         7.2150   -9.1741   -2.9377 C.ar      1 <0>        -0.0277
     19 C16         5.8230   -9.2435   -2.8242 C.ar      1 <0>        -0.1042
     20 C17         5.0778   -8.0834   -2.8052 C.ar      1 <0>        -0.0892
     21 C18         8.0184  -10.4075   -2.9536 C.2       1 <0>        -0.0379
     22 C19         7.4124  -11.6079   -2.8582 C.2       1 <0>        -0.1725
     23 C20         8.2115  -12.8348   -2.8741 C.2       1 <0>         0.5536
     24 O1          9.4227  -12.7708   -2.9734 O.2       1 <0>        -0.5154
     25 N3          7.6056  -14.0349   -2.7787 N.am      1 <0>        -0.5899
     26 O2          8.3784  -15.2214   -2.7941 O.3       1 <0>        -0.3107
     27 H2         -0.9613    1.8849    0.0259 H         1 <0>         0.1291
     28 H3          1.1388    3.1630    0.0081 H         1 <0>         0.1318
     29 H4          3.3028    2.0064   -0.0198 H         1 <0>         0.1236
     30 H5         -0.9246   -0.5587    0.0082 H         1 <0>         0.1263
     31 H6          0.9320   -2.9411   -0.0220 H         1 <0>         0.1494
     32 H7          4.7506   -3.2022    0.3724 H         1 <0>         0.0965
     33 H8          3.2664   -4.1709    0.5367 H         1 <0>         0.1120
     34 H9          2.9435   -4.0929   -1.9205 H         1 <0>         0.1400
     35 H10         4.4276   -3.1241   -2.0849 H         1 <0>         0.1326
     36 H11         5.6381   -4.9357   -1.1156 H         1 <0>         0.4276
     37 H12         3.8977   -5.7920   -3.3195 H         1 <0>         0.1404
     38 H13         5.3819   -4.8232   -3.4838 H         1 <0>         0.1390
     39 H14         7.5617   -5.8123   -3.0974 H         1 <0>         0.1361
     40 H15         8.9146   -7.8654   -3.1247 H         1 <0>         0.1433
     41 H16         5.3332  -10.2030   -2.7479 H         1 <0>         0.1405
     42 H17         4.0029   -8.1352   -2.7132 H         1 <0>         0.1364
     43 H18         9.0933  -10.3507   -3.0417 H         1 <0>         0.1477
     44 H19         6.3375  -11.6647   -2.7701 H         1 <0>         0.1371
     45 H20         6.6402  -14.0859   -2.6996 H         1 <0>         0.4102
     46 H21         7.8561  -16.0319   -2.7206 H         1 <0>         0.3934
     47 H22         4.2643   -5.8325   -0.9635 H         1 <0>         0.4290
@<TRIPOS>BOND
     1    1    6 ar
     2    1    2 ar
     3    1   27 1
     4    2    3 ar
     5    2   28 1
     6    3    4 ar
     7    3   29 1
     8    4    9 1
     9    4    5 ar
    10    5    6 ar
    11    5    7 1
    12    6   30 1
    13    7    8 2
    14    7   31 1
    15    8    9 1
    16    8   11 1
    17    9   10 1
    18   11   12 1
    19   11   32 1
    20   11   33 1
    21   12   13 1
    22   12   34 1
    23   12   35 1
    24   13   14 1
    25   13   36 1
    26   13   47 1
    27   14   15 1
    28   14   37 1
    29   14   38 1
    30   15   20 ar
    31   15   16 ar
    32   16   17 ar
    33   16   39 1
    34   17   18 ar
    35   17   40 1
    36   18   19 ar
    37   18   21 1
    38   19   20 ar
    39   19   41 1
    40   20   42 1
    41   21   22 2
    42   21   43 1
    43   22   23 1
    44   22   44 1
    45   23   24 2
    46   23   25 am
    47   25   26 1
    48   25   45 1
    49   26   46 1
@<TRIPOS>MOLECULE
CHEMBL142120__1
   46    48     0     0     0
SMALL
USER_CHARGES

@<TRIPOS>ATOM
      1 C1         -0.0165    1.3620    0.0095 C.ar      1 <0>        -0.1464
      2 C2          1.1697    2.0834    0.0021 C.ar      1 <0>        -0.0986
      3 C3          2.3856    1.4362   -0.0134 C.ar      1 <0>        -0.1314
      4 C4          2.4281    0.0456   -0.0212 C.ar      1 <0>         0.0962
      5 C5          1.2234   -0.6807   -0.0132 C.ar      1 <0>        -0.1087
      6 C6          0.0021   -0.0041    0.0020 C.ar      1 <0>        -0.0716
      7 C7          1.6036   -2.0953   -0.0245 C.2       1 <0>        -0.1953
      8 C8          2.9451   -2.1410   -0.0380 C.2       1 <0>         0.0817
      9 N1          3.4551   -0.8713   -0.0363 N.pl3     1 <0>        -0.5932
     10 H1          4.3995   -0.6501   -0.0442 H         1 <0>         0.4127
     11 C9          3.7676   -3.4037   -0.0533 C.3       1 <0>        -0.0566
     12 C10         3.9264   -3.8914   -1.4948 C.3       1 <0>         0.0637
     13 N2          4.7282   -5.1222   -1.5097 N.3       1 <0>        -0.6840
     14 C11         4.9019   -5.6208   -2.8806 C.3       1 <0>         0.0956
     15 C12         5.7274   -6.8813   -2.8559 C.ar      1 <0>        -0.0698
     16 C13         7.1060   -6.8032   -2.9497 C.ar      1 <0>        -0.1164
     17 C14         7.8683   -7.9521   -2.9283 C.ar      1 <0>        -0.0898
     18 C15         7.2448   -9.1983   -2.8109 C.ar      1 <0>        -0.0792
     19 C16         5.8515   -9.2688   -2.7161 C.ar      1 <0>        -0.0985
     20 C17         5.1034   -8.1106   -2.7338 C.ar      1 <0>        -0.0985
     21 C18         8.0512  -10.4296   -2.7878 C.2       1 <0>        -0.0030
     22 C19         7.4466  -11.6292   -2.6745 C.2       1 <0>        -0.2112
     23 C20         8.2487  -12.8541   -2.6514 C.2       1 <0>         0.5607
     24 O1          9.4611  -12.7891   -2.7346 O.2       1 <0>        -0.5253
     25 N3          7.6443  -14.0533   -2.5382 N.am      1 <0>        -0.5934
     26 O2          8.4199  -15.2378   -2.5159 O.3       1 <0>        -0.3160
     27 H2         -0.9613    1.8849    0.0259 H         1 <0>         0.1227
     28 H3          1.1388    3.1630    0.0081 H         1 <0>         0.1252
     29 H4          3.3028    2.0064   -0.0198 H         1 <0>         0.1188
     30 H5         -0.9246   -0.5587    0.0082 H         1 <0>         0.1222
     31 H6          0.9320   -2.9411   -0.0220 H         1 <0>         0.1468
     32 H7          4.7506   -3.2022    0.3724 H         1 <0>         0.0724
     33 H8          3.2664   -4.1709    0.5367 H         1 <0>         0.1007
     34 H9          2.9435   -4.0929   -1.9205 H         1 <0>         0.0819
     35 H10         4.4276   -3.1241   -2.0849 H         1 <0>         0.0312
     36 H11         5.6207   -4.9779   -1.0617 H         1 <0>         0.3429
     37 H12         3.9257   -5.8343   -3.3160 H         1 <0>         0.0851
     38 H13         5.4098   -4.8655   -3.4803 H         1 <0>         0.0421
     39 H14         7.5860   -5.8400   -3.0404 H         1 <0>         0.1238
     40 H15         8.9439   -7.8896   -3.0024 H         1 <0>         0.1300
     41 H16         5.3628  -10.2277   -2.6256 H         1 <0>         0.1288
     42 H17         4.0275   -8.1631   -2.6562 H         1 <0>         0.1288
     43 H18         9.1271  -10.3720   -2.8615 H         1 <0>         0.1392
     44 H19         6.3707  -11.6868   -2.6007 H         1 <0>         0.1349
     45 H20         6.6779  -14.1051   -2.4719 H         1 <0>         0.4097
     46 H21         7.8985  -16.0479   -2.4320 H         1 <0>         0.3890
@<TRIPOS>BOND
     1    1    6 ar
     2    1    2 ar
     3    1   27 1
     4    2    3 ar
     5    2   28 1
     6    3    4 ar
     7    3   29 1
     8    4    9 1
     9    4    5 ar
    10    5    6 ar
    11    5    7 1
    12    6   30 1
    13    7    8 2
    14    7   31 1
    15    8    9 1
    16    8   11 1
    17    9   10 1
    18   11   12 1
    19   11   32 1
    20   11   33 1
    21   12   13 1
    22   12   34 1
    23   12   35 1
    24   13   14 1
    25   13   36 1
    26   14   15 1
    27   14   37 1
    28   14   38 1
    29   15   20 ar
    30   15   16 ar
    31   16   17 ar
    32   16   39 1
    33   17   18 ar
    34   17   40 1
    35   18   19 ar
    36   18   21 1
    37   19   20 ar
    38   19   41 1
    39   20   42 1
    40   21   22 2
    41   21   43 1
    42   22   23 1
    43   22   44 1
    44   23   24 2
    45   23   25 am
    46   25   26 1
    47   25   45 1
    48   26   46 1
@<TRIPOS>MOLECULE
CHEMBL488747
   58    60     0     0     0
SMALL
USER_CHARGES

@<TRIPOS>ATOM
      1 C1          1.9450   -4.4091   -1.2350 C.ar      1 <0>        -0.1017
      2 C2          1.1220   -3.3752   -0.8292 C.ar      1 <0>        -0.1192
      3 C3          1.6719   -2.1830   -0.3966 C.ar      1 <0>        -0.0835
      4 C4          3.0449   -2.0249   -0.3693 C.ar      1 <0>        -0.1114
      5 C5          3.8680   -3.0591   -0.7742 C.ar      1 <0>        -0.0909
      6 C6          3.3180   -4.2507   -1.2082 C.ar      1 <0>        -0.1205
      7 C7          3.6445   -0.7249    0.1013 C.3       1 <0>         0.1536
      8 N1          3.7723   -0.7461    1.5606 N.pl3     1 <0>        -0.2830
      9 C8          4.3994    0.1969    2.3254 C.2       1 <0>         0.0162
     10 C9          4.2732   -0.2299    3.6176 C.2       1 <0>        -0.0281
     11 N2          3.5943   -1.3787    3.5702 N.2       1 <0>        -0.2714
     12 N3          3.3090   -1.6533    2.3473 N.2       1 <0>        -0.0600
     13 C10         5.0757    1.4257    1.8523 C.ar      1 <0>         0.0027
     14 C11         4.8671    1.8822    0.5504 C.ar      1 <0>        -0.1408
     15 C12         5.4990    3.0278    0.1112 C.ar      1 <0>        -0.0893
     16 C13         6.3396    3.7266    0.9575 C.ar      1 <0>        -0.1125
     17 C14         6.5535    3.2798    2.2557 C.ar      1 <0>         0.1570
     18 C15         5.9180    2.1333    2.7077 C.ar      1 <0>        -0.1218
     19 N4          7.4056    3.9901    3.1088 N.am      1 <0>        -0.6781
     20 C16         7.4743    5.3337    3.0268 C.2       1 <0>         0.5135
     21 O1          6.7358    5.9340    2.2750 O.2       1 <0>        -0.5159
     22 C17         8.4689    6.0900    3.8693 C.3       1 <0>        -0.1406
     23 C18         8.3409    7.5884    3.5875 C.3       1 <0>        -0.1054
     24 C19         9.3507    8.3563    4.4428 C.3       1 <0>        -0.1209
     25 C20         9.2226    9.8547    4.1611 C.3       1 <0>        -0.1198
     26 C21        10.2324   10.6226    5.0164 C.3       1 <0>        -0.1063
     27 C22        10.1043   12.1209    4.7346 C.3       1 <0>        -0.1271
     28 C23        11.0989   12.8773    5.5771 C.2       1 <0>         0.5210
     29 O2         11.8375   12.2770    6.3289 O.2       1 <0>        -0.5195
     30 N5         11.1677   14.2208    5.4952 N.am      1 <0>        -0.6001
     31 O3         12.1022   14.9315    6.2867 O.3       1 <0>        -0.3207
     32 H1          1.5154   -5.3421   -1.5687 H         1 <0>         0.1261
     33 H2          0.0493   -3.4988   -0.8505 H         1 <0>         0.1268
     34 H3          1.0289   -1.3751   -0.0803 H         1 <0>         0.1215
     35 H4          4.9407   -2.9354   -0.7533 H         1 <0>         0.1218
     36 H5          3.9610   -5.0586   -1.5249 H         1 <0>         0.1265
     37 H6          4.6291   -0.5951   -0.3478 H         1 <0>         0.1119
     38 H7          2.9983    0.1015   -0.1948 H         1 <0>         0.1097
     39 H8          4.6484    0.2640    4.5017 H         1 <0>         0.1912
     40 H9          4.2114    1.3388   -0.1139 H         1 <0>         0.1270
     41 H10         5.3367    3.3794   -0.8970 H         1 <0>         0.1332
     42 H11         6.8318    4.6223    0.6085 H         1 <0>         0.1380
     43 H12         6.0795    1.7869    3.7178 H         1 <0>         0.1341
     44 H13         7.9467    3.5156    3.7590 H         1 <0>         0.4138
     45 H14         8.2702    5.9004    4.9241 H         1 <0>         0.0986
     46 H15         9.4783    5.7593    3.6245 H         1 <0>         0.0993
     47 H16         8.5396    7.7780    2.5327 H         1 <0>         0.0711
     48 H17         7.3315    7.9191    3.8323 H         1 <0>         0.0714
     49 H18         9.1519    8.1667    5.4977 H         1 <0>         0.0654
     50 H19        10.3600    8.0255    4.1981 H         1 <0>         0.0653
     51 H20         9.4213   10.0443    3.1063 H         1 <0>         0.0653
     52 H21         8.2132   10.1854    4.4058 H         1 <0>         0.0654
     53 H22        10.0336   10.4329    6.0712 H         1 <0>         0.0730
     54 H23        11.2417   10.2918    4.7717 H         1 <0>         0.0729
     55 H24        10.3031   12.3106    3.6798 H         1 <0>         0.0994
     56 H25         9.0950   12.4517    4.9794 H         1 <0>         0.0995
     57 H26        10.5770   14.7009    4.8939 H         1 <0>         0.4082
     58 H27        12.0773   15.8898    6.1595 H         1 <0>         0.3878
@<TRIPOS>BOND
     1    1    6 ar
     2    1    2 ar
     3    1   32 1
     4    2    3 ar
     5    2   33 1
     6    3    4 ar
     7    3   34 1
     8    4    5 ar
     9    4    7 1
    10    5    6 ar
    11    5   35 1
    12    6   36 1
    13    7    8 1
    14    7   37 1
    15    7   38 1
    16    8   12 1
    17    8    9 1
    18    9   10 2
    19    9   13 1
    20   10   11 1
    21   10   39 1
    22   11   12 2
    23   13   18 ar
    24   13   14 ar
    25   14   15 ar
    26   14   40 1
    27   15   16 ar
    28   15   41 1
    29   16   17 ar
    30   16   42 1
    31   17   18 ar
    32   17   19 1
    33   18   43 1
    34   19   20 am
    35   19   44 1
    36   20   21 2
    37   20   22 1
    38   22   23 1
    39   22   45 1
    40   22   46 1
    41   23   24 1
    42   23   47 1
    43   23   48 1
    44   24   25 1
    45   24   49 1
    46   24   50 1
    47   25   26 1
    48   25   51 1
    49   25   52 1
    50   26   27 1
    51   26   53 1
    52   26   54 1
    53   27   28 1
    54   27   55 1
    55   27   56 1
    56   28   29 2
    57   28   30 am
    58   30   31 1
    59   30   57 1
    60   31   58 1
@<TRIPOS>MOLECULE
CHEMBL388195
   66    67     0     0     0
SMALL
USER_CHARGES

@<TRIPOS>ATOM
      1 C1         -0.0184    1.5028    0.0103 C.3       1 <0>        -0.1755
      2 C2          0.0021   -0.0041    0.0020 C.2       1 <0>         0.5041
      3 O1          0.0203   -0.6160    1.0489 O.2       1 <0>        -0.5340
      4 N1          0.0001   -0.6716   -1.1688 N.am      1 <0>        -0.7234
      5 C3          0.0199   -2.1350   -1.1769 C.3       1 <0>         0.1248
      6 H1         -0.5565   -2.5117   -0.3315 H         1 <0>         0.1240
      7 C4         -0.6067   -2.6382   -2.4807 C.3       1 <0>        -0.0771
      8 C5          0.1236   -2.0288   -3.6493 C.ar      1 <0>        -0.0890
      9 C6         -0.4379   -0.9981   -4.3782 C.ar      1 <0>        -0.1166
     10 C7          0.2662   -0.4317   -5.4254 C.ar      1 <0>        -0.1125
     11 C8          1.5387   -0.8798   -5.7315 C.ar      1 <0>        -0.1085
     12 C9          2.0984   -1.9110   -5.0032 C.ar      1 <0>        -0.0922
     13 C10         1.3645   -2.5211   -4.0049 C.ar      1 <0>        -0.1031
     14 C11         3.5233   -2.3409   -5.2434 C.3       1 <0>        -0.0856
     15 C12         4.3978   -1.8518   -4.0819 C.3       1 <0>         0.1606
     16 H2          5.4337   -2.1355   -4.2649 H         1 <0>         0.1160
     17 N2          3.9186   -2.4770   -2.8307 N.am      1 <0>        -0.7186
     18 C13         4.4928   -2.0712   -1.6654 C.2       1 <0>         0.5251
     19 O2          5.5835   -1.5310   -1.6574 O.2       1 <0>        -0.5268
     20 C14         3.7695   -2.2715   -0.3595 C.3       1 <0>         0.1247
     21 H3          4.2699   -1.6182    0.3874 H         1 <0>         0.1127
     22 N3          2.3662   -1.8232   -0.4673 N.am      1 <0>        -0.7020
     23 C15         1.4439   -2.6347   -1.0633 C.2       1 <0>         0.5303
     24 O3          1.7000   -3.7392   -1.4965 O.2       1 <0>        -0.5333
     25 C16         3.9071   -3.7060    0.1337 C.3       1 <0>        -0.1333
     26 C17         3.2665   -3.8332    1.5173 C.3       1 <0>        -0.1115
     27 C18         3.4048   -5.2742    2.0127 C.3       1 <0>        -0.1163
     28 C19         2.7642   -5.4014    3.3963 C.3       1 <0>        -0.1055
     29 C20         2.9024   -6.8423    3.8918 C.3       1 <0>        -0.1260
     30 C21         2.2715   -6.9677    5.2546 C.2       1 <0>         0.5207
     31 O4          1.7614   -5.9998    5.7780 O.2       1 <0>        -0.5176
     32 N4          2.2740   -8.1554    5.8917 N.am      1 <0>        -0.6005
     33 O5          1.6811   -8.2731    7.1722 O.3       1 <0>        -0.3208
     34 C22         4.2936   -0.3503   -3.9889 C.2       1 <0>         0.4594
     35 O6          3.5657    0.1551   -3.1676 O.2       1 <0>        -0.4863
     36 O7          5.0096    0.4248   -4.8186 O.3       1 <0>        -0.3508
     37 C23         4.8619    1.8389   -4.6746 C.3       1 <0>         0.0364
     38 H4          1.0042    1.8801    0.0026 H         1 <0>         0.0968
     39 H5         -0.5455    1.8639   -0.8728 H         1 <0>         0.0815
     40 H6         -0.5286    1.8543    0.9071 H         1 <0>         0.0981
     41 H7         -0.0145   -0.1822   -2.0061 H         1 <0>         0.4087
     42 H8         -0.5319   -3.7233   -2.5270 H         1 <0>         0.1070
     43 H9         -1.6554   -2.3426   -2.5140 H         1 <0>         0.0904
     44 H10        -1.4246   -0.6347   -4.1333 H         1 <0>         0.1239
     45 H11        -0.1788    0.3632   -6.0058 H         1 <0>         0.1234
     46 H12         2.0914   -0.4231   -6.5389 H         1 <0>         0.1209
     47 H13         1.7345   -3.4193   -3.5353 H         1 <0>         0.1353
     48 H14         3.5725   -3.4270   -5.2992 H         1 <0>         0.1011
     49 H15         3.8839   -1.9063   -6.1744 H         1 <0>         0.1027
     50 H16         3.2441   -3.1780   -2.8385 H         1 <0>         0.4225
     51 H17         2.1064   -0.9432   -0.0969 H         1 <0>         0.4150
     52 H18         3.4060   -4.3790   -0.5620 H         1 <0>         0.0987
     53 H19         4.9630   -3.9688    0.1966 H         1 <0>         0.0804
     54 H20         3.7676   -3.1601    2.2130 H         1 <0>         0.0636
     55 H21         2.2105   -3.5704    1.4543 H         1 <0>         0.0660
     56 H22         2.9037   -5.9472    1.3170 H         1 <0>         0.0661
     57 H23         4.4607   -5.5370    2.0757 H         1 <0>         0.0643
     58 H24         3.2653   -4.7283    4.0920 H         1 <0>         0.0726
     59 H25         1.7082   -5.1386    3.3334 H         1 <0>         0.0728
     60 H26         2.4013   -7.5154    3.1961 H         1 <0>         0.0991
     61 H27         3.9584   -7.1052    3.9547 H         1 <0>         0.0990
     62 H28         2.6819   -8.9294    5.4730 H         1 <0>         0.4078
     63 H29         1.7319   -9.1623    7.5489 H         1 <0>         0.3872
     64 H30         5.4936    2.3463   -5.4037 H         1 <0>         0.1032
     65 H31         3.8207    2.1144   -4.8419 H         1 <0>         0.0597
     66 H32         5.1588    2.1345   -3.6683 H         1 <0>         0.0603
@<TRIPOS>BOND
     1    1    2 1
     2    1   38 1
     3    1   39 1
     4    1   40 1
     5    2    3 2
     6    2    4 am
     7    4    5 1
     8    4   41 1
     9    5    6 1
    10    5   23 1
    11    5    7 1
    12    7    8 1
    13    7   42 1
    14    7   43 1
    15    8   13 ar
    16    8    9 ar
    17    9   10 ar
    18    9   44 1
    19   10   11 ar
    20   10   45 1
    21   11   12 ar
    22   11   46 1
    23   12   13 ar
    24   12   14 1
    25   13   47 1
    26   14   15 1
    27   14   48 1
    28   14   49 1
    29   15   16 1
    30   15   17 1
    31   15   34 1
    32   17   18 am
    33   17   50 1
    34   18   19 2
    35   18   20 1
    36   20   21 1
    37   20   22 1
    38   20   25 1
    39   22   23 am
    40   22   51 1
    41   23   24 2
    42   25   26 1
    43   25   52 1
    44   25   53 1
    45   26   27 1
    46   26   54 1
    47   26   55 1
    48   27   28 1
    49   27   56 1
    50   27   57 1
    51   28   29 1
    52   28   58 1
    53   28   59 1
    54   29   30 1
    55   29   60 1
    56   29   61 1
    57   30   31 2
    58   30   32 am
    59   32   33 1
    60   32   62 1
    61   33   63 1
    62   34   35 2
    63   34   36 1
    64   36   37 1
    65   37   64 1
    66   37   65 1
    67   37   66 1
@<TRIPOS>MOLECULE
CHEMBL312206
   84    86     0     0     0
SMALL
USER_CHARGES

@<TRIPOS>ATOM
      1 C1         -0.0187    1.5258    0.0104 C.3       1 <0>        -0.1521
      2 C2          0.0021   -0.0041    0.0020 C.3       1 <0>        -0.1114
      3 C3          0.7421   -0.5109    1.2415 C.3       1 <0>        -0.0974
      4 C4          2.2100   -0.0858    1.1685 C.3       1 <0>        -0.1525
      5 C5          0.6556   -2.0349    1.2985 C.3       1 <0>         0.1247
      6 H1          1.1152   -2.4528    0.3992 H         1 <0>         0.1357
      7 C6          1.3667   -2.5480    2.4918 C.2       1 <0>         0.5735
      8 O1          2.4160   -3.1373    2.2566 O.2       1 <0>        -0.4810
      9 N1          1.0615   -2.4583    3.7767 N.am      1 <0>        -0.6791
     10 C7          1.1507   -1.1892    4.5344 C.3       1 <0>         0.1181
     11 C8          1.3073   -1.5651    6.0112 C.3       1 <0>        -0.1253
     12 C9          0.6469   -2.9416    6.1192 C.3       1 <0>        -0.1131
     13 C10         0.6078   -3.4958    4.7011 C.3       1 <0>         0.1493
     14 H2          1.2670   -4.3698    4.6165 H         1 <0>         0.0861
     15 C11        -0.7927   -3.8982    4.3083 C.2       1 <0>         0.5125
     16 O2         -1.6012   -3.0313    4.0542 O.2       1 <0>        -0.5149
     17 N2         -1.1201   -5.2160    4.2507 N.am      1 <0>        -0.7213
     18 C12        -2.3212   -5.5687    3.4583 C.3       1 <0>         0.1375
     19 H3         -2.3568   -6.6633    3.3421 H         1 <0>         0.1153
     20 C13        -2.1355   -4.9589    2.0899 C.2       1 <0>         0.5064
     21 O3         -1.1395   -5.2738    1.4540 O.2       1 <0>        -0.5123
     22 N3         -3.0320   -4.0719    1.5722 N.am      1 <0>        -0.7120
     23 C14        -2.6835   -3.5388    0.2246 C.3       1 <0>         0.1285
     24 H4         -3.3285   -2.6818   -0.0050 H         1 <0>         0.1152
     25 C15        -1.2435   -3.0923    0.2387 C.2       1 <0>         0.5308
     26 O4         -0.5269   -3.2919   -0.7205 O.2       1 <0>        -0.5172
     27 N4         -0.7678   -2.4438    1.3442 N.am      1 <0>        -0.7211
     28 C16        -2.8926   -4.6163   -0.8448 C.3       1 <0>        -0.0737
     29 C17        -4.3570   -4.9616   -0.9303 C.ar      1 <0>        -0.1181
     30 C18        -4.8763   -5.9678   -0.1369 C.ar      1 <0>        -0.0685
     31 C19        -6.2183   -6.2865   -0.2138 C.ar      1 <0>        -0.1498
     32 C20        -7.0451   -5.5958   -1.0878 C.ar      1 <0>         0.1260
     33 C21        -6.5217   -4.5863   -1.8826 C.ar      1 <0>        -0.2048
     34 C22        -5.1801   -4.2679   -1.7981 C.ar      1 <0>        -0.0742
     35 O5         -8.3655   -5.9078   -1.1656 O.3       1 <0>        -0.3182
     36 C23        -9.1568   -5.1552   -2.0873 C.3       1 <0>         0.0268
     37 C24        -3.5994   -5.1054    4.1400 C.3       1 <0>        -0.1414
     38 C25        -3.7788   -5.8637    5.4567 C.3       1 <0>        -0.1124
     39 C26        -5.0646   -5.3977    6.1426 C.3       1 <0>        -0.1161
     40 C27        -5.2440   -6.1560    7.4593 C.3       1 <0>        -0.1423
     41 C28        -6.5299   -5.6900    8.1451 C.3       1 <0>         0.1325
     42 N5         -6.7016   -6.4161    9.4058 N.am      1 <0>        -0.4798
     43 C29        -5.9447   -6.0986   10.4749 C.2       1 <0>         0.4787
     44 O6         -6.0869   -6.6998   11.5186 O.2       1 <0>        -0.5528
     45 O7         -7.6628   -7.4515    9.5013 O.3       1 <0>        -0.3371
     46 H5          1.0039    1.9031    0.0027 H         1 <0>         0.0577
     47 H6         -0.5459    1.8868   -0.8726 H         1 <0>         0.0552
     48 H7         -0.5289    1.8773    0.9072 H         1 <0>         0.0529
     49 H8         -1.0205   -0.3814    0.0098 H         1 <0>         0.0605
     50 H9          0.5123   -0.3556   -0.8948 H         1 <0>         0.0674
     51 H10         0.2852   -0.0874    2.1360 H         1 <0>         0.0777
     52 H11         2.2717    1.0017    1.1279 H         1 <0>         0.0688
     53 H12         2.7372   -0.4469    2.0516 H         1 <0>         0.0521
     54 H13         2.6669   -0.5093    0.2741 H         1 <0>         0.0636
     55 H14         2.0216   -0.6207    4.2055 H         1 <0>         0.0712
     56 H15         0.2417   -0.6079    4.3982 H         1 <0>         0.0648
     57 H16         2.3635   -1.6312    6.2806 H         1 <0>         0.0786
     58 H17         0.7939   -0.8484    6.6489 H         1 <0>         0.0882
     59 H18         1.2466   -3.5968    6.7557 H         1 <0>         0.0882
     60 H19        -0.3603   -2.8505    6.5211 H         1 <0>         0.0832
     61 H20        -0.6003   -5.9020    4.7183 H         1 <0>         0.4179
     62 H21        -3.8522   -3.7809    2.0126 H         1 <0>         0.4177
     63 H22        -1.3308   -2.2532    2.1110 H         1 <0>         0.4167
     64 H23        -2.5506   -4.2419   -1.8096 H         1 <0>         0.0944
     65 H24        -2.3241   -5.5074   -0.5786 H         1 <0>         0.0884
     66 H25        -4.2323   -6.5052    0.5434 H         1 <0>         0.1221
     67 H26        -6.6234   -7.0730    0.4057 H         1 <0>         0.1297
     68 H27        -7.1633   -4.0472   -2.5638 H         1 <0>         0.1281
     69 H28        -4.7730   -3.4792   -2.4134 H         1 <0>         0.1256
     70 H29       -10.1886   -5.5044   -2.0500 H         1 <0>         0.1010
     71 H30        -9.1206   -4.0992   -1.8194 H         1 <0>         0.0559
     72 H31        -8.7646   -5.2878   -3.0956 H         1 <0>         0.0560
     73 H32        -3.5364   -4.0362    4.3422 H         1 <0>         0.0944
     74 H33        -4.4507   -5.3024    3.4884 H         1 <0>         0.0791
     75 H34        -3.8419   -6.9329    5.2545 H         1 <0>         0.0641
     76 H35        -2.9275   -5.6667    6.1084 H         1 <0>         0.0651
     77 H36        -5.0016   -4.3285    6.3448 H         1 <0>         0.0682
     78 H37        -5.9159   -5.5947    5.4909 H         1 <0>         0.0685
     79 H38        -5.3071   -7.2252    7.2571 H         1 <0>         0.0729
     80 H39        -4.3927   -5.9590    8.1109 H         1 <0>         0.0676
     81 H40        -6.4668   -4.6208    8.3473 H         1 <0>         0.0922
     82 H41        -7.3811   -5.8870    7.4935 H         1 <0>         0.0962
     83 H42        -5.2116   -5.3089   10.4021 H         1 <0>         0.1528
     84 H43        -7.7032   -7.8717   10.3713 H         1 <0>         0.3978
@<TRIPOS>BOND
     1    1    2 1
     2    1   46 1
     3    1   47 1
     4    1   48 1
     5    2    3 1
     6    2   49 1
     7    2   50 1
     8    3    4 1
     9    3    5 1
    10    3   51 1
    11    4   52 1
    12    4   53 1
    13    4   54 1
    14    5    6 1
    15    5   27 1
    16    5    7 1
    17    7    8 2
    18    7    9 am
    19    9   13 1
    20    9   10 1
    21   10   11 1
    22   10   55 1
    23   10   56 1
    24   11   12 1
    25   11   57 1
    26   11   58 1
    27   12   13 1
    28   12   59 1
    29   12   60 1
    30   13   14 1
    31   13   15 1
    32   15   16 2
    33   15   17 am
    34   17   18 1
    35   17   61 1
    36   18   19 1
    37   18   20 1
    38   18   37 1
    39   20   21 2
    40   20   22 am
    41   22   23 1
    42   22   62 1
    43   23   24 1
    44   23   25 1
    45   23   28 1
    46   25   26 2
    47   25   27 am
    48   27   63 1
    49   28   29 1
    50   28   64 1
    51   28   65 1
    52   29   34 ar
    53   29   30 ar
    54   30   31 ar
    55   30   66 1
    56   31   32 ar
    57   31   67 1
    58   32   33 ar
    59   32   35 1
    60   33   34 ar
    61   33   68 1
    62   34   69 1
    63   35   36 1
    64   36   70 1
    65   36   71 1
    66   36   72 1
    67   37   38 1
    68   37   73 1
    69   37   74 1
    70   38   39 1
    71   38   75 1
    72   38   76 1
    73   39   40 1
    74   39   77 1
    75   39   78 1
    76   40   41 1
    77   40   79 1
    78   40   80 1
    79   41   42 1
    80   41   81 1
    81   41   82 1
    82   42   43 am
    83   42   45 1
    84   43   44 2
    85   43   83 1
    86   45   84 1
@<TRIPOS>MOLECULE
CHEMBL312206__1
   84    86     0     0     0
SMALL
USER_CHARGES

@<TRIPOS>ATOM
      1 C1          1.9962    1.6294    1.5394 C.3       1 <0>        -0.1498
      2 C2          2.1330    0.1175    1.3485 C.3       1 <0>        -0.1229
      3 C3          0.7421   -0.5109    1.2415 C.3       1 <0>        -0.0976
      4 C4          0.0495   -0.0041   -0.0251 C.3       1 <0>        -0.1400
      5 C5          0.8739   -2.0313    1.1761 C.3       1 <0>         0.1246
      6 H1          1.5099   -2.2987    0.3283 H         1 <0>         0.1357
      7 C6          1.4812   -2.5508    2.4227 C.2       1 <0>         0.5732
      8 O1          2.6282   -2.9685    2.3059 O.2       1 <0>        -0.4810
      9 N1          0.9916   -2.6218    3.6506 N.am      1 <0>        -0.6791
     10 C7          0.7875   -1.4274    4.5016 C.3       1 <0>         0.1184
     11 C8          0.7923   -1.9127    5.9545 C.3       1 <0>        -0.1253
     12 C9          0.3333   -3.3700    5.8641 C.3       1 <0>        -0.1130
     13 C10         0.5725   -3.7917    4.4202 C.3       1 <0>         0.1493
     14 H2          1.3585   -4.5569    4.3732 H         1 <0>         0.0861
     15 C11        -0.6857   -4.3422    3.7944 C.2       1 <0>         0.5125
     16 O2         -1.5701   -3.5731    3.4845 O.2       1 <0>        -0.5149
     17 N2         -0.8043   -5.6813    3.5946 N.am      1 <0>        -0.7213
     18 C12        -1.8193   -6.1190    2.6081 C.3       1 <0>         0.1374
     19 H3         -1.6768   -7.1930    2.4101 H         1 <0>         0.1153
     20 C13        -1.5383   -5.3665    1.3300 C.2       1 <0>         0.5063
     21 O3         -0.4286   -5.4839    0.8296 O.2       1 <0>        -0.5124
     22 N3         -2.4754   -4.5653    0.7484 N.am      1 <0>        -0.7120
     23 C14        -2.0266   -3.8683   -0.4903 C.3       1 <0>         0.1285
     24 H4         -2.7528   -3.0891   -0.7521 H         1 <0>         0.1152
     25 C15        -0.6839   -3.2342   -0.2289 C.2       1 <0>         0.5310
     26 O4          0.1798   -3.2459   -1.0817 O.2       1 <0>        -0.5172
     27 N4         -0.4662   -2.6316    0.9788 N.am      1 <0>        -0.7209
     28 C16        -1.9250   -4.8613   -1.6530 C.3       1 <0>        -0.0737
     29 C17        -3.2965   -5.3924   -1.9813 C.ar      1 <0>        -0.1181
     30 C18        -3.7666   -6.5283   -1.3484 C.ar      1 <0>        -0.0686
     31 C19        -5.0233   -7.0173   -1.6479 C.ar      1 <0>        -0.1498
     32 C20        -5.8142   -6.3675   -2.5844 C.ar      1 <0>         0.1260
     33 C21        -5.3404   -5.2278   -3.2178 C.ar      1 <0>        -0.2048
     34 C22        -4.0850   -4.7397   -2.9109 C.ar      1 <0>        -0.0742
     35 O5         -7.0507   -6.8470   -2.8812 O.3       1 <0>        -0.3182
     36 C23        -7.8092   -6.1269   -3.8549 C.3       1 <0>         0.0268
     37 C24        -3.2336   -5.8977    3.1220 C.3       1 <0>        -0.1414
     38 C25        -3.4794   -6.7911    4.3395 C.3       1 <0>        -0.1124
     39 C26        -4.9021   -6.5685    4.8565 C.3       1 <0>        -0.1161
     40 C27        -5.1479   -7.4619    6.0740 C.3       1 <0>        -0.1423
     41 C28        -6.5706   -7.2393    6.5910 C.3       1 <0>         0.1325
     42 N5         -6.8060   -8.0947    7.7568 N.am      1 <0>        -0.4798
     43 C29        -6.2591   -7.7773    8.9470 C.2       1 <0>         0.4787
     44 O6         -6.4540   -8.4855    9.9121 O.2       1 <0>        -0.5528
     45 O7         -7.6081   -9.2550    7.6331 O.3       1 <0>        -0.3371
     46 H5          1.4352    1.8312    2.4519 H         1 <0>         0.0536
     47 H6          2.9871    2.0771    1.6156 H         1 <0>         0.0567
     48 H7          1.4689    2.0570    0.6866 H         1 <0>         0.0590
     49 H8          2.6940   -0.0843    0.4361 H         1 <0>         0.0704
     50 H9          2.6602   -0.3101    2.2013 H         1 <0>         0.0597
     51 H10         0.1505   -0.2347    2.1144 H         1 <0>         0.0774
     52 H11        -0.9035   -0.5184   -0.1487 H         1 <0>         0.0534
     53 H12        -0.1249    1.0685    0.0606 H         1 <0>         0.0620
     54 H13         0.6835   -0.2012   -0.8895 H         1 <0>         0.0605
     55 H14         1.6021   -0.7184    4.3483 H         1 <0>         0.0711
     56 H15        -0.1696   -0.9645    4.2726 H         1 <0>         0.0647
     57 H16         1.7993   -1.8597    6.3737 H         1 <0>         0.0786
     58 H17         0.0958   -1.3338    6.5577 H         1 <0>         0.0882
     59 H18         0.9293   -3.9937    6.5348 H         1 <0>         0.0882
     60 H19        -0.7220   -3.4535    6.1160 H         1 <0>         0.0832
     61 H20        -0.2588   -6.3307    4.0846 H         1 <0>         0.4179
     62 H21        -3.3824   -4.4298    1.0806 H         1 <0>         0.4178
     63 H22        -1.1516   -2.5903    1.6643 H         1 <0>         0.4167
     64 H23        -1.5119   -4.3570   -2.5265 H         1 <0>         0.0944
     65 H24        -1.2737   -5.6880   -1.3689 H         1 <0>         0.0884
     66 H25        -3.1505   -7.0338   -0.6194 H         1 <0>         0.1221
     67 H26        -5.3898   -7.9050   -1.1538 H         1 <0>         0.1297
     68 H27        -5.9542   -4.7202   -3.9472 H         1 <0>         0.1281
     69 H28        -3.7175   -3.8500   -3.4004 H         1 <0>         0.1257
     70 H29        -8.7735   -6.6145   -3.9976 H         1 <0>         0.1010
     71 H30        -7.9663   -5.1049   -3.5100 H         1 <0>         0.0559
     72 H31        -7.2663   -6.1120   -4.8000 H         1 <0>         0.0560
     73 H32        -3.3572   -4.8529    3.4071 H         1 <0>         0.0944
     74 H33        -3.9483   -6.1474    2.3379 H         1 <0>         0.0791
     75 H34        -3.3557   -7.8358    4.0544 H         1 <0>         0.0641
     76 H35        -2.7647   -6.5414    5.1237 H         1 <0>         0.0651
     77 H36        -5.0258   -5.5237    5.1416 H         1 <0>         0.0682
     78 H37        -5.6169   -6.8182    4.0724 H         1 <0>         0.0685
     79 H38        -5.0243   -8.5066    5.7889 H         1 <0>         0.0729
     80 H39        -4.4332   -7.2122    6.8581 H         1 <0>         0.0676
     81 H40        -6.6943   -6.1945    6.8761 H         1 <0>         0.0922
     82 H41        -7.2854   -7.4889    5.8069 H         1 <0>         0.0962
     83 H42        -5.6473   -6.8923    9.0413 H         1 <0>         0.1528
     84 H43        -7.7059   -9.7550    8.4550 H         1 <0>         0.3978
@<TRIPOS>BOND
     1    1    2 1
     2    1   46 1
     3    1   47 1
     4    1   48 1
     5    2    3 1
     6    2   49 1
     7    2   50 1
     8    3    4 1
     9    3    5 1
    10    3   51 1
    11    4   52 1
    12    4   53 1
    13    4   54 1
    14    5    6 1
    15    5   27 1
    16    5    7 1
    17    7    8 2
    18    7    9 am
    19    9   13 1
    20    9   10 1
    21   10   11 1
    22   10   55 1
    23   10   56 1
    24   11   12 1
    25   11   57 1
    26   11   58 1
    27   12   13 1
    28   12   59 1
    29   12   60 1
    30   13   14 1
    31   13   15 1
    32   15   16 2
    33   15   17 am
    34   17   18 1
    35   17   61 1
    36   18   19 1
    37   18   20 1
    38   18   37 1
    39   20   21 2
    40   20   22 am
    41   22   23 1
    42   22   62 1
    43   23   24 1
    44   23   25 1
    45   23   28 1
    46   25   26 2
    47   25   27 am
    48   27   63 1
    49   28   29 1
    50   28   64 1
    51   28   65 1
    52   29   34 ar
    53   29   30 ar
    54   30   31 ar
    55   30   66 1
    56   31   32 ar
    57   31   67 1
    58   32   33 ar
    59   32   35 1
    60   33   34 ar
    61   33   68 1
    62   34   69 1
    63   35   36 1
    64   36   70 1
    65   36   71 1
    66   36   72 1
    67   37   38 1
    68   37   73 1
    69   37   74 1
    70   38   39 1
    71   38   75 1
    72   38   76 1
    73   39   40 1
    74   39   77 1
    75   39   78 1
    76   40   41 1
    77   40   79 1
    78   40   80 1
    79   41   42 1
    80   41   81 1
    81   41   82 1
    82   42   43 am
    83   42   45 1
    84   43   44 2
    85   43   83 1
    86   45   84 1
@<TRIPOS>MOLECULE
CHEMBL1099048
   61    64     0     0     0
SMALL
USER_CHARGES

@<TRIPOS>ATOM
      1 C1          0.2118    1.4970   -0.0121 C.3       1 <0>        -0.1015
      2 C2          0.1025   -0.0060   -0.0078 C.2       1 <0>         0.0682
      3 C3         -0.0873   -0.7993   -1.0818 C.2       1 <0>         0.0416
      4 N1         -0.1283   -2.0702   -0.6656 N.pl3     1 <0>        -0.4661
      5 C4          0.0298   -2.1045    0.6388 C.cat     1 <0>         0.3590
      6 N2          0.1830   -0.8249    1.0861 N.pl3     1 <0>        -0.3973
      7 C5          0.3918   -0.4062    2.4744 C.3       1 <0>         0.0853
      8 C6          1.8897   -0.2371    2.7363 C.3       1 <0>        -0.0904
      9 C7          2.1128    0.0740    4.1939 C.ar      1 <0>        -0.1029
     10 C8          2.1186    1.3866    4.6275 C.ar      1 <0>        -0.1099
     11 C9          2.3232    1.6719    5.9645 C.ar      1 <0>        -0.1134
     12 C10         2.5216    0.6447    6.8680 C.ar      1 <0>        -0.1073
     13 C11         2.5149   -0.6680    6.4345 C.ar      1 <0>        -0.1141
     14 C12         2.3060   -0.9535    5.0982 C.ar      1 <0>        -0.1108
     15 C13         0.0443   -3.3228    1.4778 C.ar      1 <0>        -0.0847
     16 C14        -0.5615   -3.3128    2.7364 C.ar      1 <0>        -0.0742
     17 C15        -0.5493   -4.4484    3.5224 C.ar      1 <0>        -0.1021
     18 C16         0.0603   -5.6016    3.0713 C.ar      1 <0>        -0.0609
     19 C17         0.6710   -5.6265    1.8129 C.ar      1 <0>        -0.0516
     20 C18         0.6566   -4.4829    1.0120 C.ar      1 <0>        -0.0567
     21 C19         1.3221   -6.8565    1.3324 C.2       1 <0>        -0.0349
     22 C20         1.3304   -7.9608    2.1052 C.2       1 <0>        -0.1733
     23 C21         1.9780   -9.1841    1.6273 C.2       1 <0>         0.5549
     24 O1          2.5087   -9.2037    0.5323 O.2       1 <0>        -0.5179
     25 N3          1.9863  -10.2883    2.4000 N.am      1 <0>        -0.5890
     26 O2          2.6125  -11.4712    1.9378 O.3       1 <0>        -0.3109
     27 C22        -0.2296   -0.3335   -2.5079 C.3       1 <0>        -0.0153
     28 C23         1.1372   -0.1621   -3.1191 C.ar      1 <0>        -0.1062
     29 C24         1.7889    1.0533   -3.0249 C.ar      1 <0>        -0.1088
     30 C25         3.0426    1.2106   -3.5855 C.ar      1 <0>        -0.1130
     31 C26         3.6448    0.1523   -4.2400 C.ar      1 <0>        -0.1064
     32 C27         2.9935   -1.0634   -4.3334 C.ar      1 <0>        -0.1127
     33 C28         1.7416   -1.2219   -3.7690 C.ar      1 <0>        -0.1141
     34 H1          1.2548    1.7851   -0.1436 H         1 <0>         0.1034
     35 H2         -0.3830    1.9022   -0.8307 H         1 <0>         0.1074
     36 H3         -0.1573    1.8908    0.9349 H         1 <0>         0.0920
     37 H4         -0.1168    0.5420    2.6484 H         1 <0>         0.1258
     38 H5         -0.0114   -1.1635    3.1468 H         1 <0>         0.1231
     39 H6          2.4101   -1.1593    2.4778 H         1 <0>         0.0859
     40 H7          2.2750    0.5806    2.1272 H         1 <0>         0.0898
     41 H8          1.9635    2.1891    3.9216 H         1 <0>         0.1238
     42 H9          2.3284    2.6974    6.3031 H         1 <0>         0.1287
     43 H10         2.6822    0.8676    7.9124 H         1 <0>         0.1285
     44 H11         2.6703   -1.4705    7.1404 H         1 <0>         0.1277
     45 H12         2.2971   -1.9792    4.7602 H         1 <0>         0.1212
     46 H13        -1.0405   -2.4142    3.0962 H         1 <0>         0.1384
     47 H14        -1.0188   -4.4338    4.4949 H         1 <0>         0.1497
     48 H15         0.0662   -6.4861    3.6910 H         1 <0>         0.1467
     49 H16         1.1224   -4.4969    0.0377 H         1 <0>         0.1402
     50 H17         1.7931   -6.8739    0.3606 H         1 <0>         0.1466
     51 H18         0.8594   -7.9434    3.0770 H         1 <0>         0.1387
     52 H19         1.5632  -10.2727    3.2728 H         1 <0>         0.4111
     53 H20         2.5671  -12.2095    2.5608 H         1 <0>         0.3939
     54 H21        -0.7921   -1.0734   -3.0774 H         1 <0>         0.1045
     55 H22        -0.7587    0.6193   -2.5279 H         1 <0>         0.1195
     56 H23         1.3184    1.8802   -2.5136 H         1 <0>         0.1257
     57 H24         3.5515    2.1604   -3.5126 H         1 <0>         0.1293
     58 H25         4.6240    0.2753   -4.6786 H         1 <0>         0.1288
     59 H26         3.4638   -1.8901   -4.8449 H         1 <0>         0.1284
     60 H27         1.2342   -2.1728   -3.8387 H         1 <0>         0.1200
     61 H28        -0.2551   -2.8442   -1.2363 H         1 <0>         0.4589
@<TRIPOS>BOND
     1    1    2 1
     2    1   34 1
     3    1   35 1
     4    1   36 1
     5    2    6 1
     6    2    3 2
     7    3    4 1
     8    3   27 1
     9    4    5 2
    10    4   61 1
    11    5    6 1
    12    5   15 1
    13    6    7 1
    14    7    8 1
    15    7   37 1
    16    7   38 1
    17    8    9 1
    18    8   39 1
    19    8   40 1
    20    9   14 ar
    21    9   10 ar
    22   10   11 ar
    23   10   41 1
    24   11   12 ar
    25   11   42 1
    26   12   13 ar
    27   12   43 1
    28   13   14 ar
    29   13   44 1
    30   14   45 1
    31   15   20 ar
    32   15   16 ar
    33   16   17 ar
    34   16   46 1
    35   17   18 ar
    36   17   47 1
    37   18   19 ar
    38   18   48 1
    39   19   20 ar
    40   19   21 1
    41   20   49 1
    42   21   22 2
    43   21   50 1
    44   22   23 1
    45   22   51 1
    46   23   24 2
    47   23   25 am
    48   25   26 1
    49   25   52 1
    50   26   53 1
    51   27   28 1
    52   27   54 1
    53   27   55 1
    54   28   33 ar
    55   28   29 ar
    56   29   30 ar
    57   29   56 1
    58   30   31 ar
    59   30   57 1
    60   31   32 ar
    61   31   58 1
    62   32   33 ar
    63   32   59 1
    64   33   60 1
@<TRIPOS>MOLECULE
CHEMBL1099048__1
   60    63     0     0     0
SMALL
USER_CHARGES

@<TRIPOS>ATOM
      1 C1         -0.1600    1.4927    0.1431 C.3       1 <0>        -0.0813
      2 C2         -0.0583   -0.0086    0.0595 C.2       1 <0>        -0.0052
      3 C3         -0.2295   -0.7638   -1.0446 C.2       1 <0>         0.0171
      4 N1         -0.0564   -2.0473   -0.7089 N.2       1 <0>        -0.4590
      5 C4          0.2191   -2.1265    0.5738 C.2       1 <0>         0.2376
      6 N2          0.2314   -0.8633    1.0887 N.pl3     1 <0>        -0.4462
      7 C5          0.5011   -0.4920    2.4800 C.3       1 <0>         0.0983
      8 C6         -0.8215   -0.3538    3.2366 C.3       1 <0>        -0.0993
      9 C7         -0.5441    0.0281    4.6677 C.ar      1 <0>        -0.0886
     10 C8         -0.3610   -0.9548    5.6224 C.ar      1 <0>        -0.1156
     11 C9         -0.1065   -0.6045    6.9351 C.ar      1 <0>        -0.1150
     12 C10        -0.0346    0.7288    7.2932 C.ar      1 <0>        -0.1177
     13 C11        -0.2167    1.7117    6.3384 C.ar      1 <0>        -0.1156
     14 C12        -0.4670    1.3613    5.0248 C.ar      1 <0>        -0.1124
     15 C13         0.4767   -3.3721    1.3291 C.ar      1 <0>        -0.0071
     16 C14         0.3337   -3.3902    2.7185 C.ar      1 <0>        -0.1170
     17 C15         0.5740   -4.5514    3.4266 C.ar      1 <0>        -0.1156
     18 C16         0.9566   -5.7026    2.7682 C.ar      1 <0>        -0.0919
     19 C17         1.1039   -5.6995    1.3770 C.ar      1 <0>        -0.0749
     20 C18         0.8566   -4.5298    0.6558 C.ar      1 <0>        -0.0502
     21 C19         1.5129   -6.9273    0.6751 C.2       1 <0>        -0.0011
     22 C20         1.7462   -8.0568    1.3729 C.2       1 <0>        -0.2096
     23 C21         2.1530   -9.2779    0.6748 C.2       1 <0>         0.5604
     24 O1          2.2806   -9.2732   -0.5355 O.2       1 <0>        -0.5228
     25 N3          2.3862  -10.4072    1.3725 N.am      1 <0>        -0.5937
     26 O2          2.7796  -11.5881    0.6974 O.3       1 <0>        -0.3156
     27 C22        -0.5601   -0.2495   -2.4220 C.3       1 <0>         0.0035
     28 C23         0.7158    0.0332   -3.1723 C.ar      1 <0>        -0.0739
     29 C24         1.3021    1.2826   -3.0928 C.ar      1 <0>        -0.1162
     30 C25         2.4725    1.5420   -3.7810 C.ar      1 <0>        -0.1217
     31 C26         3.0570    0.5518   -4.5484 C.ar      1 <0>        -0.1245
     32 C27         2.4712   -0.6978   -4.6272 C.ar      1 <0>        -0.1195
     33 C28         1.3031   -0.9584   -3.9356 C.ar      1 <0>        -0.1056
     34 H1          0.8170    1.9345   -0.0523 H         1 <0>         0.0754
     35 H2         -0.8752    1.8501   -0.5978 H         1 <0>         0.0849
     36 H3         -0.4956    1.7792    1.1397 H         1 <0>         0.0653
     37 H4          1.1099   -1.2641    2.9506 H         1 <0>         0.1036
     38 H5          1.0353    0.4578    2.5056 H         1 <0>         0.0959
     39 H6         -1.4303    0.4183    2.7660 H         1 <0>         0.0851
     40 H7         -1.3557   -1.3036    3.2110 H         1 <0>         0.0841
     41 H8         -0.4172   -1.9964    5.3426 H         1 <0>         0.1217
     42 H9          0.0358   -1.3724    7.6811 H         1 <0>         0.1247
     43 H10         0.1636    1.0024    8.3190 H         1 <0>         0.1238
     44 H11        -0.1608    2.7533    6.6183 H         1 <0>         0.1244
     45 H12        -0.6056    2.1293    4.2782 H         1 <0>         0.1222
     46 H13         0.0346   -2.4934    3.2406 H         1 <0>         0.1346
     47 H14         0.4623   -4.5586    4.5007 H         1 <0>         0.1321
     48 H15         1.1429   -6.6071    3.3280 H         1 <0>         0.1319
     49 H16         0.9642   -4.5219   -0.4188 H         1 <0>         0.1423
     50 H17         1.6262   -6.9231   -0.3990 H         1 <0>         0.1419
     51 H18         1.6329   -8.0610    2.4470 H         1 <0>         0.1351
     52 H19         2.2845  -10.4110    2.3371 H         1 <0>         0.4093
     53 H20         2.9237  -12.3454    1.2811 H         1 <0>         0.3887
     54 H21        -1.1397   -0.9994   -2.9604 H         1 <0>         0.0871
     55 H22        -1.1427    0.6679   -2.3372 H         1 <0>         0.0843
     56 H23         0.8455    2.0562   -2.4932 H         1 <0>         0.1190
     57 H24         2.9302    2.5183   -3.7194 H         1 <0>         0.1196
     58 H25         3.9711    0.7547   -5.0867 H         1 <0>         0.1193
     59 H26         2.9277   -1.4713   -5.2271 H         1 <0>         0.1207
     60 H27         0.8475   -1.9359   -3.9942 H         1 <0>         0.1229
@<TRIPOS>BOND
     1    1    2 1
     2    1   34 1
     3    1   35 1
     4    1   36 1
     5    2    6 1
     6    2    3 2
     7    3    4 1
     8    3   27 1
     9    4    5 2
    10    5    6 1
    11    5   15 1
    12    6    7 1
    13    7    8 1
    14    7   37 1
    15    7   38 1
    16    8    9 1
    17    8   39 1
    18    8   40 1
    19    9   14 ar
    20    9   10 ar
    21   10   11 ar
    22   10   41 1
    23   11   12 ar
    24   11   42 1
    25   12   13 ar
    26   12   43 1
    27   13   14 ar
    28   13   44 1
    29   14   45 1
    30   15   20 ar
    31   15   16 ar
    32   16   17 ar
    33   16   46 1
    34   17   18 ar
    35   17   47 1
    36   18   19 ar
    37   18   48 1
    38   19   20 ar
    39   19   21 1
    40   20   49 1
    41   21   22 2
    42   21   50 1
    43   22   23 1
    44   22   51 1
    45   23   24 2
    46   23   25 am
    47   25   26 1
    48   25   52 1
    49   26   53 1
    50   27   28 1
    51   27   54 1
    52   27   55 1
    53   28   33 ar
    54   28   29 ar
    55   29   30 ar
    56   29   56 1
    57   30   31 ar
    58   30   57 1
    59   31   32 ar
    60   31   58 1
    61   32   33 ar
    62   32   59 1
    63   33   60 1
@<TRIPOS>MOLECULE
CHEMBL149606
   39    40     0     0     0
SMALL
USER_CHARGES

@<TRIPOS>ATOM
      1 C1         -0.0167    1.3819    0.0096 C.ar      1 <0>        -0.0947
      2 C2          1.1651    2.0988    0.0022 C.ar      1 <0>        -0.0947
      3 C3          2.3854    1.4416   -0.0134 C.ar      1 <0>        -0.0442
      4 C4          2.4197    0.0564   -0.0211 C.ar      1 <0>        -0.1420
      5 C5          1.2146   -0.6746   -0.0131 C.ar      1 <0>        -0.1420
      6 C6          0.0021   -0.0041    0.0020 C.ar      1 <0>        -0.0442
      7 C7          1.6061   -2.0999   -0.0250 C.2       1 <0>         0.5743
      8 O1          0.8430   -3.0446   -0.0230 O.2       1 <0>        -0.4595
      9 N1          2.9491   -2.1754   -0.0390 N.am      1 <0>        -0.5766
     10 C8          3.5027   -0.9494   -0.0377 C.2       1 <0>         0.5743
     11 O2          4.6932   -0.7091   -0.0487 O.2       1 <0>        -0.4596
     12 C9          3.7088   -3.4280   -0.0532 C.3       1 <0>         0.1091
     13 C10         3.9587   -3.8565   -1.5006 C.3       1 <0>        -0.1363
     14 C11         4.7522   -5.1646   -1.5154 C.3       1 <0>        -0.1165
     15 C12         5.0020   -5.5931   -2.9628 C.3       1 <0>        -0.1185
     16 C13         5.7955   -6.9012   -2.9777 C.3       1 <0>        -0.1065
     17 C14         6.0454   -7.3297   -4.4250 C.3       1 <0>        -0.1268
     18 C15         6.8268   -8.6181   -4.4397 C.2       1 <0>         0.5211
     19 O3          7.1519   -9.1421   -3.3953 O.2       1 <0>        -0.5187
     20 N2          7.1645   -9.1882   -5.6133 N.am      1 <0>        -0.6002
     21 O4          7.8988  -10.3988   -5.6271 O.3       1 <0>        -0.3205
     22 H1         -0.9613    1.9053    0.0260 H         1 <0>         0.1438
     23 H2          1.1375    3.1784    0.0082 H         1 <0>         0.1438
     24 H3          3.3057    2.0069   -0.0199 H         1 <0>         0.1432
     25 H4         -0.9244   -0.5590    0.0082 H         1 <0>         0.1432
     26 H5          4.6634   -3.2797    0.4518 H         1 <0>         0.0982
     27 H6          3.1415   -4.2029    0.4623 H         1 <0>         0.0982
     28 H7          3.0042   -4.0047   -2.0056 H         1 <0>         0.0701
     29 H8          4.5261   -3.0815   -2.0161 H         1 <0>         0.0701
     30 H9          5.7067   -5.0163   -1.0104 H         1 <0>         0.0695
     31 H10         4.1848   -5.9395   -0.9999 H         1 <0>         0.0695
     32 H11         4.0475   -5.7413   -3.4678 H         1 <0>         0.0652
     33 H12         5.5694   -4.8181   -3.4783 H         1 <0>         0.0652
     34 H13         6.7500   -6.7529   -2.4727 H         1 <0>         0.0740
     35 H14         5.2281   -7.6761   -2.4621 H         1 <0>         0.0740
     36 H15         5.0908   -7.4779   -4.9300 H         1 <0>         0.0993
     37 H16         6.6127   -6.5548   -4.9406 H         1 <0>         0.0993
     38 H17         6.9045   -8.7691   -6.4486 H         1 <0>         0.4081
     39 H18         8.0938  -10.7305   -6.5143 H         1 <0>         0.3877
@<TRIPOS>BOND
     1    1    6 ar
     2    1    2 ar
     3    1   22 1
     4    2    3 ar
     5    2   23 1
     6    3    4 ar
     7    3   24 1
     8    4   10 1
     9    4    5 ar
    10    5    6 ar
    11    5    7 1
    12    6   25 1
    13    7    8 2
    14    7    9 am
    15    9   10 am
    16    9   12 1
    17   10   11 2
    18   12   13 1
    19   12   26 1
    20   12   27 1
    21   13   14 1
    22   13   28 1
    23   13   29 1
    24   14   15 1
    25   14   30 1
    26   14   31 1
    27   15   16 1
    28   15   32 1
    29   15   33 1
    30   16   17 1
    31   16   34 1
    32   16   35 1
    33   17   18 1
    34   17   36 1
    35   17   37 1
    36   18   19 2
    37   18   20 am
    38   20   21 1
    39   20   38 1
    40   21   39 1
@<TRIPOS>MOLECULE
CHEMBL211802
   46    47     0     0     0
SMALL
USER_CHARGES

@<TRIPOS>ATOM
      1 C1         -0.0173    1.4248    0.0099 C.3       1 <0>         0.0265
      2 O1          0.0021   -0.0041    0.0020 O.3       1 <0>        -0.3166
      3 C2          0.6058   -0.6071   -1.0557 C.ar      1 <0>         0.1706
      4 C3          1.1730    0.1616   -2.0625 C.ar      1 <0>        -0.2454
      5 C4          1.7868   -0.4509   -3.1381 C.ar      1 <0>        -0.0186
      6 C5          1.8373   -1.8298   -3.2146 C.ar      1 <0>        -0.1765
      7 C6          1.2717   -2.6026   -2.2106 C.ar      1 <0>         0.1794
      8 C7          0.6605   -1.9903   -1.1270 C.ar      1 <0>        -0.2461
      9 O2          1.3217   -3.9586   -2.2864 O.3       1 <0>        -0.3103
     10 C8          0.7190   -4.6907   -1.2174 C.3       1 <0>         0.0227
     11 C9          2.5068   -2.4946   -4.3897 C.3       1 <0>         0.1690
     12 N1          1.4890   -2.9314   -5.3486 N.am      1 <0>        -0.6030
     13 C10         0.9024   -4.2673   -5.2313 C.3       1 <0>         0.1059
     14 C11        -0.5889   -4.2188   -5.5570 C.3       1 <0>        -0.1167
     15 C12        -0.8131   -3.4971   -6.8598 C.2       1 <0>        -0.0900
     16 C13        -0.0195   -2.4904   -7.2116 C.2       1 <0>        -0.1664
     17 C14         1.0928   -2.1003   -6.3313 C.2       1 <0>         0.5545
     18 O3          1.6542   -1.0337   -6.4931 O.2       1 <0>        -0.5341
     19 C15        -0.2611   -1.7507   -8.5022 C.3       1 <0>        -0.0491
     20 C16        -1.1065   -0.5058   -8.2259 C.3       1 <0>        -0.1196
     21 C17        -1.3481    0.2338   -9.5165 C.2       1 <0>         0.5253
     22 O4         -0.8893   -0.1928  -10.5550 O.2       1 <0>        -0.5187
     23 N2         -2.0741    1.3694   -9.5167 N.am      1 <0>        -0.5996
     24 O5         -2.3011    2.0643  -10.7294 O.3       1 <0>        -0.3199
     25 H1          1.0053    1.8021    0.0021 H         1 <0>         0.0585
     26 H2         -0.5445    1.7859   -0.8732 H         1 <0>         0.0575
     27 H3         -0.5275    1.7763    0.9067 H         1 <0>         0.1021
     28 H4          1.1342    1.2394   -2.0054 H         1 <0>         0.1306
     29 H5          2.2276    0.1490   -3.9206 H         1 <0>         0.1367
     30 H6          0.2237   -2.5901   -0.3423 H         1 <0>         0.1368
     31 H7          1.2083   -4.4317   -0.2784 H         1 <0>         0.0587
     32 H8         -0.3399   -4.4396   -1.1567 H         1 <0>         0.0578
     33 H9          0.8290   -5.7594   -1.4016 H         1 <0>         0.1033
     34 H10         3.1807   -1.7867   -4.8722 H         1 <0>         0.0942
     35 H11         3.0744   -3.3584   -4.0436 H         1 <0>         0.0887
     36 H12         1.4019   -4.9433   -5.9254 H         1 <0>         0.0662
     37 H13         1.0381   -4.6332   -4.2136 H         1 <0>         0.1040
     38 H14        -0.9746   -5.2352   -5.6362 H         1 <0>         0.0957
     39 H15        -1.1161   -3.6959   -4.7591 H         1 <0>         0.0863
     40 H16        -1.6212   -3.7981   -7.5100 H         1 <0>         0.1299
     41 H17         0.6941   -1.4527   -8.9344 H         1 <0>         0.0876
     42 H18        -0.7887   -2.4007   -9.2001 H         1 <0>         0.0843
     43 H19        -2.0617   -0.8038   -7.7937 H         1 <0>         0.0970
     44 H20        -0.5788    0.1442   -7.5280 H         1 <0>         0.1057
     45 H21        -2.4410    1.7106   -8.6862 H         1 <0>         0.4080
     46 H22        -2.8318    2.8665  -10.6296 H         1 <0>         0.3871
@<TRIPOS>BOND
     1    1    2 1
     2    1   25 1
     3    1   26 1
     4    1   27 1
     5    2    3 1
     6    3    8 ar
     7    3    4 ar
     8    4    5 ar
     9    4   28 1
    10    5    6 ar
    11    5   29 1
    12    6    7 ar
    13    6   11 1
    14    7    8 ar
    15    7    9 1
    16    8   30 1
    17    9   10 1
    18   10   31 1
    19   10   32 1
    20   10   33 1
    21   11   12 1
    22   11   34 1
    23   11   35 1
    24   12   17 am
    25   12   13 1
    26   13   14 1
    27   13   36 1
    28   13   37 1
    29   14   15 1
    30   14   38 1
    31   14   39 1
    32   15   16 2
    33   15   40 1
    34   16   17 1
    35   16   19 1
    36   17   18 2
    37   19   20 1
    38   19   41 1
    39   19   42 1
    40   20   21 1
    41   20   43 1
    42   20   44 1
    43   21   22 2
    44   21   23 am
    45   23   24 1
    46   23   45 1
    47   24   46 1
@<TRIPOS>MOLECULE
CHEMBL261831
   42    43     0     0     0
SMALL
USER_CHARGES

@<TRIPOS>ATOM
      1 C1         -0.0167    1.3792    0.0096 C.ar      1 <0>        -0.0985
      2 C2          1.1686    2.0926    0.0021 C.ar      1 <0>        -0.1286
      3 C3          2.3774    1.4274   -0.0129 C.ar      1 <0>        -0.0718
      4 C4          2.4027    0.0332   -0.0206 C.ar      1 <0>        -0.0641
      5 C5          1.2047   -0.6804   -0.0130 C.ar      1 <0>        -0.0876
      6 C6          0.0021   -0.0041    0.0020 C.ar      1 <0>        -0.1242
      7 C7          3.6976   -0.6872   -0.0373 C.2       1 <0>         0.2380
      8 C8          3.7228   -2.0743   -0.0507 C.2       1 <0>        -0.2922
      9 C9          4.9653   -2.7253   -0.0668 C.2       1 <0>         0.5319
     10 O1          5.0274   -3.9441   -0.0794 O.2       1 <0>        -0.5329
     11 N1          6.0905   -1.9805   -0.0687 N.am      1 <0>        -0.6163
     12 H1          6.9581   -2.4143   -0.0801 H         1 <0>         0.4217
     13 C10         6.0108   -0.6207   -0.0551 C.2       1 <0>         0.3780
     14 N2          4.8483   -0.0018   -0.0450 N.2       1 <0>        -0.5390
     15 S1          7.4941    0.3303   -0.0572 S.3       1 <0>        -0.0087
     16 C11         6.9137    2.0488   -0.0363 C.3       1 <0>        -0.0953
     17 C12         8.1172    2.9936   -0.0364 C.3       1 <0>        -0.1096
     18 C13         7.6276    4.4431   -0.0188 C.3       1 <0>        -0.1114
     19 C14         8.8311    5.3879   -0.0189 C.3       1 <0>        -0.1067
     20 C15         8.3415    6.8373   -0.0013 C.3       1 <0>        -0.1267
     21 C16         9.5269    7.7679   -0.0014 C.2       1 <0>         0.5208
     22 O2         10.6524    7.3163   -0.0142 O.2       1 <0>        -0.5186
     23 N3          9.3362    9.1021    0.0128 N.am      1 <0>        -0.6000
     24 O3         10.4500    9.9765    0.0128 O.3       1 <0>        -0.3201
     25 H2         -0.9604    1.9042    0.0260 H         1 <0>         0.1269
     26 H3          1.1477    3.1724    0.0077 H         1 <0>         0.1281
     27 H4          3.3021    1.9854   -0.0191 H         1 <0>         0.1342
     28 H5          1.2181   -1.7603   -0.0189 H         1 <0>         0.1307
     29 H6         -0.9264   -0.5557    0.0079 H         1 <0>         0.1299
     30 H7          2.8039   -2.6417   -0.0485 H         1 <0>         0.1598
     31 H8          6.3039    2.2371   -0.9200 H         1 <0>         0.1030
     32 H9          6.3174    2.2201    0.8599 H         1 <0>         0.1030
     33 H10         8.7270    2.8053    0.8472 H         1 <0>         0.0785
     34 H11         8.7135    2.8224   -0.9326 H         1 <0>         0.0785
     35 H12         7.0178    4.6314   -0.9025 H         1 <0>         0.0705
     36 H13         7.0313    4.6143    0.8774 H         1 <0>         0.0705
     37 H14         9.4409    5.1996    0.8647 H         1 <0>         0.0757
     38 H15         9.4274    5.2166   -0.9151 H         1 <0>         0.0757
     39 H16         7.7317    7.0256   -0.8849 H         1 <0>         0.1003
     40 H17         7.7452    7.0086    0.8949 H         1 <0>         0.1003
     41 H18         8.4360    9.4633    0.0231 H         1 <0>         0.4082
     42 H19        10.2139   10.9141    0.0235 H         1 <0>         0.3881
@<TRIPOS>BOND
     1    1    6 ar
     2    1    2 ar
     3    1   25 1
     4    2    3 ar
     5    2   26 1
     6    3    4 ar
     7    3   27 1
     8    4    5 ar
     9    4    7 1
    10    5    6 ar
    11    5   28 1
    12    6   29 1
    13    7   14 1
    14    7    8 2
    15    8    9 1
    16    8   30 1
    17    9   10 2
    18    9   11 am
    19   11   12 1
    20   11   13 1
    21   13   14 2
    22   13   15 1
    23   15   16 1
    24   16   17 1
    25   16   31 1
    26   16   32 1
    27   17   18 1
    28   17   33 1
    29   17   34 1
    30   18   19 1
    31   18   35 1
    32   18   36 1
    33   19   20 1
    34   19   37 1
    35   19   38 1
    36   20   21 1
    37   20   39 1
    38   20   40 1
    39   21   22 2
    40   21   23 am
    41   23   24 1
    42   23   41 1
    43   24   42 1
@<TRIPOS>MOLECULE
CHEMBL261831__1
   41    42     0     0     0
SMALL
USER_CHARGES

@<TRIPOS>ATOM
      1 C1         -0.0167    1.3791    0.0096 C.ar      1 <0>        -0.1237
      2 C2          1.1686    2.0921    0.0021 C.ar      1 <0>        -0.1309
      3 C3          2.3774    1.4263   -0.0134 C.ar      1 <0>        -0.0829
      4 C4          2.4023    0.0328   -0.0211 C.ar      1 <0>        -0.0255
      5 C5          1.2050   -0.6804   -0.0130 C.ar      1 <0>        -0.1016
      6 C6          0.0021   -0.0041    0.0020 C.ar      1 <0>        -0.1278
      7 C7          3.6984   -0.6884   -0.0382 C.ar      1 <0>         0.2058
      8 C8          3.7317   -2.0820   -0.0518 C.ar      1 <0>        -0.3160
      9 C9          4.9714   -2.7145   -0.0676 C.ar      1 <0>         0.4446
     10 O1          5.0514   -4.0674   -0.0816 O.3       1 <0>        -0.7000
     11 N1          6.0750   -1.9756   -0.0693 N.ar      1 <0>        -0.6108
     12 C10         6.0073   -0.6519   -0.0562 C.ar      1 <0>         0.3375
     13 N2          4.8471   -0.0136   -0.0465 N.ar      1 <0>        -0.5780
     14 S1          7.5007    0.2833   -0.0591 S.3       1 <0>        -0.0621
     15 C11         8.8067   -0.9755   -0.0814 C.3       1 <0>        -0.0939
     16 C12        10.1749   -0.2908   -0.0857 C.3       1 <0>        -0.1022
     17 C13        11.2764   -1.3525   -0.1046 C.3       1 <0>        -0.1138
     18 C14        12.6447   -0.6678   -0.1089 C.3       1 <0>        -0.1044
     19 C15        13.7462   -1.7295   -0.1277 C.3       1 <0>        -0.1268
     20 C16        15.0939   -1.0551   -0.1319 C.2       1 <0>         0.5223
     21 O2         15.1662    0.1555   -0.1210 O.2       1 <0>        -0.5188
     22 N3         16.2188   -1.7973   -0.1479 N.am      1 <0>        -0.6013
     23 O3         17.4851   -1.1636   -0.1519 O.3       1 <0>        -0.3227
     24 H1         -0.9603    1.9042    0.0260 H         1 <0>         0.1168
     25 H2          1.1481    3.1719    0.0081 H         1 <0>         0.1198
     26 H3          3.3022    1.9840   -0.0199 H         1 <0>         0.1346
     27 H4          1.2185   -1.7603   -0.0192 H         1 <0>         0.1271
     28 H5         -0.9264   -0.5557    0.0079 H         1 <0>         0.1202
     29 H6          2.8176   -2.6570   -0.0497 H         1 <0>         0.1179
     30 H7          8.7187   -1.6061    0.8033 H         1 <0>         0.0888
     31 H8          8.7046   -1.5891   -0.9765 H         1 <0>         0.0887
     32 H9         10.2629    0.3398   -0.9705 H         1 <0>         0.0713
     33 H10        10.2770    0.3228    0.8094 H         1 <0>         0.0713
     34 H11        11.1885   -1.9831    0.7802 H         1 <0>         0.0679
     35 H12        11.1744   -1.9661   -0.9996 H         1 <0>         0.0679
     36 H13        12.7327   -0.0373   -0.9936 H         1 <0>         0.0734
     37 H14        12.7467   -0.0542    0.7862 H         1 <0>         0.0734
     38 H15        13.6582   -2.3601    0.7570 H         1 <0>         0.1003
     39 H16        13.6442   -2.3431   -1.0228 H         1 <0>         0.1003
     40 H17        16.1609   -2.7655   -0.1567 H         1 <0>         0.4081
     41 H18        18.2321   -1.7776   -0.1637 H         1 <0>         0.3853
@<TRIPOS>BOND
     1    1    6 ar
     2    1    2 ar
     3    1   24 1
     4    2    3 ar
     5    2   25 1
     6    3    4 ar
     7    3   26 1
     8    4    5 ar
     9    4    7 1
    10    5    6 ar
    11    5   27 1
    12    6   28 1
    13    7   13 ar
    14    7    8 ar
    15    8    9 ar
    16    8   29 1
    17    9   10 1
    18    9   11 ar
    19   11   12 ar
    20   12   13 ar
    21   12   14 1
    22   14   15 1
    23   15   16 1
    24   15   30 1
    25   15   31 1
    26   16   17 1
    27   16   32 1
    28   16   33 1
    29   17   18 1
    30   17   34 1
    31   17   35 1
    32   18   19 1
    33   18   36 1
    34   18   37 1
    35   19   20 1
    36   19   38 1
    37   19   39 1
    38   20   21 2
    39   20   22 am
    40   22   23 1
    41   22   40 1
    42   23   41 1
@<TRIPOS>MOLECULE
CHEMBL261831__2
   42    43     0     0     0
SMALL
USER_CHARGES

@<TRIPOS>ATOM
      1 C1         -0.0167    1.3793    0.0096 C.ar      1 <0>        -0.0971
      2 C2          1.1684    2.0934    0.0021 C.ar      1 <0>        -0.1141
      3 C3          2.3774    1.4291   -0.0130 C.ar      1 <0>        -0.0812
      4 C4          2.4034    0.0337   -0.0208 C.ar      1 <0>        -0.0757
      5 C5          1.2043   -0.6806   -0.0131 C.ar      1 <0>        -0.1021
      6 C6          0.0021   -0.0041    0.0020 C.ar      1 <0>        -0.1141
      7 C7          3.6955   -0.6848   -0.0375 C.2       1 <0>         0.2170
      8 C8          4.8715    0.0063   -0.0454 C.2       1 <0>        -0.2711
      9 C9          6.0875   -0.7167   -0.0615 C.2       1 <0>         0.5153
     10 O1          7.1551   -0.1220   -0.0685 O.2       1 <0>        -0.5084
     11 N1          6.0633   -2.0570   -0.0685 N.2       1 <0>        -0.5855
     12 H1          2.9005   -2.5625   -0.0302 H         1 <0>         0.4233
     13 C10         4.9216   -2.7146   -0.0607 C.2       1 <0>         0.4020
     14 N2          3.7293   -2.0586   -0.0395 N.pl3     1 <0>        -0.5999
     15 S1          4.9388   -4.4765   -0.0704 S.3       1 <0>        -0.0181
     16 C11         6.7030   -4.8981   -0.0902 C.3       1 <0>        -0.0911
     17 C12         6.8637   -6.4196   -0.1001 C.3       1 <0>        -0.1078
     18 C13         8.3518   -6.7751   -0.1168 C.3       1 <0>        -0.1128
     19 C14         8.5125   -8.2966   -0.1266 C.3       1 <0>        -0.1056
     20 C15        10.0005   -8.6522   -0.1434 C.3       1 <0>        -0.1273
     21 C16        10.1588  -10.1508   -0.1531 C.2       1 <0>         0.5215
     22 O2          9.1780  -10.8642   -0.1472 O.2       1 <0>        -0.5195
     23 N3         11.3903  -10.6983   -0.1683 N.am      1 <0>        -0.5999
     24 O3         11.5390  -12.1064   -0.1774 O.3       1 <0>        -0.3205
     25 H2         -0.9605    1.9041    0.0260 H         1 <0>         0.1315
     26 H3          1.1469    3.1732    0.0078 H         1 <0>         0.1347
     27 H4          3.3018    1.9876   -0.0192 H         1 <0>         0.1363
     28 H5          1.2176   -1.7605   -0.0194 H         1 <0>         0.1223
     29 H6         -0.9265   -0.5556    0.0079 H         1 <0>         0.1330
     30 H7          4.8743    1.0863   -0.0400 H         1 <0>         0.1592
     31 H8          7.1670   -4.4779   -0.9826 H         1 <0>         0.1044
     32 H9          7.1847   -4.4876    0.7972 H         1 <0>         0.1044
     33 H10         6.3998   -6.8397    0.7923 H         1 <0>         0.0780
     34 H11         6.3821   -6.8301   -0.9875 H         1 <0>         0.0780
     35 H12         8.8157   -6.3550   -1.0092 H         1 <0>         0.0712
     36 H13         8.8334   -6.3646    0.7707 H         1 <0>         0.0712
     37 H14         8.0485   -8.7168    0.7657 H         1 <0>         0.0753
     38 H15         8.0308   -8.7071   -1.0141 H         1 <0>         0.0753
     39 H16        10.4644   -8.2320   -1.0358 H         1 <0>         0.1007
     40 H17        10.4821   -8.2417    0.7441 H         1 <0>         0.1007
     41 H18        12.1747  -10.1277   -0.1730 H         1 <0>         0.4085
     42 H19        12.4588  -12.4047   -0.1882 H         1 <0>         0.3880
@<TRIPOS>BOND
     1    1    6 ar
     2    1    2 ar
     3    1   25 1
     4    2    3 ar
     5    2   26 1
     6    3    4 ar
     7    3   27 1
     8    4    5 ar
     9    4    7 1
    10    5    6 ar
    11    5   28 1
    12    6   29 1
    13    7    8 2
    14    7   14 1
    15    8    9 1
    16    8   30 1
    17    9   11 1
    18    9   10 2
    19   11   13 2
    20   12   14 1
    21   13   15 1
    22   13   14 1
    23   15   16 1
    24   16   17 1
    25   16   31 1
    26   16   32 1
    27   17   18 1
    28   17   33 1
    29   17   34 1
    30   18   19 1
    31   18   35 1
    32   18   36 1
    33   19   20 1
    34   19   37 1
    35   19   38 1
    36   20   21 1
    37   20   39 1
    38   20   40 1
    39   21   22 2
    40   21   23 am
    41   23   24 1
    42   23   41 1
    43   24   42 1
@<TRIPOS>MOLECULE
CHEMBL310279
   87    89     0     0     0
SMALL
USER_CHARGES

@<TRIPOS>ATOM
      1 C1         -0.0187    1.5258    0.0104 C.3       1 <0>        -0.1521
      2 C2          0.0021   -0.0041    0.0020 C.3       1 <0>        -0.1114
      3 C3         -1.4333   -0.5336    0.0129 C.3       1 <0>        -0.0995
      4 C4         -2.1103   -0.1453    1.3289 C.3       1 <0>        -0.1583
      5 C5         -1.4157   -2.0533   -0.1208 C.3       1 <0>         0.1497
      6 H1         -0.8542   -2.4758    0.7281 H         1 <0>         0.0947
      7 C6         -2.7992   -2.6282   -0.1244 C.2       1 <0>         0.5127
      8 O1         -3.4648   -2.5351   -1.1390 O.2       1 <0>        -0.4859
      9 N1         -3.3970   -3.2140    0.9329 N.am      1 <0>        -0.6187
     10 C7         -3.1524   -2.6858    2.2704 C.3       1 <0>         0.1112
     11 C8         -3.1947   -3.7748    3.3372 C.3       1 <0>        -0.1356
     12 C9         -4.4693   -4.6030    3.1499 C.3       1 <0>        -0.1175
     13 C10        -4.3725   -5.3221    1.8054 C.3       1 <0>        -0.1242
     14 C11        -4.3179   -4.3139    0.6617 C.3       1 <0>         0.1497
     15 H2         -5.3118   -3.9273    0.4532 H         1 <0>         0.0770
     16 C12        -3.8003   -5.0393   -0.5683 C.2       1 <0>         0.5110
     17 O2         -2.9269   -5.8765   -0.4644 O.2       1 <0>        -0.4927
     18 N2         -4.3521   -4.7314   -1.7766 N.am      1 <0>        -0.7059
     19 C13        -3.6577   -5.2938   -2.9682 C.3       1 <0>         0.1370
     20 H3         -3.4858   -6.3614   -2.8213 H         1 <0>         0.1086
     21 C14        -2.3392   -4.5671   -3.0529 C.2       1 <0>         0.5125
     22 O3         -1.5446   -4.7079   -2.1349 O.2       1 <0>        -0.4978
     23 N3         -2.0180   -3.7932   -4.1270 N.am      1 <0>        -0.7231
     24 C15        -0.9488   -2.7808   -3.8655 C.3       1 <0>         0.1422
     25 H4         -0.9843   -2.0187   -4.6583 H         1 <0>         0.1094
     26 C16        -1.3119   -2.1323   -2.5553 C.2       1 <0>         0.5219
     27 O4         -2.1450   -1.2412   -2.6068 O.2       1 <0>        -0.5081
     28 N4         -0.7577   -2.4872   -1.3793 N.am      1 <0>        -0.6980
     29 C17         0.4343   -3.4161   -3.8435 C.3       1 <0>        -0.0957
     30 C18         0.7604   -3.9570   -5.2118 C.ar      1 <0>        -0.1157
     31 C19         0.4166   -5.2553   -5.5406 C.ar      1 <0>        -0.0663
     32 C20         0.7149   -5.7537   -6.7940 C.ar      1 <0>        -0.1506
     33 C21         1.3595   -4.9503   -7.7233 C.ar      1 <0>         0.1259
     34 C22         1.7030   -3.6478   -7.3911 C.ar      1 <0>        -0.2059
     35 C23         1.3979   -3.1525   -6.1381 C.ar      1 <0>        -0.0759
     36 O5          1.6544   -5.4384   -8.9568 O.3       1 <0>        -0.3183
     37 C24         2.3188   -4.5549   -9.8623 C.3       1 <0>         0.0269
     38 C25        -4.5101   -5.0686   -4.2143 C.3       1 <0>        -0.1304
     39 C26        -5.8105   -5.8656   -4.0935 C.3       1 <0>        -0.1155
     40 C27        -6.6649   -5.6399   -5.3425 C.3       1 <0>        -0.1172
     41 C28        -7.9654   -6.4369   -5.2217 C.3       1 <0>        -0.1430
     42 C29        -8.8197   -6.2112   -6.4707 C.3       1 <0>         0.1326
     43 N5        -10.0649   -6.9744   -6.3550 N.am      1 <0>        -0.4797
     44 C30       -11.0441   -6.5459   -5.5340 C.2       1 <0>         0.4789
     45 O6        -12.0749   -7.1777   -5.4382 O.2       1 <0>        -0.5533
     46 O7        -10.2397   -8.1622   -7.1058 O.3       1 <0>        -0.3372
     47 H5          1.0039    1.9031    0.0027 H         1 <0>         0.0539
     48 H6         -0.5459    1.8868   -0.8726 H         1 <0>         0.0545
     49 H7         -0.5289    1.8773    0.9072 H         1 <0>         0.0565
     50 H8          0.5123   -0.3556   -0.8948 H         1 <0>         0.0625
     51 H9          0.5293   -0.3651    0.8851 H         1 <0>         0.0603
     52 H10        -1.9862   -0.1019   -0.8214 H         1 <0>         0.1056
     53 H11        -2.1228    0.9405    1.4244 H         1 <0>         0.0678
     54 H12        -3.1329   -0.5225    1.3366 H         1 <0>         0.0573
     55 H13        -1.5574   -0.5770    2.1631 H         1 <0>         0.0598
     56 H14        -2.1732   -2.2005    2.2968 H         1 <0>         0.0842
     57 H15        -3.9130   -1.9320    2.4992 H         1 <0>         0.0624
     58 H16        -2.3232   -4.4216    3.2408 H         1 <0>         0.0720
     59 H17        -3.2021   -3.3195    4.3279 H         1 <0>         0.0800
     60 H18        -4.5513   -5.3331    3.9532 H         1 <0>         0.0736
     61 H19        -5.3367   -3.9458    3.1554 H         1 <0>         0.0668
     62 H20        -3.4694   -5.9363    1.7918 H         1 <0>         0.0863
     63 H21        -5.2417   -5.9699    1.6779 H         1 <0>         0.0774
     64 H22        -5.1482   -4.1838   -1.8620 H         1 <0>         0.4121
     65 H23        -2.4161   -3.8780   -5.0136 H         1 <0>         0.4136
     66 H24         0.0646   -3.0193   -1.3270 H         1 <0>         0.4120
     67 H25         1.1741   -2.6662   -3.5635 H         1 <0>         0.0828
     68 H26         0.4490   -4.2296   -3.1182 H         1 <0>         0.0959
     69 H27        -0.0852   -5.8803   -4.8168 H         1 <0>         0.1254
     70 H28         0.4468   -6.7681   -7.0501 H         1 <0>         0.1294
     71 H29         2.2049   -3.0204   -8.1128 H         1 <0>         0.1276
     72 H30         1.6611   -2.1372   -5.8805 H         1 <0>         0.1243
     73 H31         2.4946   -5.0683  -10.8077 H         1 <0>         0.1009
     74 H32         1.6965   -3.6770  -10.0359 H         1 <0>         0.0558
     75 H33         3.2723   -4.2455   -9.4342 H         1 <0>         0.0557
     76 H34        -4.7417   -4.0077   -4.3093 H         1 <0>         0.0810
     77 H35        -3.9608   -5.4009   -5.0952 H         1 <0>         0.0819
     78 H36        -5.5790   -6.9265   -3.9985 H         1 <0>         0.0672
     79 H37        -6.3598   -5.5333   -3.2126 H         1 <0>         0.0660
     80 H38        -6.8965   -4.5790   -5.4375 H         1 <0>         0.0691
     81 H39        -6.1156   -5.9722   -6.2234 H         1 <0>         0.0690
     82 H40        -7.7338   -7.4978   -5.1267 H         1 <0>         0.0732
     83 H41        -8.5147   -6.1046   -4.3408 H         1 <0>         0.0684
     84 H42        -9.0513   -5.1504   -6.5657 H         1 <0>         0.0926
     85 H43        -8.2704   -6.5435   -7.3516 H         1 <0>         0.0962
     86 H44       -10.9108   -5.6399   -4.9614 H         1 <0>         0.1532
     87 H45       -11.0923   -8.5956   -6.9633 H         1 <0>         0.3976
@<TRIPOS>BOND
     1    1    2 1
     2    1   47 1
     3    1   48 1
     4    1   49 1
     5    2    3 1
     6    2   50 1
     7    2   51 1
     8    3    4 1
     9    3    5 1
    10    3   52 1
    11    4   53 1
    12    4   54 1
    13    4   55 1
    14    5    6 1
    15    5   28 1
    16    5    7 1
    17    7    8 2
    18    7    9 am
    19    9   14 1
    20    9   10 1
    21   10   11 1
    22   10   56 1
    23   10   57 1
    24   11   12 1
    25   11   58 1
    26   11   59 1
    27   12   13 1
    28   12   60 1
    29   12   61 1
    30   13   14 1
    31   13   62 1
    32   13   63 1
    33   14   15 1
    34   14   16 1
    35   16   17 2
    36   16   18 am
    37   18   19 1
    38   18   64 1
    39   19   20 1
    40   19   21 1
    41   19   38 1
    42   21   22 2
    43   21   23 am
    44   23   24 1
    45   23   65 1
    46   24   25 1
    47   24   26 1
    48   24   29 1
    49   26   27 2
    50   26   28 am
    51   28   66 1
    52   29   30 1
    53   29   67 1
    54   29   68 1
    55   30   35 ar
    56   30   31 ar
    57   31   32 ar
    58   31   69 1
    59   32   33 ar
    60   32   70 1
    61   33   34 ar
    62   33   36 1
    63   34   35 ar
    64   34   71 1
    65   35   72 1
    66   36   37 1
    67   37   73 1
    68   37   74 1
    69   37   75 1
    70   38   39 1
    71   38   76 1
    72   38   77 1
    73   39   40 1
    74   39   78 1
    75   39   79 1
    76   40   41 1
    77   40   80 1
    78   40   81 1
    79   41   42 1
    80   41   82 1
    81   41   83 1
    82   42   43 1
    83   42   84 1
    84   42   85 1
    85   43   44 am
    86   43   46 1
    87   44   45 2
    88   44   86 1
    89   46   87 1
@<TRIPOS>MOLECULE
CHEMBL310279__1
   87    89     0     0     0
SMALL
USER_CHARGES

@<TRIPOS>ATOM
      1 C1         -2.3956    1.5640    0.9701 C.3       1 <0>        -0.1503
      2 C2         -2.2940    0.0465    1.1370 C.3       1 <0>        -0.1279
      3 C3         -1.4333   -0.5336    0.0129 C.3       1 <0>        -0.1001
      4 C4         -0.0004   -0.0147    0.1480 C.3       1 <0>        -0.1410
      5 C5         -1.4336   -2.0564    0.1064 C.3       1 <0>         0.1495
      6 H1         -1.0078   -2.3503    1.0794 H         1 <0>         0.0947
      7 C6         -2.8162   -2.6214   -0.0110 C.2       1 <0>         0.5125
      8 O1         -3.3296   -2.6774   -1.1130 O.2       1 <0>        -0.4855
      9 N1         -3.5710   -3.0426    1.0240 N.am      1 <0>        -0.6190
     10 C7         -3.5049   -2.3230    2.2911 C.3       1 <0>         0.1120
     11 C8         -3.7234   -3.2421    3.4884 C.3       1 <0>        -0.1356
     12 C9         -4.9784   -4.0850    3.2437 C.3       1 <0>        -0.1175
     13 C10        -4.7104   -4.9954    2.0464 C.3       1 <0>        -0.1242
     14 C11        -4.4707   -4.1677    0.7874 C.3       1 <0>         0.1497
     15 H2         -5.4157   -3.8132    0.3847 H         1 <0>         0.0771
     16 C12        -3.8024   -5.0686   -0.2366 C.2       1 <0>         0.5110
     17 O2         -2.9728   -5.8838    0.1122 O.2       1 <0>        -0.4927
     18 N2         -4.1708   -4.9413   -1.5433 N.am      1 <0>        -0.7059
     19 C13        -3.3291   -5.6758   -2.5284 C.3       1 <0>         0.1371
     20 H3         -3.2053   -6.7105   -2.2040 H         1 <0>         0.1086
     21 C14        -1.9947   -4.9736   -2.5288 C.2       1 <0>         0.5125
     22 O3         -1.3410   -4.9794   -1.4960 O.2       1 <0>        -0.4978
     23 N3         -1.5067   -4.3681   -3.6473 N.am      1 <0>        -0.7231
     24 C15        -0.4609   -3.3313   -3.3862 C.3       1 <0>         0.1423
     25 H4         -0.3659   -2.6948   -4.2786 H         1 <0>         0.1095
     26 C16        -0.9894   -2.4951   -2.2502 C.2       1 <0>         0.5217
     27 O4         -1.7853   -1.6189   -2.5500 O.2       1 <0>        -0.5083
     28 N4         -0.6153   -2.6737   -0.9680 N.am      1 <0>        -0.6976
     29 C17         0.8895   -3.9605   -3.0741 C.3       1 <0>        -0.0958
     30 C18         1.3922   -4.6989   -4.2878 C.ar      1 <0>        -0.1157
     31 C19         1.0671   -6.0305   -4.4693 C.ar      1 <0>        -0.0663
     32 C20         1.5270   -6.7097   -5.5808 C.ar      1 <0>        -0.1506
     33 C21         2.3154   -6.0546   -6.5156 C.ar      1 <0>         0.1259
     34 C22         2.6399   -4.7184   -6.3314 C.ar      1 <0>        -0.2059
     35 C23         2.1731   -4.0422   -5.2209 C.ar      1 <0>        -0.0759
     36 O5          2.7695   -6.7207   -7.6096 O.3       1 <0>        -0.3183
     37 C24         3.5761   -5.9829   -8.5300 C.3       1 <0>         0.0269
     38 C25        -3.9915   -5.6350   -3.9029 C.3       1 <0>        -0.1304
     39 C26        -5.3148   -6.4015   -3.8543 C.3       1 <0>        -0.1155
     40 C27        -5.9788   -6.3605   -5.2321 C.3       1 <0>        -0.1172
     41 C28        -7.3021   -7.1270   -5.1835 C.3       1 <0>        -0.1430
     42 C29        -7.9661   -7.0861   -6.5612 C.3       1 <0>         0.1326
     43 N5         -9.2332   -7.8200   -6.5147 N.am      1 <0>        -0.4797
     44 C30       -10.3078   -7.2718   -5.9136 C.2       1 <0>         0.4789
     45 O6        -11.3567   -7.8794   -5.8751 O.2       1 <0>        -0.5533
     46 O7         -9.3288   -9.1053   -7.1011 O.3       1 <0>        -0.3372
     47 H5         -3.0088    1.9773    1.7709 H         1 <0>         0.0553
     48 H6         -1.3984    2.0019    1.0131 H         1 <0>         0.0579
     49 H7         -2.8522    1.7939    0.0073 H         1 <0>         0.0551
     50 H8         -1.8374   -0.1833    2.0997 H         1 <0>         0.0657
     51 H9         -3.2912   -0.3913    1.0940 H         1 <0>         0.0648
     52 H10        -1.8408   -0.2288   -0.9510 H         1 <0>         0.1058
     53 H11         0.6348   -0.5052   -0.5897 H         1 <0>         0.0555
     54 H12         0.0133    1.0623   -0.0195 H         1 <0>         0.0615
     55 H13         0.3717   -0.2315    1.1493 H         1 <0>         0.0538
     56 H14        -2.5278   -1.8420    2.3862 H         1 <0>         0.0831
     57 H15        -4.2718   -1.5413    2.2962 H         1 <0>         0.0628
     58 H16        -2.8629   -3.8986    3.6131 H         1 <0>         0.0722
     59 H17        -3.8595   -2.6451    4.3906 H         1 <0>         0.0801
     60 H18        -5.1905   -4.6880    4.1248 H         1 <0>         0.0737
     61 H19        -5.8218   -3.4316    3.0290 H         1 <0>         0.0669
     62 H20        -3.8294   -5.6076    2.2519 H         1 <0>         0.0863
     63 H21        -5.5682   -5.6523    1.8918 H         1 <0>         0.0775
     64 H22        -4.9335   -4.4099   -1.8208 H         1 <0>         0.4121
     65 H23        -1.7777   -4.5820   -4.5597 H         1 <0>         0.4136
     66 H24         0.1783   -3.1946   -0.7215 H         1 <0>         0.4121
     67 H25         1.6003   -3.1796   -2.8037 H         1 <0>         0.0828
     68 H26         0.7822   -4.6577   -2.2432 H         1 <0>         0.0959
     69 H27         0.4533   -6.5401   -3.7413 H         1 <0>         0.1254
     70 H28         1.2734   -7.7500   -5.7217 H         1 <0>         0.1294
     71 H29         3.2535   -4.2062   -7.0577 H         1 <0>         0.1276
     72 H30         2.4218   -3.0008   -5.0793 H         1 <0>         0.1243
     73 H31         3.8709   -6.6310   -9.3553 H         1 <0>         0.1009
     74 H32         3.0057   -5.1385   -8.9171 H         1 <0>         0.0558
     75 H33         4.4668   -5.6164   -8.0197 H         1 <0>         0.0558
     76 H34        -4.1818   -4.5991   -4.1840 H         1 <0>         0.0810
     77 H35        -3.3317   -6.0956   -4.6381 H         1 <0>         0.0819
     78 H36        -5.1246   -7.4373   -3.5733 H         1 <0>         0.0672
     79 H37        -5.9747   -5.9409   -3.1191 H         1 <0>         0.0660
     80 H38        -6.1691   -5.3247   -5.5131 H         1 <0>         0.0691
     81 H39        -5.3190   -6.8211   -5.9673 H         1 <0>         0.0690
     82 H40        -7.1119   -8.1628   -4.9024 H         1 <0>         0.0732
     83 H41        -7.9620   -6.6664   -4.4483 H         1 <0>         0.0683
     84 H42        -8.1564   -6.0502   -6.8423 H         1 <0>         0.0926
     85 H43        -7.3062   -7.5467   -7.2964 H         1 <0>         0.0962
     86 H44       -10.2348   -6.2915   -5.4663 H         1 <0>         0.1532
     87 H45       -10.2032   -9.5104   -7.0204 H         1 <0>         0.3976
@<TRIPOS>BOND
     1    1    2 1
     2    1   47 1
     3    1   48 1
     4    1   49 1
     5    2    3 1
     6    2   50 1
     7    2   51 1
     8    3    4 1
     9    3    5 1
    10    3   52 1
    11    4   53 1
    12    4   54 1
    13    4   55 1
    14    5    6 1
    15    5   28 1
    16    5    7 1
    17    7    8 2
    18    7    9 am
    19    9   14 1
    20    9   10 1
    21   10   11 1
    22   10   56 1
    23   10   57 1
    24   11   12 1
    25   11   58 1
    26   11   59 1
    27   12   13 1
    28   12   60 1
    29   12   61 1
    30   13   14 1
    31   13   62 1
    32   13   63 1
    33   14   15 1
    34   14   16 1
    35   16   17 2
    36   16   18 am
    37   18   19 1
    38   18   64 1
    39   19   20 1
    40   19   21 1
    41   19   38 1
    42   21   22 2
    43   21   23 am
    44   23   24 1
    45   23   65 1
    46   24   25 1
    47   24   26 1
    48   24   29 1
    49   26   27 2
    50   26   28 am
    51   28   66 1
    52   29   30 1
    53   29   67 1
    54   29   68 1
    55   30   35 ar
    56   30   31 ar
    57   31   32 ar
    58   31   69 1
    59   32   33 ar
    60   32   70 1
    61   33   34 ar
    62   33   36 1
    63   34   35 ar
    64   34   71 1
    65   35   72 1
    66   36   37 1
    67   37   73 1
    68   37   74 1
    69   37   75 1
    70   38   39 1
    71   38   76 1
    72   38   77 1
    73   39   40 1
    74   39   78 1
    75   39   79 1
    76   40   41 1
    77   40   80 1
    78   40   81 1
    79   41   42 1
    80   41   82 1
    81   41   83 1
    82   42   43 1
    83   42   84 1
    84   42   85 1
    85   43   44 am
    86   43   46 1
    87   44   45 2
    88   44   86 1
    89   46   87 1
@<TRIPOS>MOLECULE
CHEMBL143283
   53    55     0     0     0
SMALL
USER_CHARGES

@<TRIPOS>ATOM
      1 C1         -0.0165    1.3620    0.0095 C.ar      1 <0>        -0.1413
      2 C2          1.1697    2.0834    0.0021 C.ar      1 <0>        -0.0964
      3 C3          2.3856    1.4362   -0.0134 C.ar      1 <0>        -0.1267
      4 C4          2.4281    0.0456   -0.0212 C.ar      1 <0>         0.0942
      5 C5          1.2234   -0.6807   -0.0132 C.ar      1 <0>        -0.1030
      6 C6          0.0021   -0.0041    0.0020 C.ar      1 <0>        -0.0773
      7 C7          1.6036   -2.0953   -0.0245 C.2       1 <0>        -0.1853
      8 C8          2.9451   -2.1410   -0.0380 C.2       1 <0>         0.0613
      9 N1          3.4551   -0.8713   -0.0363 N.pl3     1 <0>        -0.5936
     10 H1          4.3995   -0.6501   -0.0442 H         1 <0>         0.4190
     11 C9          0.6664   -3.2754   -0.0210 C.3       1 <0>        -0.0393
     12 C10         0.2361   -3.5891   -1.4554 C.3       1 <0>        -0.1117
     13 C11        -0.7154   -4.7873   -1.4519 C.3       1 <0>        -0.1508
     14 C12        -1.1457   -5.1010   -2.8862 C.3       1 <0>        -0.0109
     15 N2         -2.0593   -6.2514   -2.8829 N.4       1 <0>        -0.5094
     16 C13        -2.4725   -6.5525   -4.2600 C.3       1 <0>         0.0455
     17 C14        -3.4096   -7.7327   -4.2566 C.ar      1 <0>        -0.1624
     18 C15        -2.9018   -9.0154   -4.3675 C.ar      1 <0>        -0.0901
     19 C16        -3.7528  -10.1003   -4.3656 C.ar      1 <0>        -0.0929
     20 C17        -5.1323   -9.9019   -4.2507 C.ar      1 <0>        -0.0289
     21 C18        -5.6376   -8.6029   -4.1386 C.ar      1 <0>        -0.1041
     22 C19        -4.7733   -7.5285   -4.1369 C.ar      1 <0>        -0.0900
     23 C20        -6.0478  -11.0547   -4.2484 C.2       1 <0>        -0.0369
     24 C21        -7.3771  -10.8595   -4.1375 C.2       1 <0>        -0.1735
     25 C22        -8.2877  -12.0061   -4.1351 C.2       1 <0>         0.5538
     26 O1         -7.8446  -13.1353   -4.2332 O.2       1 <0>        -0.5156
     27 N3         -9.6167  -11.8110   -4.0242 N.am      1 <0>        -0.5901
     28 O2        -10.4973  -12.9198   -4.0219 O.3       1 <0>        -0.3108
     29 H2         -0.9613    1.8849    0.0259 H         1 <0>         0.1238
     30 H3          1.1388    3.1630    0.0081 H         1 <0>         0.1282
     31 H4          3.3028    2.0064   -0.0198 H         1 <0>         0.1223
     32 H5         -0.9246   -0.5587    0.0082 H         1 <0>         0.1174
     33 H6          3.5346   -3.0459   -0.0490 H         1 <0>         0.1686
     34 H7          1.1742   -4.1414    0.4036 H         1 <0>         0.0715
     35 H8         -0.2127   -3.0396    0.5787 H         1 <0>         0.0724
     36 H9         -0.2717   -2.7231   -1.8800 H         1 <0>         0.0748
     37 H10         1.1152   -3.8250   -2.0551 H         1 <0>         0.0732
     38 H11        -0.2076   -5.6533   -1.0273 H         1 <0>         0.0875
     39 H12        -1.5945   -4.5514   -0.8522 H         1 <0>         0.0877
     40 H13        -1.6536   -4.2350   -3.3108 H         1 <0>         0.1323
     41 H14        -0.2667   -5.3368   -3.4860 H         1 <0>         0.1320
     42 H15        -1.5892   -7.0530   -2.4898 H         1 <0>         0.4276
     43 H16        -2.9803   -5.6865   -4.6846 H         1 <0>         0.1386
     44 H17        -1.5934   -6.7884   -4.8598 H         1 <0>         0.1387
     45 H18        -1.8361   -9.1669   -4.4561 H         1 <0>         0.1364
     46 H19        -3.3551  -11.1006   -4.4529 H         1 <0>         0.1432
     47 H20        -6.7019   -8.4417   -4.0500 H         1 <0>         0.1401
     48 H21        -5.1617   -6.5249   -4.0460 H         1 <0>         0.1357
     49 H22        -5.6545  -12.0567   -4.3355 H         1 <0>         0.1476
     50 H23        -7.7703   -9.8574   -4.0504 H         1 <0>         0.1370
     51 H24        -9.9699  -10.9110   -3.9460 H         1 <0>         0.4101
     52 H25       -11.4305  -12.6807   -3.9382 H         1 <0>         0.3932
     53 H26        -2.8730   -6.0330   -2.3277 H         1 <0>         0.4274
@<TRIPOS>BOND
     1    1    6 ar
     2    1    2 ar
     3    1   29 1
     4    2    3 ar
     5    2   30 1
     6    3    4 ar
     7    3   31 1
     8    4    9 1
     9    4    5 ar
    10    5    6 ar
    11    5    7 1
    12    6   32 1
    13    7    8 2
    14    7   11 1
    15    8    9 1
    16    8   33 1
    17    9   10 1
    18   11   12 1
    19   11   34 1
    20   11   35 1
    21   12   13 1
    22   12   36 1
    23   12   37 1
    24   13   14 1
    25   13   38 1
    26   13   39 1
    27   14   15 1
    28   14   40 1
    29   14   41 1
    30   15   16 1
    31   15   42 1
    32   15   53 1
    33   16   17 1
    34   16   43 1
    35   16   44 1
    36   17   22 ar
    37   17   18 ar
    38   18   19 ar
    39   18   45 1
    40   19   20 ar
    41   19   46 1
    42   20   21 ar
    43   20   23 1
    44   21   22 ar
    45   21   47 1
    46   22   48 1
    47   23   24 2
    48   23   49 1
    49   24   25 1
    50   24   50 1
    51   25   26 2
    52   25   27 am
    53   27   28 1
    54   27   51 1
    55   28   52 1
@<TRIPOS>MOLECULE
CHEMBL329977
   79    81     0     0     0
SMALL
USER_CHARGES

@<TRIPOS>ATOM
      1 C1         -0.0187    1.5258    0.0104 C.3       1 <0>        -0.1449
      2 C2          0.0021   -0.0041    0.0020 C.3       1 <0>        -0.1116
      3 C3          0.7182   -0.4975   -1.2568 C.3       1 <0>        -0.1452
      4 C4          0.7421   -0.5109    1.2415 C.3       1 <0>        -0.0928
      5 C5         -0.0416   -0.1236    2.4973 C.3       1 <0>        -0.1156
      6 H1         -0.2285    0.9502    2.5081 H         1 <0>         0.1119
      7 C6          0.7321   -0.5405    3.7554 C.3       1 <0>        -0.0976
      8 H2          1.5929   -1.1520    3.4860 H         1 <0>         0.0890
      9 C7          1.1691    0.6886    4.5516 C.3       1 <0>        -0.1091
     10 C8          1.0962    0.3858    6.0486 C.3       1 <0>        -0.1286
     11 C9          1.9826   -0.8173    6.3765 C.3       1 <0>        -0.1257
     12 C10         1.8440   -1.1587    7.8618 C.3       1 <0>        -0.1808
     13 C11         2.7559   -2.3378    8.2050 C.3       1 <0>         0.0644
     14 O1          1.9946   -3.5481    8.1952 O.3       1 <0>        -0.3360
     15 C12         1.0011   -3.6354    7.2714 C.ar      1 <0>         0.1042
     16 C13        -0.2150   -3.0076    7.4985 C.ar      1 <0>        -0.1317
     17 C14        -1.2177   -3.0839    6.5517 C.ar      1 <0>        -0.1121
     18 C15        -1.0106   -3.7860    5.3785 C.ar      1 <0>        -0.0901
     19 C16         0.1943   -4.4267    5.1573 C.ar      1 <0>        -0.1036
     20 C17         1.2007   -4.3530    6.1011 C.ar      1 <0>        -0.1326
     21 C18        -2.0977   -3.8404    4.3365 C.3       1 <0>        -0.0887
     22 C19        -2.5916   -2.4205    4.0460 C.3       1 <0>         0.1377
     23 H3         -3.2955   -2.4434    3.2141 H         1 <0>         0.1273
     24 N1         -1.4499   -1.5715    3.6971 N.am      1 <0>        -0.5897
     25 C20        -0.2794   -1.3733    4.5591 C.3       1 <0>         0.0706
     26 C21        -1.3415   -0.8786    2.5527 C.2       1 <0>         0.5264
     27 O2         -2.1811   -0.8635    1.6777 O.2       1 <0>        -0.5292
     28 C22        -3.2761   -1.8662    5.2688 C.2       1 <0>         0.5084
     29 O3         -2.8534   -0.8592    5.7962 O.2       1 <0>        -0.5235
     30 N2         -4.3580   -2.4894    5.7762 N.am      1 <0>        -0.7314
     31 C23        -5.0234   -1.9505    6.9649 C.3       1 <0>         0.1186
     32 C24        -6.2138   -2.8395    7.3301 C.3       1 <0>        -0.1328
     33 C25        -6.9088   -2.2767    8.5715 C.3       1 <0>        -0.1162
     34 C26        -8.0993   -3.1657    8.9367 C.3       1 <0>        -0.1054
     35 C27        -8.7942   -2.6029   10.1782 C.3       1 <0>        -0.1272
     36 C28        -9.9668   -3.4786   10.5379 C.2       1 <0>         0.5212
     37 O4        -10.2215   -4.4565    9.8673 O.2       1 <0>        -0.5190
     38 N3        -10.7323   -3.1749   11.6047 N.am      1 <0>        -0.5999
     39 O5        -11.8341   -3.9977   11.9427 O.3       1 <0>        -0.3203
     40 H4          1.0039    1.9031    0.0027 H         1 <0>         0.0511
     41 H5         -0.5459    1.8868   -0.8726 H         1 <0>         0.0532
     42 H6         -0.5289    1.8773    0.9072 H         1 <0>         0.0525
     43 H7         -1.0205   -0.3814    0.0098 H         1 <0>         0.0951
     44 H8          1.7408   -0.1202   -1.2645 H         1 <0>         0.0514
     45 H9          0.7330   -1.5874   -1.2628 H         1 <0>         0.0514
     46 H10         0.1910   -0.1364   -2.1398 H         1 <0>         0.0541
     47 H11         0.8346   -1.5958    1.1912 H         1 <0>         0.0633
     48 H12         1.7350   -0.0630    1.2804 H         1 <0>         0.0729
     49 H13         2.1931    0.9490    4.2837 H         1 <0>         0.0694
     50 H14         0.5102    1.5249    4.3182 H         1 <0>         0.0675
     51 H15         1.4405    1.2537    6.6112 H         1 <0>         0.0648
     52 H16         0.0654    0.1622    6.3235 H         1 <0>         0.0761
     53 H17         1.6719   -1.6724    5.7762 H         1 <0>         0.0692
     54 H18         3.0218   -0.5748    6.1544 H         1 <0>         0.0639
     55 H19         2.1283   -0.2937    8.4610 H         1 <0>         0.0760
     56 H20         0.8094   -1.4252    8.0779 H         1 <0>         0.0917
     57 H21         3.5554   -2.4055    7.4672 H         1 <0>         0.0611
     58 H22         3.1869   -2.1876    9.1949 H         1 <0>         0.0953
     59 H23        -0.3776   -2.4599    8.4150 H         1 <0>         0.1301
     60 H24        -2.1645   -2.5952    6.7279 H         1 <0>         0.1351
     61 H25         0.3489   -4.9856    4.2462 H         1 <0>         0.1288
     62 H26         2.1417   -4.8539    5.9280 H         1 <0>         0.1302
     63 H27        -1.7031   -4.2827    3.4218 H         1 <0>         0.0940
     64 H28        -2.9258   -4.4452    4.7060 H         1 <0>         0.0957
     65 H29         0.1567   -2.3375    4.8204 H         1 <0>         0.0948
     66 H30        -0.5687   -0.8367    5.4626 H         1 <0>         0.1040
     67 H31        -4.6960   -3.2948    5.3544 H         1 <0>         0.4026
     68 H32        -4.3190   -1.9270    7.7964 H         1 <0>         0.0686
     69 H33        -5.3748   -0.9397    6.7577 H         1 <0>         0.0696
     70 H34        -6.9183   -2.8631    6.4987 H         1 <0>         0.0729
     71 H35        -5.8624   -3.8503    7.5373 H         1 <0>         0.0730
     72 H36        -6.2044   -2.2532    9.4030 H         1 <0>         0.0686
     73 H37        -7.2602   -1.2659    8.3643 H         1 <0>         0.0686
     74 H38        -8.8037   -3.1893    8.1053 H         1 <0>         0.0743
     75 H39        -7.7478   -4.1765    9.1439 H         1 <0>         0.0744
     76 H40        -8.0898   -2.5793   11.0096 H         1 <0>         0.1000
     77 H41        -9.1456   -1.5921    9.9710 H         1 <0>         0.1000
     78 H42       -10.5286   -2.3928   12.1410 H         1 <0>         0.4083
     79 H43       -12.3227   -3.7001   12.7223 H         1 <0>         0.3881
@<TRIPOS>BOND
     1    1    2 1
     2    1   40 1
     3    1   41 1
     4    1   42 1
     5    2    3 1
     6    2    4 1
     7    2   43 1
     8    3   44 1
     9    3   45 1
    10    3   46 1
    11    4    5 1
    12    4   47 1
    13    4   48 1
    14    5    6 1
    15    5   26 1
    16    5    7 1
    17    7    8 1
    18    7   25 1
    19    7    9 1
    20    9   10 1
    21    9   49 1
    22    9   50 1
    23   10   11 1
    24   10   51 1
    25   10   52 1
    26   11   12 1
    27   11   53 1
    28   11   54 1
    29   12   13 1
    30   12   55 1
    31   12   56 1
    32   13   14 1
    33   13   57 1
    34   13   58 1
    35   14   15 1
    36   15   20 ar
    37   15   16 ar
    38   16   17 ar
    39   16   59 1
    40   17   18 ar
    41   17   60 1
    42   18   19 ar
    43   18   21 1
    44   19   20 ar
    45   19   61 1
    46   20   62 1
    47   21   22 1
    48   21   63 1
    49   21   64 1
    50   22   23 1
    51   22   24 1
    52   22   28 1
    53   24   25 1
    54   24   26 am
    55   25   65 1
    56   25   66 1
    57   26   27 2
    58   28   29 2
    59   28   30 am
    60   30   31 1
    61   30   67 1
    62   31   32 1
    63   31   68 1
    64   31   69 1
    65   32   33 1
    66   32   70 1
    67   32   71 1
    68   33   34 1
    69   33   72 1
    70   33   73 1
    71   34   35 1
    72   34   74 1
    73   34   75 1
    74   35   36 1
    75   35   76 1
    76   35   77 1
    77   36   37 2
    78   36   38 am
    79   38   39 1
    80   38   78 1
    81   39   79 1
@<TRIPOS>MOLECULE
CHEMBL198140
   41    43     0     0     0
SMALL
USER_CHARGES

@<TRIPOS>ATOM
      1 C1         -0.0167    1.3781    0.0096 C.ar      1 <0>        -0.1193
      2 C2          1.1709    2.0855    0.0021 C.ar      1 <0>        -0.1179
      3 C3          2.3773    1.4107   -0.0130 C.ar      1 <0>        -0.1124
      4 C4          2.3960    0.0285   -0.0201 C.ar      1 <0>        -0.0866
      5 C5          1.2084   -0.6789   -0.0117 C.ar      1 <0>        -0.1126
      6 C6          0.0021   -0.0041    0.0020 C.ar      1 <0>        -0.1180
      7 C7          3.7112   -0.7071   -0.0376 C.3       1 <0>        -0.0960
      8 C8          4.1714   -0.9633    1.3989 C.3       1 <0>         0.1166
      9 N1          5.4498   -1.6784    1.3820 N.am      1 <0>        -0.5759
     10 C9          5.5720   -3.0178    1.3682 C.2       1 <0>         0.5736
     11 O1          4.6543   -3.8132    1.3672 O.2       1 <0>        -0.4555
     12 C10         7.0106   -3.3600    1.3535 C.ar      1 <0>        -0.1299
     13 C11         7.7186   -4.5529    1.3365 C.ar      1 <0>        -0.0425
     14 C12         9.1009   -4.5348    1.3257 C.ar      1 <0>        -0.0797
     15 C13         9.7901   -3.3189    1.3324 C.ar      1 <0>        -0.0490
     16 C14         9.0818   -2.1098    1.3495 C.ar      1 <0>        -0.0194
     17 C15         7.6992   -2.1285    1.3598 C.ar      1 <0>        -0.1388
     18 C16         6.6552   -1.0816    1.3723 C.2       1 <0>         0.5751
     19 O2          6.8529    0.1167    1.3762 O.2       1 <0>        -0.4541
     20 C17        11.2624   -3.3082    1.3218 C.2       1 <0>        -0.0166
     21 C18        11.9445   -4.4703    1.3057 C.2       1 <0>        -0.1896
     22 C19        13.4105   -4.4598    1.2952 C.2       1 <0>         0.5583
     23 O3         14.0113   -3.4017    1.3009 O.2       1 <0>        -0.5191
     24 N2         14.0927   -5.6220    1.2791 N.am      1 <0>        -0.5918
     25 O4         15.5086   -5.6118    1.2689 O.3       1 <0>        -0.3139
     26 H1         -0.9591    1.9053    0.0259 H         1 <0>         0.1227
     27 H2          1.1563    3.1654    0.0076 H         1 <0>         0.1237
     28 H3          3.3051    1.9634   -0.0196 H         1 <0>         0.1236
     29 H4          1.2231   -1.7588   -0.0176 H         1 <0>         0.1234
     30 H5         -0.9258   -0.5567    0.0082 H         1 <0>         0.1236
     31 H6          3.5884   -1.6586   -0.5549 H         1 <0>         0.0805
     32 H7          4.4573   -0.1052   -0.5563 H         1 <0>         0.0807
     33 H8          4.2941   -0.0118    1.9163 H         1 <0>         0.1008
     34 H9          3.4252   -1.5652    1.9176 H         1 <0>         0.1006
     35 H10         7.1904   -5.4949    1.3321 H         1 <0>         0.1487
     36 H11         9.6507   -5.4643    1.3125 H         1 <0>         0.1483
     37 H12         9.6125   -1.1692    1.3547 H         1 <0>         0.1510
     38 H13        11.7957   -2.3691    1.3269 H         1 <0>         0.1480
     39 H14        11.4112   -5.4094    1.3006 H         1 <0>         0.1384
     40 H15        13.6137   -6.4655    1.2745 H         1 <0>         0.4104
     41 H16        15.9082   -6.4923    1.2576 H         1 <0>         0.3904
@<TRIPOS>BOND
     1    1    6 ar
     2    1    2 ar
     3    1   26 1
     4    2    3 ar
     5    2   27 1
     6    3    4 ar
     7    3   28 1
     8    4    5 ar
     9    4    7 1
    10    5    6 ar
    11    5   29 1
    12    6   30 1
    13    7    8 1
    14    7   31 1
    15    7   32 1
    16    8    9 1
    17    8   33 1
    18    8   34 1
    19    9   18 am
    20    9   10 am
    21   10   11 2
    22   10   12 1
    23   12   17 ar
    24   12   13 ar
    25   13   14 ar
    26   13   35 1
    27   14   15 ar
    28   14   36 1
    29   15   16 ar
    30   15   20 1
    31   16   17 ar
    32   16   37 1
    33   17   18 1
    34   18   19 2
    35   20   21 2
    36   20   38 1
    37   21   22 1
    38   21   39 1
    39   22   23 2
    40   22   24 am
    41   24   25 1
    42   24   40 1
    43   25   41 1
@<TRIPOS>MOLECULE
CHEMBL147655
   44    46     0     0     0
SMALL
USER_CHARGES

@<TRIPOS>ATOM
      1 C1         -0.0168    1.3849    0.0097 C.ar      1 <0>        -0.0860
      2 C2          1.1245    2.1321    0.0028 C.ar      1 <0>        -0.1167
      3 C3          2.3654    1.4733   -0.0121 C.ar      1 <0>        -0.0254
      4 C4          3.5961    2.1509   -0.0187 C.ar      1 <0>        -0.0493
      5 C5          4.7600    1.4402   -0.0335 C.ar      1 <0>        -0.1367
      6 C6          4.7578    0.0397   -0.0423 C.ar      1 <0>         0.0483
      7 C7          3.5900   -0.6290   -0.0358 C.ar      1 <0>        -0.6431
      8 C8          2.3739    0.0629   -0.0203 C.ar      1 <0>        -0.0805
      9 C9          1.2088   -0.7014   -0.0127 C.ar      1 <0>         0.1386
     10 C10         0.0021   -0.0041    0.0020 C.ar      1 <0>        -0.1151
     11 N1          1.3991   -2.0931   -0.0222 N.pl3     1 <0>        -0.9170
     12 S1          3.0607   -2.3181   -0.0405 S.o2      1 <0>         2.6699
     13 O1          3.4091   -2.8783   -1.2991 O.2       1 <0>        -0.9340
     14 O2          3.4337   -2.8930    1.2044 O.2       1 <0>        -0.9357
     15 C11         0.3639   -3.1298   -0.0174 C.3       1 <0>         0.1425
     16 C12        -0.0998   -3.3940   -1.4513 C.3       1 <0>        -0.1481
     17 C13        -1.1809   -4.4766   -1.4464 C.3       1 <0>        -0.1188
     18 C14        -1.6446   -4.7408   -2.8803 C.3       1 <0>        -0.1194
     19 C15        -2.7257   -5.8235   -2.8753 C.3       1 <0>        -0.1065
     20 C16        -3.1894   -6.0877   -4.3092 C.3       1 <0>        -0.1270
     21 C17        -4.2543   -7.1540   -4.3044 C.2       1 <0>         0.5211
     22 O3         -4.6075   -7.6535   -3.2571 O.2       1 <0>        -0.5191
     23 N2         -4.8141   -7.5527   -5.4637 N.am      1 <0>        -0.6001
     24 O4         -5.8147   -8.5546   -5.4592 O.3       1 <0>        -0.3206
     25 H1         -0.9702    1.8920    0.0261 H         1 <0>         0.1339
     26 H2          1.0751    3.2109    0.0083 H         1 <0>         0.1385
     27 H3          3.6203    3.2306   -0.0125 H         1 <0>         0.1426
     28 H4          5.7023    1.9680   -0.0390 H         1 <0>         0.1412
     29 H5          5.6916   -0.5027   -0.0547 H         1 <0>         0.1407
     30 H6         -0.9296   -0.5502    0.0082 H         1 <0>         0.1349
     31 H7          0.7705   -4.0473    0.4079 H         1 <0>         0.0922
     32 H8         -0.4825   -2.7952    0.5823 H         1 <0>         0.0929
     33 H9         -0.5064   -2.4764   -1.8766 H         1 <0>         0.0737
     34 H10         0.7467   -3.7285   -2.0511 H         1 <0>         0.0765
     35 H11        -0.7743   -5.3942   -1.0211 H         1 <0>         0.0690
     36 H12        -2.0273   -4.1421   -0.8466 H         1 <0>         0.0687
     37 H13        -2.0512   -3.8233   -3.3056 H         1 <0>         0.0654
     38 H14        -0.7982   -5.0754   -3.4800 H         1 <0>         0.0667
     39 H15        -2.3191   -6.7410   -2.4500 H         1 <0>         0.0739
     40 H16        -3.5722   -5.4889   -2.2756 H         1 <0>         0.0734
     41 H17        -3.5960   -5.1701   -4.7345 H         1 <0>         0.0992
     42 H18        -2.3430   -6.4222   -4.9090 H         1 <0>         0.0997
     43 H19        -4.5316   -7.1532   -6.3013 H         1 <0>         0.4081
     44 H20        -6.1559   -8.7737   -6.3370 H         1 <0>         0.3877
@<TRIPOS>BOND
     1    1   10 ar
     2    1    2 ar
     3    1   25 1
     4    2    3 ar
     5    2   26 1
     6    3    8 ar
     7    3    4 ar
     8    4    5 ar
     9    4   27 1
    10    5    6 ar
    11    5   28 1
    12    6    7 ar
    13    6   29 1
    14    7   12 1
    15    7    8 ar
    16    8    9 ar
    17    9   10 ar
    18    9   11 1
    19   10   30 1
    20   11   12 1
    21   11   15 1
    22   12   13 2
    23   12   14 2
    24   15   16 1
    25   15   31 1
    26   15   32 1
    27   16   17 1
    28   16   33 1
    29   16   34 1
    30   17   18 1
    31   17   35 1
    32   17   36 1
    33   18   19 1
    34   18   37 1
    35   18   38 1
    36   19   20 1
    37   19   39 1
    38   19   40 1
    39   20   21 1
    40   20   41 1
    41   20   42 1
    42   21   22 2
    43   21   23 am
    44   23   24 1
    45   23   43 1
    46   24   44 1
@<TRIPOS>MOLECULE
CHEMBL424189
   83    87     0     0     0
SMALL
USER_CHARGES

@<TRIPOS>ATOM
      1 C1          2.5053   -4.1456   -2.2285 C.ar      1 <0>        -0.1206
      2 C2          1.5854   -3.3490   -1.5726 C.ar      1 <0>        -0.1194
      3 C3          2.0030   -2.2033   -0.9216 C.ar      1 <0>        -0.1154
      4 C4          3.3406   -1.8545   -0.9261 C.ar      1 <0>        -0.0924
      5 C5          4.2607   -2.6515   -1.5812 C.ar      1 <0>        -0.1022
      6 C6          3.8428   -3.7965   -2.2334 C.ar      1 <0>        -0.1155
      7 C7          3.7958   -0.6049   -0.2172 C.3       1 <0>        -0.0794
      8 C8          4.0282   -0.9143    1.2631 C.3       1 <0>         0.1319
      9 H1          3.1850   -1.4810    1.6581 H         1 <0>         0.1161
     10 C9          5.2991   -1.7110    1.4246 C.2       1 <0>         0.5162
     11 O1          5.2658   -2.9124    1.5870 O.2       1 <0>        -0.5193
     12 N1          6.4970   -1.0357    1.3820 N.am      1 <0>        -0.7011
     13 C10         7.6751   -1.9115    1.6258 C.3       1 <0>         0.1273
     14 C11         8.9102   -1.0846    1.6888 C.2       1 <0>         0.5811
     15 O2          9.7983   -1.3674    0.9128 O.2       1 <0>        -0.4427
     16 N2          9.1362   -0.0636    2.5151 N.am      1 <0>        -0.6982
     17 C12         9.8390   -0.2060    3.8054 C.3       1 <0>         0.1257
     18 C13        10.3482    1.1835    4.1952 C.3       1 <0>        -0.1258
     19 C14         9.4486    2.1584    3.4324 C.3       1 <0>        -0.1157
     20 C15         8.7604    1.3389    2.3449 C.3       1 <0>         0.1506
     21 C16         7.2648    1.4842    2.4510 C.2       1 <0>         0.4738
     22 O3          6.5844    0.5792    2.8858 O.2       1 <0>        -0.4841
     23 N3          6.6873    2.6627    2.0456 N.am      1 <0>        -0.7238
     24 C17         5.1965    2.6155    2.0703 C.3       1 <0>         0.1281
     25 H2          4.8427    2.5749    3.1005 H         1 <0>         0.0968
     26 C18         4.7832    1.3660    1.3348 C.2       1 <0>         0.5112
     27 O4          4.9823    1.2637    0.1428 O.2       1 <0>        -0.5189
     28 N4          4.1820    0.3507    2.0219 N.am      1 <0>        -0.7101
     29 C19         4.6235    3.8493    1.3701 C.3       1 <0>        -0.1195
     30 C20         4.9961    5.1042    2.1621 C.3       1 <0>        -0.1188
     31 C21         4.4231    6.3381    1.4619 C.3       1 <0>        -0.1196
     32 C22         4.7957    7.5930    2.2539 C.3       1 <0>        -0.1141
     33 C23         4.2227    8.8268    1.5537 C.3       1 <0>        -0.1614
     34 C24         4.5897   10.0629    2.3338 C.2       1 <0>         0.3659
     35 O5          5.2423    9.9669    3.3453 O.2       1 <0>        -0.4280
     36 C25         4.1424   11.4187    1.8515 C.3       1 <0>        -0.0682
     37 H3          3.0754   11.6237    1.9394 H         1 <0>         0.1530
     38 C26         4.8925   12.0386    0.6709 C.3       1 <0>        -0.0114
     39 O6          5.0462   12.5139    2.0116 O.3       1 <0>        -0.3336
     40 C27         7.7993   -2.9262    0.4874 C.3       1 <0>        -0.0840
     41 C28         8.8748   -3.9274    0.8220 C.ar      1 <0>        -0.0867
     42 C29        10.1457   -3.7772    0.2995 C.ar      1 <0>        -0.0862
     43 C30        11.1322   -4.6957    0.6064 C.ar      1 <0>        -0.1292
     44 C31        10.8479   -5.7640    1.4363 C.ar      1 <0>        -0.1210
     45 C32         9.5772   -5.9137    1.9596 C.ar      1 <0>        -0.1271
     46 C33         8.5918   -4.9929    1.6561 C.ar      1 <0>        -0.1118
     47 H4          2.1796   -5.0431   -2.7333 H         1 <0>         0.1202
     48 H5          0.5404   -3.6216   -1.5691 H         1 <0>         0.1206
     49 H6          1.2843   -1.5806   -0.4098 H         1 <0>         0.1188
     50 H7          5.3056   -2.3788   -1.5849 H         1 <0>         0.1143
     51 H8          4.5615   -4.4190   -2.7455 H         1 <0>         0.1203
     52 H9          4.7247   -0.2512   -0.6646 H         1 <0>         0.1199
     53 H10         3.0306    0.1656   -0.3116 H         1 <0>         0.0843
     54 H11         6.5668   -0.0837    1.2097 H         1 <0>         0.4097
     55 H12         7.5444   -2.4407    2.5697 H         1 <0>         0.1046
     56 H13         9.1500   -0.5756    4.5649 H         1 <0>         0.0605
     57 H14        10.6786   -0.8925    3.6973 H         1 <0>         0.0710
     58 H15        10.2486    1.3366    5.2698 H         1 <0>         0.0866
     59 H16        11.3870    1.3067    3.8891 H         1 <0>         0.0802
     60 H17         8.7061    2.5882    4.1047 H         1 <0>         0.0819
     61 H18        10.0488    2.9494    2.9829 H         1 <0>         0.0915
     62 H19         9.0874    1.6879    1.3617 H         1 <0>         0.0934
     63 H20         7.1950    3.4430    1.7728 H         1 <0>         0.4199
     64 H21         3.8794    0.4490    2.9382 H         1 <0>         0.4174
     65 H22         5.0350    3.9196    0.3632 H         1 <0>         0.0859
     66 H23         3.5383    3.7640    1.3140 H         1 <0>         0.0845
     67 H24         4.5846    5.0340    3.1690 H         1 <0>         0.0686
     68 H25         6.0813    5.1896    2.2182 H         1 <0>         0.0649
     69 H26         4.8346    6.4083    0.4550 H         1 <0>         0.0671
     70 H27         3.3379    6.2527    1.4058 H         1 <0>         0.0671
     71 H28         4.3842    7.5227    3.2608 H         1 <0>         0.0702
     72 H29         5.8809    7.6783    2.3100 H         1 <0>         0.0695
     73 H30         4.6341    8.8971    0.5468 H         1 <0>         0.1043
     74 H31         3.1375    8.7415    1.4976 H         1 <0>         0.1055
     75 H32         5.7141   11.4695    0.2359 H         1 <0>         0.1154
     76 H33         4.3238   12.6559   -0.0245 H         1 <0>         0.1241
     77 H34         6.8490   -3.4437    0.3567 H         1 <0>         0.1037
     78 H35         8.0603   -2.4072   -0.4349 H         1 <0>         0.0738
     79 H36        10.3678   -2.9426   -0.3489 H         1 <0>         0.1296
     80 H37        12.1249   -4.5787    0.1976 H         1 <0>         0.1183
     81 H38        11.6184   -6.4819    1.6755 H         1 <0>         0.1182
     82 H39         9.3550   -6.7485    2.6077 H         1 <0>         0.1194
     83 H40         7.6001   -5.1077    2.0679 H         1 <0>         0.1224
@<TRIPOS>BOND
     1    1    6 ar
     2    1    2 ar
     3    1   47 1
     4    2    3 ar
     5    2   48 1
     6    3    4 ar
     7    3   49 1
     8    4    5 ar
     9    4    7 1
    10    5    6 ar
    11    5   50 1
    12    6   51 1
    13    7    8 1
    14    7   52 1
    15    7   53 1
    16    8    9 1
    17    8   28 1
    18    8   10 1
    19   10   11 2
    20   10   12 am
    21   12   13 1
    22   12   54 1
    23   13   14 1
    24   13   40 1
    25   13   55 1
    26   14   15 2
    27   14   16 am
    28   16   20 1
    29   16   17 1
    30   17   18 1
    31   17   56 1
    32   17   57 1
    33   18   19 1
    34   18   58 1
    35   18   59 1
    36   19   20 1
    37   19   60 1
    38   19   61 1
    39   20   21 1
    40   20   62 1
    41   21   22 2
    42   21   23 am
    43   23   24 1
    44   23   63 1
    45   24   25 1
    46   24   26 1
    47   24   29 1
    48   26   27 2
    49   26   28 am
    50   28   64 1
    51   29   30 1
    52   29   65 1
    53   29   66 1
    54   30   31 1
    55   30   67 1
    56   30   68 1
    57   31   32 1
    58   31   69 1
    59   31   70 1
    60   32   33 1
    61   32   71 1
    62   32   72 1
    63   33   34 1
    64   33   73 1
    65   33   74 1
    66   34   35 2
    67   34   36 1
    68   36   37 1
    69   36   39 1
    70   36   38 1
    71   38   39 1
    72   38   75 1
    73   38   76 1
    74   40   41 1
    75   40   77 1
    76   40   78 1
    77   41   46 ar
    78   41   42 ar
    79   42   43 ar
    80   42   79 1
    81   43   44 ar
    82   43   80 1
    83   44   45 ar
    84   44   81 1
    85   45   46 ar
    86   45   82 1
    87   46   83 1
@<TRIPOS>MOLECULE
CHEMBL424189__1
   83    87     0     0     0
SMALL
USER_CHARGES

@<TRIPOS>ATOM
      1 C1          0.3544    1.3914   -0.2339 C.ar      1 <0>        -0.1153
      2 C2          1.6302    1.9214   -0.2805 C.ar      1 <0>        -0.1129
      3 C3          2.7290    1.0856   -0.2085 C.ar      1 <0>        -0.1140
      4 C4          2.5518   -0.2802   -0.0895 C.ar      1 <0>        -0.0912
      5 C5          1.2760   -0.8101   -0.0420 C.ar      1 <0>        -0.1114
      6 C6          0.1773    0.0256   -0.1154 C.ar      1 <0>        -0.1120
      7 C7          3.7496   -1.1914   -0.0120 C.3       1 <0>        -0.0810
      8 C8          4.1572   -1.3749    1.4519 C.3       1 <0>         0.1256
      9 H1          3.3042   -1.7314    2.0261 H         1 <0>         0.1033
     10 C9          5.2710   -2.3766    1.5336 C.2       1 <0>         0.4764
     11 O1          6.3922   -1.9478    1.7141 O.2       1 <0>        -0.4721
     12 N1          5.0520   -3.7039    1.3945 N.am      1 <0>        -0.7207
     13 C10         6.1491   -4.6046    1.8258 C.3       1 <0>         0.1528
     14 C11         6.5827   -4.0996    3.1738 C.2       1 <0>         0.5147
     15 O2          7.5597   -3.3774    3.2284 O.2       1 <0>        -0.4557
     16 N2          5.9739   -4.4244    4.3087 N.am      1 <0>        -0.6370
     17 C12         5.4825   -5.7811    4.6603 C.3       1 <0>         0.1071
     18 C13         5.6614   -5.8982    6.1806 C.3       1 <0>        -0.1319
     19 C14         5.8911   -4.4739    6.7083 C.3       1 <0>        -0.1243
     20 C15         5.6818   -3.5784    5.4731 C.3       1 <0>         0.1324
     21 C16         6.5676   -2.3741    5.5105 C.2       1 <0>         0.5271
     22 O3          7.6612   -2.4530    6.0468 O.2       1 <0>        -0.5165
     23 N3          6.1942   -1.1894    4.9684 N.am      1 <0>        -0.7037
     24 C17         4.8827   -1.0470    4.3104 C.3       1 <0>         0.1384
     25 H2          4.5971   -1.9797    3.8334 H         1 <0>         0.0868
     26 C18         4.9670    0.0491    3.2861 C.2       1 <0>         0.5252
     27 O4          5.3760    1.1363    3.6522 O.2       1 <0>        -0.5308
     28 N4          4.6192   -0.0897    1.9942 N.am      1 <0>        -0.6936
     29 C19         3.8294   -0.6576    5.3548 C.3       1 <0>        -0.1331
     30 C20         2.4456   -0.6424    4.7023 C.3       1 <0>        -0.1214
     31 C21         1.3814   -0.3784    5.7695 C.3       1 <0>        -0.1162
     32 C22        -0.0024   -0.3631    5.1171 C.3       1 <0>        -0.1122
     33 C23        -1.0665   -0.0992    6.1842 C.3       1 <0>        -0.1616
     34 C24        -2.4295   -0.0841    5.5416 C.2       1 <0>         0.3664
     35 O5         -2.5386   -0.2658    4.3527 O.2       1 <0>        -0.4272
     36 C25        -3.6565    0.1576    6.3826 C.3       1 <0>        -0.0678
     37 H3         -3.7749    1.1710    6.7660 H         1 <0>         0.1528
     38 C26        -4.1659   -0.9963    7.2485 C.3       1 <0>        -0.0117
     39 O6         -4.8403   -0.5746    6.0591 O.3       1 <0>        -0.3337
     40 C27         7.3071   -4.5872    0.8317 C.3       1 <0>        -0.0823
     41 C28         6.8475   -5.1583   -0.4850 C.ar      1 <0>        -0.0798
     42 C29         6.9577   -6.5151   -0.7260 C.ar      1 <0>        -0.1173
     43 C30         6.5361   -7.0390   -1.9337 C.ar      1 <0>        -0.1167
     44 C31         6.0039   -6.2063   -2.9003 C.ar      1 <0>        -0.1211
     45 C32         5.8929   -4.8497   -2.6590 C.ar      1 <0>        -0.1181
     46 C33         6.3106   -4.3264   -1.4496 C.ar      1 <0>        -0.1074
     47 H4         -0.5040    2.0448   -0.2856 H         1 <0>         0.1224
     48 H5          1.7686    2.9885   -0.3734 H         1 <0>         0.1235
     49 H6          3.7257    1.4997   -0.2456 H         1 <0>         0.1193
     50 H7          1.1376   -1.8772    0.0506 H         1 <0>         0.1226
     51 H8         -0.8195   -0.3885   -0.0787 H         1 <0>         0.1240
     52 H9          3.4975   -2.1603   -0.4432 H         1 <0>         0.0982
     53 H10         4.5777   -0.7510   -0.5673 H         1 <0>         0.0911
     54 H11         4.2156   -4.0540    1.0317 H         1 <0>         0.4149
     55 H12         5.7654   -5.6262    1.9240 H         1 <0>         0.1062
     56 H13         4.4329   -5.8745    4.3961 H         1 <0>         0.0744
     57 H14         6.0802   -6.5331    4.1518 H         1 <0>         0.0805
     58 H15         4.7649   -6.3210    6.6295 H         1 <0>         0.0839
     59 H16         6.5271   -6.5205    6.4034 H         1 <0>         0.0790
     60 H17         5.1629   -4.2319    7.4790 H         1 <0>         0.0873
     61 H18         6.9064   -4.3703    7.0844 H         1 <0>         0.0938
     62 H19         4.6298   -3.2818    5.4426 H         1 <0>         0.0856
     63 H20         6.8004   -0.4231    5.0158 H         1 <0>         0.4140
     64 H21         4.6740    0.6835    1.4014 H         1 <0>         0.4103
     65 H22         3.8394   -1.3827    6.1686 H         1 <0>         0.0802
     66 H23         4.0566    0.3332    5.7481 H         1 <0>         0.0873
     67 H24         2.4077    0.1445    3.9491 H         1 <0>         0.0673
     68 H25         2.2557   -1.6064    4.2305 H         1 <0>         0.0638
     69 H26         1.4193   -1.1653    6.5228 H         1 <0>         0.0674
     70 H27         1.5713    0.5857    6.2413 H         1 <0>         0.0681
     71 H28        -0.0402    0.4238    4.3638 H         1 <0>         0.0702
     72 H29        -0.1923   -1.3272    4.6453 H         1 <0>         0.0691
     73 H30        -1.0286   -0.8861    6.9375 H         1 <0>         0.1042
     74 H31        -0.8766    0.8649    6.6561 H         1 <0>         0.1055
     75 H32        -3.6168   -1.9373    7.2151 H         1 <0>         0.1153
     76 H33        -4.6235   -0.7489    8.2064 H         1 <0>         0.1240
     77 H34         7.6443   -3.5611    0.6847 H         1 <0>         0.1024
     78 H35         8.1293   -5.1876    1.2210 H         1 <0>         0.0858
     79 H36         7.3734   -7.1656    0.0292 H         1 <0>         0.1210
     80 H37         6.6228   -8.0989   -2.1223 H         1 <0>         0.1220
     81 H38         5.6752   -6.6155   -3.8442 H         1 <0>         0.1210
     82 H39         5.4775   -4.1991   -3.4143 H         1 <0>         0.1209
     83 H40         6.2204   -3.2670   -1.2596 H         1 <0>         0.1164
@<TRIPOS>BOND
     1    1    6 ar
     2    1    2 ar
     3    1   47 1
     4    2    3 ar
     5    2   48 1
     6    3    4 ar
     7    3   49 1
     8    4    5 ar
     9    4    7 1
    10    5    6 ar
    11    5   50 1
    12    6   51 1
    13    7    8 1
    14    7   52 1
    15    7   53 1
    16    8    9 1
    17    8   28 1
    18    8   10 1
    19   10   11 2
    20   10   12 am
    21   12   13 1
    22   12   54 1
    23   13   14 1
    24   13   40 1
    25   13   55 1
    26   14   15 2
    27   14   16 am
    28   16   20 1
    29   16   17 1
    30   17   18 1
    31   17   56 1
    32   17   57 1
    33   18   19 1
    34   18   58 1
    35   18   59 1
    36   19   20 1
    37   19   60 1
    38   19   61 1
    39   20   21 1
    40   20   62 1
    41   21   22 2
    42   21   23 am
    43   23   24 1
    44   23   63 1
    45   24   25 1
    46   24   26 1
    47   24   29 1
    48   26   27 2
    49   26   28 am
    50   28   64 1
    51   29   30 1
    52   29   65 1
    53   29   66 1
    54   30   31 1
    55   30   67 1
    56   30   68 1
    57   31   32 1
    58   31   69 1
    59   31   70 1
    60   32   33 1
    61   32   71 1
    62   32   72 1
    63   33   34 1
    64   33   73 1
    65   33   74 1
    66   34   35 2
    67   34   36 1
    68   36   37 1
    69   36   39 1
    70   36   38 1
    71   38   39 1
    72   38   75 1
    73   38   76 1
    74   40   41 1
    75   40   77 1
    76   40   78 1
    77   41   46 ar
    78   41   42 ar
    79   42   43 ar
    80   42   79 1
    81   43   44 ar
    82   43   80 1
    83   44   45 ar
    84   44   81 1
    85   45   46 ar
    86   45   82 1
    87   46   83 1
@<TRIPOS>MOLECULE
CHEMBL424189__2
   83    87     0     0     0
SMALL
USER_CHARGES

@<TRIPOS>ATOM
      1 C1          2.0349   -5.3662   -0.9098 C.ar      1 <0>        -0.1206
      2 C2          1.1756   -4.4734   -0.2971 C.ar      1 <0>        -0.1196
      3 C3          1.6113   -3.1998    0.0174 C.ar      1 <0>        -0.1153
      4 C4          2.9064   -2.8190   -0.2803 C.ar      1 <0>        -0.0930
      5 C5          3.7660   -3.7121   -0.8923 C.ar      1 <0>        -0.1018
      6 C6          3.3299   -4.9853   -1.2081 C.ar      1 <0>        -0.1159
      7 C7          3.3810   -1.4302    0.0617 C.3       1 <0>        -0.0765
      8 C8          3.8519   -1.3961    1.5170 C.3       1 <0>         0.1317
      9 H1          3.1265   -1.9058    2.1512 H         1 <0>         0.1165
     10 C9          5.1960   -2.0714    1.6345 C.2       1 <0>         0.5167
     11 O1          5.2890   -3.2083    2.0462 O.2       1 <0>        -0.5188
     12 N1          6.3131   -1.3606    1.2608 N.am      1 <0>        -0.7027
     13 C10         7.5842   -2.0997    1.4890 C.3       1 <0>         0.1282
     14 C11         8.7405   -1.2161    1.1797 C.2       1 <0>         0.5894
     15 O2          9.5269   -1.6153    0.3472 O.2       1 <0>        -0.4530
     16 N2          8.9967   -0.0289    1.7285 N.am      1 <0>        -0.6950
     17 C12         9.8894    0.1508    2.8903 C.3       1 <0>         0.1208
     18 C13        10.3299    1.6162    2.8960 C.3       1 <0>        -0.1276
     19 C14         9.2492    2.3530    2.1016 C.3       1 <0>        -0.1151
     20 C15         8.4822    1.2811    1.3330 C.3       1 <0>         0.1493
     21 C16         7.0111    1.3683    1.6452 C.2       1 <0>         0.4738
     22 O3          6.4808    0.5462    2.3621 O.2       1 <0>        -0.4830
     23 N3          6.2826    2.3983    1.1018 N.am      1 <0>        -0.7236
     24 C17         4.8208    2.2804    1.3747 C.3       1 <0>         0.1286
     25 H2          4.6255    2.4476    2.4339 H         1 <0>         0.0970
     26 C18         4.4126    0.8807    0.9910 C.2       1 <0>         0.5108
     27 O4          4.4439    0.5308   -0.1698 O.2       1 <0>        -0.5190
     28 N4          4.0064    0.0103    1.9616 N.am      1 <0>        -0.7099
     29 C19         4.0490    3.3000    0.5346 C.3       1 <0>        -0.1196
     30 C20         4.4249    4.7152    0.9781 C.3       1 <0>        -0.1185
     31 C21         3.6532    5.7348    0.1380 C.3       1 <0>        -0.1197
     32 C22         4.0290    7.1501    0.5816 C.3       1 <0>        -0.1140
     33 C23         3.2573    8.1697   -0.2585 C.3       1 <0>        -0.1614
     34 C24         3.6275    9.5636    0.1783 C.2       1 <0>         0.3660
     35 O5          4.4262    9.7250    1.0696 O.2       1 <0>        -0.4281
     36 C25         3.0010   10.7563   -0.4970 C.3       1 <0>        -0.0682
     37 H3          1.9447   10.9199   -0.2836 H         1 <0>         0.1530
     38 C26         3.5157   11.1412   -1.8855 C.3       1 <0>        -0.0115
     39 O6          3.8220   11.9053   -0.7153 O.3       1 <0>        -0.3336
     40 C27         7.6596   -2.5435    2.9513 C.3       1 <0>        -0.0970
     41 C28         8.8839   -3.3983    3.1543 C.ar      1 <0>        -0.0863
     42 C29         8.8466   -4.7445    2.8423 C.ar      1 <0>        -0.1072
     43 C30         9.9697   -5.5285    3.0286 C.ar      1 <0>        -0.1164
     44 C31        11.1303   -4.9664    3.5265 C.ar      1 <0>        -0.1212
     45 C32        11.1679   -3.6200    3.8376 C.ar      1 <0>        -0.1176
     46 C33        10.0461   -2.8351    3.6473 C.ar      1 <0>        -0.1319
     47 H4          1.6959   -6.3627   -1.1515 H         1 <0>         0.1204
     48 H5          0.1638   -4.7708   -0.0644 H         1 <0>         0.1208
     49 H6          0.9397   -2.5020    0.4955 H         1 <0>         0.1190
     50 H7          4.7777   -3.4145   -1.1253 H         1 <0>         0.1142
     51 H8          4.0013   -5.6829   -1.6865 H         1 <0>         0.1203
     52 H9          4.2076   -1.1570   -0.5942 H         1 <0>         0.1166
     53 H10         2.5622   -0.7232   -0.0719 H         1 <0>         0.0850
     54 H11         6.2757   -0.4669    0.8855 H         1 <0>         0.4100
     55 H12         7.6149   -2.9767    0.8425 H         1 <0>         0.1027
     56 H13         9.3523   -0.0792    3.8105 H         1 <0>         0.0634
     57 H14        10.7597   -0.4984    2.7940 H         1 <0>         0.0756
     58 H15        10.3752    1.9951    3.9170 H         1 <0>         0.0875
     59 H16        11.2988    1.7232    2.4082 H         1 <0>         0.0810
     60 H17         8.5786    2.8803    2.7802 H         1 <0>         0.0826
     61 H18         9.7081    3.0567    1.4071 H         1 <0>         0.0918
     62 H19         8.6317    1.4232    0.2593 H         1 <0>         0.0938
     63 H20         6.6769    3.1253    0.5950 H         1 <0>         0.4199
     64 H21         3.8332    0.2906    2.8739 H         1 <0>         0.4174
     65 H22         4.3020    3.1698   -0.5176 H         1 <0>         0.0857
     66 H23         2.9785    3.1484    0.6723 H         1 <0>         0.0844
     67 H24         4.1719    4.8455    2.0303 H         1 <0>         0.0686
     68 H25         5.4955    4.8669    0.8404 H         1 <0>         0.0649
     69 H26         3.9061    5.6046   -0.9142 H         1 <0>         0.0671
     70 H27         2.5826    5.5832    0.2758 H         1 <0>         0.0670
     71 H28         3.7760    7.2803    1.6338 H         1 <0>         0.0702
     72 H29         5.0996    7.3017    0.4438 H         1 <0>         0.0695
     73 H30         3.5103    8.0394   -1.3107 H         1 <0>         0.1043
     74 H31         2.1867    8.0180   -0.1208 H         1 <0>         0.1055
     75 H32         4.3106   10.5342   -2.3188 H         1 <0>         0.1154
     76 H33         2.8014   11.5613   -2.5935 H         1 <0>         0.1241
     77 H34         7.7184   -1.6657    3.5948 H         1 <0>         0.0804
     78 H35         6.7688   -3.1192    3.2026 H         1 <0>         0.1190
     79 H36         7.9398   -5.1837    2.4534 H         1 <0>         0.1249
     80 H37         9.9403   -6.5804    2.7855 H         1 <0>         0.1224
     81 H38        12.0076   -5.5791    3.6727 H         1 <0>         0.1211
     82 H39        12.0746   -3.1809    4.2269 H         1 <0>         0.1207
     83 H40        10.0766   -1.7824    3.8869 H         1 <0>         0.1240
@<TRIPOS>BOND
     1    1    6 ar
     2    1    2 ar
     3    1   47 1
     4    2    3 ar
     5    2   48 1
     6    3    4 ar
     7    3   49 1
     8    4    5 ar
     9    4    7 1
    10    5    6 ar
    11    5   50 1
    12    6   51 1
    13    7    8 1
    14    7   52 1
    15    7   53 1
    16    8    9 1
    17    8   28 1
    18    8   10 1
    19   10   11 2
    20   10   12 am
    21   12   13 1
    22   12   54 1
    23   13   14 1
    24   13   40 1
    25   13   55 1
    26   14   15 2
    27   14   16 am
    28   16   20 1
    29   16   17 1
    30   17   18 1
    31   17   56 1
    32   17   57 1
    33   18   19 1
    34   18   58 1
    35   18   59 1
    36   19   20 1
    37   19   60 1
    38   19   61 1
    39   20   21 1
    40   20   62 1
    41   21   22 2
    42   21   23 am
    43   23   24 1
    44   23   63 1
    45   24   25 1
    46   24   26 1
    47   24   29 1
    48   26   27 2
    49   26   28 am
    50   28   64 1
    51   29   30 1
    52   29   65 1
    53   29   66 1
    54   30   31 1
    55   30   67 1
    56   30   68 1
    57   31   32 1
    58   31   69 1
    59   31   70 1
    60   32   33 1
    61   32   71 1
    62   32   72 1
    63   33   34 1
    64   33   73 1
    65   33   74 1
    66   34   35 2
    67   34   36 1
    68   36   37 1
    69   36   39 1
    70   36   38 1
    71   38   39 1
    72   38   75 1
    73   38   76 1
    74   40   41 1
    75   40   77 1
    76   40   78 1
    77   41   46 ar
    78   41   42 ar
    79   42   43 ar
    80   42   79 1
    81   43   44 ar
    82   43   80 1
    83   44   45 ar
    84   44   81 1
    85   45   46 ar
    86   45   82 1
    87   46   83 1
@<TRIPOS>MOLECULE
CHEMBL424189__3
   83    87     0     0     0
SMALL
USER_CHARGES

@<TRIPOS>ATOM
      1 C1          0.7729    1.4930   -0.4184 C.ar      1 <0>        -0.1164
      2 C2          1.9148    2.2436   -0.2099 C.ar      1 <0>        -0.1129
      3 C3          3.1376    1.6157   -0.0635 C.ar      1 <0>        -0.1122
      4 C4          3.2183    0.2371   -0.1250 C.ar      1 <0>        -0.0904
      5 C5          2.0763   -0.5136   -0.3326 C.ar      1 <0>        -0.1126
      6 C6          0.8538    0.1144   -0.4804 C.ar      1 <0>        -0.1157
      7 C7          4.5515   -0.4475    0.0337 C.3       1 <0>        -0.0800
      8 C8          4.7942   -0.7551    1.5137 C.3       1 <0>         0.1305
      9 H1          3.9582   -1.3344    1.9042 H         1 <0>         0.1039
     10 C9          6.0577   -1.5451    1.6545 C.2       1 <0>         0.4814
     11 O1          7.0972   -0.9518    1.8550 O.2       1 <0>        -0.4936
     12 N1          6.0791   -2.8987    1.5611 N.am      1 <0>        -0.7202
     13 C10         7.3999   -3.5047    1.8807 C.3       1 <0>         0.1445
     14 C11         7.5342   -3.4052    3.3701 C.2       1 <0>         0.5321
     15 O2          8.4889   -2.7666    3.7950 O.2       1 <0>        -0.4645
     16 N2          6.7236   -3.9421    4.2711 N.am      1 <0>        -0.6593
     17 C12         6.4246   -5.3874    4.4220 C.3       1 <0>         0.1172
     18 C13         6.1557   -5.6086    5.9163 C.3       1 <0>        -0.1309
     19 C14         5.9350   -4.2216    6.5346 C.3       1 <0>        -0.1265
     20 C15         5.9746   -3.2597    5.3351 C.3       1 <0>         0.1305
     21 C16         6.6341   -1.9659    5.7044 C.2       1 <0>         0.5160
     22 O3          7.6415   -1.9865    6.3911 O.2       1 <0>        -0.5052
     23 N3          6.1433   -0.7709    5.2966 N.am      1 <0>        -0.7096
     24 C17         4.9321   -0.7117    4.4582 C.3       1 <0>         0.1320
     25 H2          4.8701   -1.5941    3.8273 H         1 <0>         0.0899
     26 C18         4.9903    0.5213    3.6018 C.2       1 <0>         0.5169
     27 O4          5.1120    1.5972    4.1580 O.2       1 <0>        -0.5243
     28 N4          4.9165    0.5063    2.2578 N.am      1 <0>        -0.6942
     29 C19         3.6936   -0.6318    5.3572 C.3       1 <0>        -0.1289
     30 C20         3.5591   -1.9294    6.1565 C.3       1 <0>        -0.1296
     31 C21         2.3995   -1.8009    7.1463 C.3       1 <0>        -0.1172
     32 C22         2.2649   -3.0986    7.9456 C.3       1 <0>        -0.1152
     33 C23         1.1053   -2.9700    8.9353 C.3       1 <0>        -0.1613
     34 C24         0.9728   -4.2481    9.7226 C.2       1 <0>         0.3661
     35 O5          1.7279   -5.1671    9.5136 O.2       1 <0>        -0.4271
     36 C25        -0.1021   -4.3796   10.7707 C.3       1 <0>        -0.0683
     37 H3         -1.1228   -4.4506   10.3950 H         1 <0>         0.1528
     38 C26         0.1173   -3.6721   12.1094 C.3       1 <0>        -0.0117
     39 O6          0.2182   -5.0922   11.9672 O.3       1 <0>        -0.3333
     40 C27         7.4513   -4.9556    1.4083 C.3       1 <0>        -0.0877
     41 C28         7.3606   -4.9978   -0.0954 C.ar      1 <0>        -0.0845
     42 C29         6.1256   -5.0778   -0.7113 C.ar      1 <0>        -0.1142
     43 C30         6.0423   -5.1165   -2.0906 C.ar      1 <0>        -0.1164
     44 C31         7.1940   -5.0748   -2.8540 C.ar      1 <0>        -0.1184
     45 C32         8.4289   -4.9939   -2.2381 C.ar      1 <0>        -0.1139
     46 C33         8.5120   -4.9509   -0.8589 C.ar      1 <0>        -0.1113
     47 H4         -0.1831    1.9833   -0.5284 H         1 <0>         0.1232
     48 H5          1.8517    3.3207   -0.1619 H         1 <0>         0.1244
     49 H6          4.0298    2.2022    0.0987 H         1 <0>         0.1202
     50 H7          2.1395   -1.5907   -0.3810 H         1 <0>         0.1234
     51 H8         -0.0384   -0.4721   -0.6430 H         1 <0>         0.1241
     52 H9          4.5527   -1.3770   -0.5356 H         1 <0>         0.0999
     53 H10         5.3417    0.2060   -0.3359 H         1 <0>         0.0927
     54 H11         5.3049   -3.4247    1.3110 H         1 <0>         0.4112
     55 H12         8.1925   -2.9294    1.3938 H         1 <0>         0.1282
     56 H13         5.5409   -5.6442    3.8422 H         1 <0>         0.0705
     57 H14         7.2807   -5.9798    4.1076 H         1 <0>         0.0779
     58 H15         5.2634   -6.2195    6.0456 H         1 <0>         0.0845
     59 H16         7.0136   -6.0916    6.3814 H         1 <0>         0.0790
     60 H17         4.9637   -4.1747    7.0242 H         1 <0>         0.0891
     61 H18         6.7323   -3.9865    7.2367 H         1 <0>         0.0906
     62 H19         4.9505   -3.0891    4.9954 H         1 <0>         0.0932
     63 H20         6.5952    0.0546    5.5594 H         1 <0>         0.4133
     64 H21         4.9458    1.3488    1.7680 H         1 <0>         0.4121
     65 H22         3.7965    0.2087    6.0436 H         1 <0>         0.0890
     66 H23         2.8057   -0.4910    4.7409 H         1 <0>         0.0826
     67 H24         3.3649   -2.7576    5.4749 H         1 <0>         0.0701
     68 H25         4.4836   -2.1174    6.7024 H         1 <0>         0.0691
     69 H26         2.5937   -0.9728    7.8279 H         1 <0>         0.0686
     70 H27         1.4750   -1.6129    6.6003 H         1 <0>         0.0686
     71 H28         2.0707   -3.9267    7.2639 H         1 <0>         0.0714
     72 H29         3.1894   -3.2865    8.4915 H         1 <0>         0.0704
     73 H30         1.2995   -2.1419    9.6170 H         1 <0>         0.1044
     74 H31         0.1808   -2.7820    8.3894 H         1 <0>         0.1057
     75 H32         1.0403   -3.1073   12.2402 H         1 <0>         0.1156
     76 H33        -0.7580   -3.2742   12.6230 H         1 <0>         0.1240
     77 H34         8.3894   -5.4090    1.7285 H         1 <0>         0.0969
     78 H35         6.6156   -5.5076    1.8383 H         1 <0>         0.0892
     79 H36         5.2258   -5.1104   -0.1149 H         1 <0>         0.1187
     80 H37         5.0775   -5.1797   -2.5718 H         1 <0>         0.1230
     81 H38         7.1290   -5.1057   -3.9316 H         1 <0>         0.1221
     82 H39         9.3287   -4.9617   -2.8345 H         1 <0>         0.1233
     83 H40         9.4766   -4.8839   -0.3779 H         1 <0>         0.1231
@<TRIPOS>BOND
     1    1    6 ar
     2    1    2 ar
     3    1   47 1
     4    2    3 ar
     5    2   48 1
     6    3    4 ar
     7    3   49 1
     8    4    5 ar
     9    4    7 1
    10    5    6 ar
    11    5   50 1
    12    6   51 1
    13    7    8 1
    14    7   52 1
    15    7   53 1
    16    8    9 1
    17    8   28 1
    18    8   10 1
    19   10   11 2
    20   10   12 am
    21   12   13 1
    22   12   54 1
    23   13   14 1
    24   13   40 1
    25   13   55 1
    26   14   15 2
    27   14   16 am
    28   16   20 1
    29   16   17 1
    30   17   18 1
    31   17   56 1
    32   17   57 1
    33   18   19 1
    34   18   58 1
    35   18   59 1
    36   19   20 1
    37   19   60 1
    38   19   61 1
    39   20   21 1
    40   20   62 1
    41   21   22 2
    42   21   23 am
    43   23   24 1
    44   23   63 1
    45   24   25 1
    46   24   26 1
    47   24   29 1
    48   26   27 2
    49   26   28 am
    50   28   64 1
    51   29   30 1
    52   29   65 1
    53   29   66 1
    54   30   31 1
    55   30   67 1
    56   30   68 1
    57   31   32 1
    58   31   69 1
    59   31   70 1
    60   32   33 1
    61   32   71 1
    62   32   72 1
    63   33   34 1
    64   33   73 1
    65   33   74 1
    66   34   35 2
    67   34   36 1
    68   36   37 1
    69   36   39 1
    70   36   38 1
    71   38   39 1
    72   38   75 1
    73   38   76 1
    74   40   41 1
    75   40   77 1
    76   40   78 1
    77   41   46 ar
    78   41   42 ar
    79   42   43 ar
    80   42   79 1
    81   43   44 ar
    82   43   80 1
    83   44   45 ar
    84   44   81 1
    85   45   46 ar
    86   45   82 1
    87   46   83 1
@<TRIPOS>MOLECULE
CHEMBL198934
   35    35     0     0     0
SMALL
USER_CHARGES

@<TRIPOS>ATOM
      1 C1         -0.0127    1.0858    0.0080 C.3       1 <0>        -0.1083
      2 C2         -0.7416    1.5850   -1.2129 C.2       1 <0>         0.1927
      3 C3         -2.0898    1.7936   -1.1636 C.2       1 <0>        -0.3001
      4 C4         -2.7482    2.2596   -2.3151 C.2       1 <0>         0.5294
      5 N1         -2.0227    2.4849   -3.4313 N.am      1 <0>        -0.6164
      6 C5         -0.6797    2.2590   -3.4216 C.2       1 <0>         0.3748
      7 N2         -0.0690    1.8269   -2.3351 N.2       1 <0>        -0.5446
      8 S1          0.2590    2.5553   -4.8830 S.3       1 <0>        -0.0117
      9 C6          1.9566    2.1267   -4.4086 C.3       1 <0>        -0.0937
     10 C7          2.8893    2.3412   -5.6024 C.3       1 <0>        -0.1097
     11 C8          4.3211    1.9797   -5.2022 C.3       1 <0>        -0.1114
     12 C9          5.2538    2.1941   -6.3960 C.3       1 <0>        -0.1067
     13 C10         6.6856    1.8327   -5.9958 C.3       1 <0>        -0.1267
     14 C11         7.6043    2.0439   -7.1716 C.2       1 <0>         0.5208
     15 O1          7.1578    2.4442   -8.2258 O.2       1 <0>        -0.5188
     16 N3          8.9221    1.7880   -7.0517 N.am      1 <0>        -0.5999
     17 O2          9.7853    1.9865   -8.1565 O.3       1 <0>        -0.3202
     18 O3         -3.9523    2.4562   -2.3060 O.2       1 <0>        -0.5344
     19 H1          0.0021   -0.0041    0.0020 H         1 <0>         0.0881
     20 H2          1.0099    1.4631    0.0003 H         1 <0>         0.0826
     21 H3         -0.5229    1.4373    0.9048 H         1 <0>         0.0840
     22 H4         -2.6417    1.6033   -0.2550 H         1 <0>         0.1575
     23 H5          2.2738    2.7613   -3.5811 H         1 <0>         0.1029
     24 H6          1.9950    1.0818   -4.1007 H         1 <0>         0.1028
     25 H7          2.5721    1.7066   -6.4299 H         1 <0>         0.0783
     26 H8          2.8509    3.3861   -5.9103 H         1 <0>         0.0783
     27 H9          4.6383    2.6143   -4.3747 H         1 <0>         0.0705
     28 H10         4.3595    0.9348   -4.8943 H         1 <0>         0.0705
     29 H11         4.9366    1.5596   -7.2235 H         1 <0>         0.0756
     30 H12         5.2154    3.2390   -6.7039 H         1 <0>         0.0756
     31 H13         7.0028    2.4672   -5.1683 H         1 <0>         0.1004
     32 H14         6.7240    0.7878   -5.6879 H         1 <0>         0.1004
     33 H15         9.2792    1.4679   -6.2085 H         1 <0>         0.4083
     34 H16        10.7115    1.7765   -7.9746 H         1 <0>         0.3881
     35 H17        -2.4565    2.8063   -4.2372 H         1 <0>         0.4211
@<TRIPOS>BOND
     1    1   19 1
     2    1   20 1
     3    1   21 1
     4    1    2 1
     5    2    3 2
     6    2    7 1
     7    3    4 1
     8    3   22 1
     9    4    5 am
    10    4   18 2
    11    5    6 1
    12    5   35 1
    13    6    8 1
    14    6    7 2
    15    8    9 1
    16    9   10 1
    17    9   23 1
    18    9   24 1
    19   10   11 1
    20   10   25 1
    21   10   26 1
    22   11   12 1
    23   11   27 1
    24   11   28 1
    25   12   13 1
    26   12   29 1
    27   12   30 1
    28   13   14 1
    29   13   31 1
    30   13   32 1
    31   14   15 2
    32   14   16 am
    33   16   17 1
    34   16   33 1
    35   17   34 1
@<TRIPOS>MOLECULE
CHEMBL198934__1
   35    35     0     0     0
SMALL
USER_CHARGES

@<TRIPOS>ATOM
      1 C1         -0.0127    1.0858    0.0080 C.3       1 <0>        -0.1242
      2 C2         -0.7416    1.5850   -1.2129 C.2       1 <0>         0.1674
      3 C3         -1.2540    0.7119   -2.1061 C.2       1 <0>        -0.2848
      4 C4         -1.9349    1.2146   -3.2445 C.2       1 <0>         0.5121
      5 N1         -2.0560    2.5385   -3.4113 N.2       1 <0>        -0.5866
      6 C5         -1.5494    3.3767   -2.5288 C.2       1 <0>         0.3973
      7 N2         -0.8956    2.9250   -1.4245 N.pl3     1 <0>        -0.5992
      8 S1         -1.7272    5.1115   -2.7808 S.3       1 <0>        -0.0198
      9 C6         -2.6485    5.2365   -4.3384 C.3       1 <0>        -0.0911
     10 C7         -2.8750    6.7106   -4.6801 C.3       1 <0>        -0.1077
     11 C8         -3.6520    6.8161   -5.9938 C.3       1 <0>        -0.1129
     12 C9         -3.8785    8.2901   -6.3355 C.3       1 <0>        -0.1056
     13 C10        -4.6555    8.3956   -7.6493 C.3       1 <0>        -0.1274
     14 C11        -4.8786    9.8475   -7.9858 C.2       1 <0>         0.5215
     15 O1         -4.4575   10.7127   -7.2476 O.2       1 <0>        -0.5195
     16 N3         -5.5460   10.1845   -9.1072 N.am      1 <0>        -0.5999
     17 O2         -5.7556   11.5487   -9.4234 O.3       1 <0>        -0.3205
     18 O3         -2.4073    0.4455   -4.0678 O.2       1 <0>        -0.5114
     19 H1          0.0021   -0.0041    0.0020 H         1 <0>         0.0985
     20 H2          1.0099    1.4631    0.0003 H         1 <0>         0.0889
     21 H3         -0.5229    1.4373    0.9048 H         1 <0>         0.0889
     22 H4         -1.1469   -0.3523   -1.9564 H         1 <0>         0.1566
     23 H5         -2.0783    4.7619   -5.1369 H         1 <0>         0.1038
     24 H6         -3.6111    4.7361   -4.2324 H         1 <0>         0.1038
     25 H7         -3.4452    7.1852   -3.8815 H         1 <0>         0.0779
     26 H8         -1.9124    7.2110   -4.7861 H         1 <0>         0.0779
     27 H9         -3.0818    6.3414   -6.7924 H         1 <0>         0.0711
     28 H10        -4.6146    6.3157   -5.8878 H         1 <0>         0.0711
     29 H11        -4.4487    8.7648   -5.5370 H         1 <0>         0.0753
     30 H12        -2.9159    8.7905   -6.4415 H         1 <0>         0.0753
     31 H13        -4.0853    7.9210   -8.4478 H         1 <0>         0.1007
     32 H14        -5.6181    7.8952   -7.5433 H         1 <0>         0.1007
     33 H15        -5.8828    9.4925   -9.6976 H         1 <0>         0.4085
     34 H16        -6.2434   11.6913  -10.2460 H         1 <0>         0.3880
     35 H17        -0.5336    3.5587   -0.7856 H         1 <0>         0.4252
@<TRIPOS>BOND
     1    1   19 1
     2    1   20 1
     3    1   21 1
     4    1    2 1
     5    2    3 2
     6    2    7 1
     7    3    4 1
     8    3   22 1
     9    4    5 1
    10    4   18 2
    11    5    6 2
    12    6    8 1
    13    6    7 1
    14    7   35 1
    15    8    9 1
    16    9   10 1
    17    9   23 1
    18    9   24 1
    19   10   11 1
    20   10   25 1
    21   10   26 1
    22   11   12 1
    23   11   27 1
    24   11   28 1
    25   12   13 1
    26   12   29 1
    27   12   30 1
    28   13   14 1
    29   13   31 1
    30   13   32 1
    31   14   15 2
    32   14   16 am
    33   16   17 1
    34   16   33 1
    35   17   34 1
@<TRIPOS>MOLECULE
CHEMBL373049
   48    49     0     0     0
SMALL
USER_CHARGES

@<TRIPOS>ATOM
      1 C1         -1.4154   -3.7168   -2.1330 C.3       1 <0>        -0.1473
      2 C2         -2.7016   -2.8895   -2.1782 C.3       1 <0>        -0.0962
      3 C3         -2.7091   -1.9096   -1.0333 C.ar      1 <0>        -0.0420
      4 C4         -3.3888   -2.2102    0.1296 C.ar      1 <0>        -0.1215
      5 C5         -3.3966   -1.3118    1.1813 C.ar      1 <0>        -0.1009
      6 C6         -2.7235   -0.1076    1.0748 C.ar      1 <0>        -0.1250
      7 C7         -2.0402    0.2039   -0.0826 C.ar      1 <0>        -0.0877
      8 C8         -2.0247   -0.7001   -1.1446 C.ar      1 <0>        -0.0555
      9 C9         -1.2883   -0.3738   -2.3885 C.2       1 <0>         0.2420
     10 C10         0.0666   -0.0795   -2.3389 C.2       1 <0>        -0.2840
     11 C11         0.7340    0.2247   -3.5347 C.2       1 <0>         0.5317
     12 N1          0.0356    0.2203   -4.6894 N.am      1 <0>        -0.6156
     13 C12        -1.2941   -0.0756   -4.6834 C.2       1 <0>         0.3736
     14 N2         -1.9269   -0.3672   -3.5659 N.2       1 <0>        -0.5317
     15 S1         -2.1846   -0.0749   -6.2038 S.3       1 <0>        -0.0100
     16 C13        -3.8773   -0.5136   -5.7212 C.3       1 <0>        -0.0946
     17 C14        -4.7690   -0.5494   -6.9640 C.3       1 <0>        -0.1092
     18 C15        -6.1966   -0.9194   -6.5569 C.3       1 <0>        -0.1114
     19 C16        -7.0883   -0.9551   -7.7997 C.3       1 <0>        -0.1065
     20 C17        -8.5160   -1.3252   -7.3926 C.3       1 <0>        -0.1268
     21 C18        -9.3942   -1.3604   -8.6168 C.2       1 <0>         0.5209
     22 O1         -8.9245   -1.1138   -9.7074 O.2       1 <0>        -0.5187
     23 N3        -10.7017   -1.6659   -8.4996 N.am      1 <0>        -0.6000
     24 O2        -11.5269   -1.6990   -9.6498 O.3       1 <0>        -0.3202
     25 O3          1.9254    0.4891   -3.5308 O.2       1 <0>        -0.5321
     26 H1         -1.4099   -4.4256   -2.9611 H         1 <0>         0.0589
     27 H2         -0.5540   -3.0541   -2.2163 H         1 <0>         0.0510
     28 H3         -1.3658   -4.2602   -1.1894 H         1 <0>         0.0576
     29 H4         -2.7512   -2.3462   -3.1218 H         1 <0>         0.0883
     30 H5         -3.5630   -3.5523   -2.0949 H         1 <0>         0.0734
     31 H6         -3.9160   -3.1486    0.2185 H         1 <0>         0.1269
     32 H7         -3.9304   -1.5511    2.0891 H         1 <0>         0.1263
     33 H8         -2.7334    0.5901    1.8991 H         1 <0>         0.1283
     34 H9         -1.5155    1.1443   -0.1647 H         1 <0>         0.1266
     35 H10         0.5970   -0.0841   -1.3982 H         1 <0>         0.1586
     36 H11        -3.8769   -1.4945   -5.2459 H         1 <0>         0.1024
     37 H12        -4.2596    0.2292   -5.0210 H         1 <0>         0.1032
     38 H13        -4.7693    0.4316   -7.4392 H         1 <0>         0.0783
     39 H14        -4.3867   -1.2921   -7.6641 H         1 <0>         0.0784
     40 H15        -6.1963   -1.9003   -6.0817 H         1 <0>         0.0704
     41 H16        -6.5789   -0.1766   -5.8567 H         1 <0>         0.0704
     42 H17        -7.0887    0.0258   -8.2750 H         1 <0>         0.0756
     43 H18        -6.7060   -1.6979   -8.4999 H         1 <0>         0.0756
     44 H19        -8.5156   -2.3061   -6.9174 H         1 <0>         0.1003
     45 H20        -8.8982   -0.5824   -6.6925 H         1 <0>         0.1003
     46 H21       -11.0773   -1.8631   -7.6273 H         1 <0>         0.4082
     47 H22       -12.4484   -1.9275   -9.4663 H         1 <0>         0.3881
     48 H23         0.4813    0.4287   -5.5253 H         1 <0>         0.4214
@<TRIPOS>BOND
     1    1    2 1
     2    1   26 1
     3    1   27 1
     4    1   28 1
     5    2    3 1
     6    2   29 1
     7    2   30 1
     8    3    8 ar
     9    3    4 ar
    10    4    5 ar
    11    4   31 1
    12    5    6 ar
    13    5   32 1
    14    6    7 ar
    15    6   33 1
    16    7    8 ar
    17    7   34 1
    18    8    9 1
    19    9   10 2
    20    9   14 1
    21   10   11 1
    22   10   35 1
    23   11   12 am
    24   11   25 2
    25   12   13 1
    26   12   48 1
    27   13   15 1
    28   13   14 2
    29   15   16 1
    30   16   17 1
    31   16   36 1
    32   16   37 1
    33   17   18 1
    34   17   38 1
    35   17   39 1
    36   18   19 1
    37   18   40 1
    38   18   41 1
    39   19   20 1
    40   19   42 1
    41   19   43 1
    42   20   21 1
    43   20   44 1
    44   20   45 1
    45   21   22 2
    46   21   23 am
    47   23   24 1
    48   23   46 1
    49   24   47 1
@<TRIPOS>MOLECULE
CHEMBL373049__1
   47    48     0     0     0
SMALL
USER_CHARGES

@<TRIPOS>ATOM
      1 C1          1.6435    2.6147   -1.3923 C.3       1 <0>        -0.1403
      2 C2          0.7359    1.4798   -0.9134 C.3       1 <0>        -0.0984
      3 C3          1.0596    0.2216   -1.6770 C.ar      1 <0>        -0.0469
      4 C4          0.2689   -0.1647   -2.7405 C.ar      1 <0>        -0.1270
      5 C5          0.5648   -1.3192   -3.4421 C.ar      1 <0>        -0.1214
      6 C6          1.6535   -2.0935   -3.0827 C.ar      1 <0>        -0.1309
      7 C7          2.4509   -1.7171   -2.0213 C.ar      1 <0>        -0.0981
      8 C8          2.1611   -0.5512   -1.3145 C.ar      1 <0>        -0.0191
      9 C9          3.0184   -0.1378   -0.1768 C.ar      1 <0>         0.2129
     10 C10         4.4042   -0.0911   -0.3167 C.ar      1 <0>        -0.3153
     11 C11         5.1675    0.3034    0.7788 C.ar      1 <0>         0.4458
     12 N1          4.5552    0.6203    1.9136 N.ar      1 <0>        -0.6113
     13 C12         3.2343    0.5649    2.0124 C.ar      1 <0>         0.3361
     14 N2          2.4741    0.1995    0.9919 N.ar      1 <0>        -0.5719
     15 S1          2.4698    0.9954    3.5404 S.3       1 <0>        -0.0633
     16 C13         3.8614    1.4265    4.6213 C.3       1 <0>        -0.0936
     17 C14         3.3317    1.8255    6.0001 C.3       1 <0>        -0.1022
     18 C15         4.5054    2.1890    6.9118 C.3       1 <0>        -0.1137
     19 C16         3.9757    2.5880    8.2906 C.3       1 <0>        -0.1044
     20 C17         5.1494    2.9516    9.2022 C.3       1 <0>        -0.1268
     21 C18         4.6277    3.3445   10.5603 C.2       1 <0>         0.5222
     22 O1          3.4345    3.3348   10.7776 O.2       1 <0>        -0.5188
     23 N3          5.4869    3.7068   11.5333 N.am      1 <0>        -0.6012
     24 O2          4.9967    4.0761   12.8094 O.3       1 <0>        -0.3228
     25 O3          6.5185    0.3629    0.6882 O.3       1 <0>        -0.7004
     26 H1          2.6853    2.3436   -1.2211 H         1 <0>         0.0541
     27 H2          1.4824    2.7842   -2.4569 H         1 <0>         0.0465
     28 H3          1.4094    3.5248   -0.8400 H         1 <0>         0.0530
     29 H4          0.8971    1.3103    0.1512 H         1 <0>         0.1088
     30 H5         -0.3058    1.7509   -1.0846 H         1 <0>         0.0608
     31 H6         -0.5826    0.4357   -3.0249 H         1 <0>         0.1188
     32 H7         -0.0566   -1.6176   -4.2735 H         1 <0>         0.1169
     33 H8          1.8794   -2.9945   -3.6336 H         1 <0>         0.1194
     34 H9          3.3003   -2.3225   -1.7414 H         1 <0>         0.1227
     35 H10         4.8747   -0.3549   -1.2523 H         1 <0>         0.1142
     36 H11         4.5236    0.5665    4.7214 H         1 <0>         0.0884
     37 H12         4.4127    2.2612    4.1884 H         1 <0>         0.0885
     38 H13         2.6694    2.6854    5.9000 H         1 <0>         0.0712
     39 H14         2.7804    0.9907    6.4330 H         1 <0>         0.0712
     40 H15         5.1676    1.3291    7.0118 H         1 <0>         0.0678
     41 H16         5.0567    3.0237    6.4788 H         1 <0>         0.0678
     42 H17         3.3134    3.4479    8.1905 H         1 <0>         0.0734
     43 H18         3.4244    1.7533    8.7235 H         1 <0>         0.0734
     44 H19         5.8116    2.0916    9.3023 H         1 <0>         0.1003
     45 H20         5.7007    3.7863    8.7693 H         1 <0>         0.1003
     46 H21         6.4412    3.7146   11.3595 H         1 <0>         0.4080
     47 H22         5.6875    4.3199   13.4407 H         1 <0>         0.3853
@<TRIPOS>BOND
     1    1    2 1
     2    1   26 1
     3    1   27 1
     4    1   28 1
     5    2    3 1
     6    2   29 1
     7    2   30 1
     8    3    8 ar
     9    3    4 ar
    10    4    5 ar
    11    4   31 1
    12    5    6 ar
    13    5   32 1
    14    6    7 ar
    15    6   33 1
    16    7    8 ar
    17    7   34 1
    18    8    9 1
    19    9   10 ar
    20    9   14 ar
    21   10   11 ar
    22   10   35 1
    23   11   12 ar
    24   11   25 1
    25   12   13 ar
    26   13   15 1
    27   13   14 ar
    28   15   16 1
    29   16   17 1
    30   16   36 1
    31   16   37 1
    32   17   18 1
    33   17   38 1
    34   17   39 1
    35   18   19 1
    36   18   40 1
    37   18   41 1
    38   19   20 1
    39   19   42 1
    40   19   43 1
    41   20   21 1
    42   20   44 1
    43   20   45 1
    44   21   22 2
    45   21   23 am
    46   23   24 1
    47   23   46 1
    48   24   47 1
@<TRIPOS>MOLECULE
CHEMBL373049__2
   48    49     0     0     0
SMALL
USER_CHARGES

@<TRIPOS>ATOM
      1 C1         -1.3847   -3.7347   -2.0935 C.3       1 <0>        -0.1491
      2 C2         -2.6702   -2.9079   -2.1635 C.3       1 <0>        -0.0943
      3 C3         -2.6941   -1.9192   -1.0265 C.ar      1 <0>        -0.0542
      4 C4         -3.3727   -2.2195    0.1368 C.ar      1 <0>        -0.1164
      5 C5         -3.3956   -1.3130    1.1815 C.ar      1 <0>        -0.0929
      6 C6         -2.7392   -0.1001    1.0676 C.ar      1 <0>        -0.1220
      7 C7         -2.0568    0.2123   -0.0897 C.ar      1 <0>        -0.0768
      8 C8         -2.0253   -0.7002   -1.1456 C.ar      1 <0>        -0.0838
      9 C9         -1.2911   -0.3743   -2.3869 C.2       1 <0>         0.2211
     10 C10         0.0410   -0.0834   -2.3469 C.2       1 <0>        -0.2654
     11 C11         0.7087    0.2235   -3.5558 C.2       1 <0>         0.5153
     12 N1          0.0268    0.2232   -4.7100 N.2       1 <0>        -0.5852
     13 C12        -1.2598   -0.0593   -4.7372 C.2       1 <0>         0.4002
     14 N2         -1.9395   -0.3657   -3.5985 N.pl3     1 <0>        -0.5968
     15 S1         -2.1152   -0.0470   -6.2776 S.3       1 <0>        -0.0196
     16 C13        -0.8367    0.3961   -7.4859 C.3       1 <0>        -0.0909
     17 C14        -1.4524    0.4433   -8.8857 C.3       1 <0>        -0.1078
     18 C15        -0.3742    0.8170   -9.9048 C.3       1 <0>        -0.1128
     19 C16        -0.9899    0.8642  -11.3047 C.3       1 <0>        -0.1056
     20 C17         0.0884    1.2379  -12.3238 C.3       1 <0>        -0.1273
     21 C18        -0.5180    1.2843  -13.7026 C.2       1 <0>         0.5214
     22 O1         -1.6966    1.0423  -13.8551 O.2       1 <0>        -0.5195
     23 N3          0.2493    1.5948  -14.7662 N.am      1 <0>        -0.5999
     24 O2         -0.3205    1.6384  -16.0617 O.3       1 <0>        -0.3205
     25 O3          1.9018    0.4882   -3.5479 O.2       1 <0>        -0.5091
     26 H1         -1.3673   -4.4498   -2.9159 H         1 <0>         0.0634
     27 H2         -0.5222   -3.0725   -2.1696 H         1 <0>         0.0554
     28 H3         -1.3486   -4.2707   -1.1451 H         1 <0>         0.0619
     29 H4         -2.7062   -2.3719   -3.1119 H         1 <0>         0.0653
     30 H5         -3.5326   -3.5701   -2.0874 H         1 <0>         0.0833
     31 H6         -3.8873   -3.1643    0.2318 H         1 <0>         0.1313
     32 H7         -3.9284   -1.5528    2.0898 H         1 <0>         0.1304
     33 H8         -2.7615    0.6036    1.8866 H         1 <0>         0.1325
     34 H9         -1.5449    1.1592   -0.1773 H         1 <0>         0.1319
     35 H10         0.5763   -0.0870   -1.4089 H         1 <0>         0.1568
     36 H11        -0.4249    1.3742   -7.2369 H         1 <0>         0.1041
     37 H12        -0.0417   -0.3492   -7.4635 H         1 <0>         0.1041
     38 H13        -1.8642   -0.5348   -9.1346 H         1 <0>         0.0778
     39 H14        -2.2474    1.1886   -8.9081 H         1 <0>         0.0779
     40 H15         0.0377    1.7950   -9.6559 H         1 <0>         0.0711
     41 H16         0.4209    0.0717   -9.8825 H         1 <0>         0.0711
     42 H17        -1.4017   -0.1139  -11.5536 H         1 <0>         0.0753
     43 H18        -1.7849    1.6095  -11.3270 H         1 <0>         0.0753
     44 H19         0.5002    2.2159  -12.0748 H         1 <0>         0.1007
     45 H20         0.8834    0.4925  -12.3014 H         1 <0>         0.1007
     46 H21         1.1920    1.7884  -14.6441 H         1 <0>         0.4085
     47 H22         0.3073    1.8698  -16.7599 H         1 <0>         0.3880
     48 H23        -2.8858   -0.5746   -3.6418 H         1 <0>         0.4248
@<TRIPOS>BOND
     1    1    2 1
     2    1   26 1
     3    1   27 1
     4    1   28 1
     5    2    3 1
     6    2   29 1
     7    2   30 1
     8    3    8 ar
     9    3    4 ar
    10    4    5 ar
    11    4   31 1
    12    5    6 ar
    13    5   32 1
    14    6    7 ar
    15    6   33 1
    16    7    8 ar
    17    7   34 1
    18    8    9 1
    19    9   10 2
    20    9   14 1
    21   10   11 1
    22   10   35 1
    23   11   12 1
    24   11   25 2
    25   12   13 2
    26   13   15 1
    27   13   14 1
    28   14   48 1
    29   15   16 1
    30   16   17 1
    31   16   36 1
    32   16   37 1
    33   17   18 1
    34   17   38 1
    35   17   39 1
    36   18   19 1
    37   18   40 1
    38   18   41 1
    39   19   20 1
    40   19   42 1
    41   19   43 1
    42   20   21 1
    43   20   44 1
    44   20   45 1
    45   21   22 2
    46   21   23 am
    47   23   24 1
    48   23   46 1
    49   24   47 1
@<TRIPOS>MOLECULE
CHEMBL197577
   26    27     0     0     0
SMALL
USER_CHARGES

@<TRIPOS>ATOM
      1 C1         -0.0787    1.4450    0.0184 C.3       1 <0>        -0.1105
      2 C2          1.3574    1.9755   -0.0225 C.3       1 <0>         0.1071
      3 H1          1.3247    3.0623    0.0535 H         1 <0>         0.0821
      4 C3          1.9941    1.6058   -1.3569 C.3       1 <0>         0.1138
      5 H2          3.0753    1.7207   -1.2805 H         1 <0>         0.1038
      6 C4          1.6768    0.1918   -1.7385 C.2       1 <0>        -0.2099
      7 C5          0.7988   -0.5526   -1.1479 C.2       1 <0>        -0.0567
      8 C6         -0.0119   -0.0895    0.0355 C.3       1 <0>        -0.0964
      9 C7          0.7504   -0.5039    1.3079 C.3       1 <0>        -0.0988
     10 C8          2.1712    0.0628    1.2051 C.3       1 <0>         0.0137
     11 H3          2.7313   -0.1958    2.1037 H         1 <0>         0.0832
     12 O1          2.1135    1.4722    1.0683 O.3       1 <0>        -0.3662
     13 C9          2.8592   -0.5223   -0.0013 C.2       1 <0>         0.4914
     14 O2          3.6706    0.1425   -0.6226 O.co2     1 <0>        -0.6807
     15 O3          2.6043   -1.6607   -0.3560 O.co2     1 <0>        -0.6809
     16 C10        -1.3953   -0.6862    0.0035 C.2       1 <0>         0.5157
     17 O4         -1.5788   -1.7725   -0.5189 O.co2     1 <0>        -0.6972
     18 O5         -2.3312   -0.0827    0.4999 O.co2     1 <0>        -0.7104
     19 O6          1.5009    2.4845   -2.3701 O.3       1 <0>        -0.5870
     20 H4         -0.5789    1.8028    0.9183 H         1 <0>         0.0604
     21 H5         -0.6217    1.7810   -0.8650 H         1 <0>         0.0620
     22 H6          2.2205   -0.2371   -2.5673 H         1 <0>         0.0811
     23 H7          0.6387   -1.5535   -1.5208 H         1 <0>         0.1008
     24 H8          0.2522   -0.0948    2.1869 H         1 <0>         0.0472
     25 H9          0.7903   -1.5909    1.3773 H         1 <0>         0.0699
     26 H10         1.8613    2.3113   -3.2506 H         1 <0>         0.3626
@<TRIPOS>BOND
     1    1    8 1
     2    1    2 1
     3    1   20 1
     4    1   21 1
     5    2    3 1
     6    2   12 1
     7    2    4 1
     8    4    5 1
     9    4    6 1
    10    4   19 1
    11    6    7 2
    12    6   22 1
    13    7    8 1
    14    7   23 1
    15    8    9 1
    16    8   16 1
    17    9   10 1
    18    9   24 1
    19    9   25 1
    20   10   11 1
    21   10   12 1
    22   10   13 1
    23   13   14 2
    24   13   15 1
    25   16   17 2
    26   16   18 1
    27   19   26 1
@<TRIPOS>MOLECULE
CHEMBL1098067
   66    69     0     0     0
SMALL
USER_CHARGES

@<TRIPOS>ATOM
      1 C1          4.9338    0.9978    4.3683 C.3       1 <0>        -0.1895
      2 C2          4.3273    0.5142    3.0495 C.3       1 <0>        -0.0191
      3 N1          3.6151   -0.7511    3.2730 N.4       1 <0>        -0.3893
      4 C3          4.5778   -1.7925    3.6513 C.3       1 <0>        -0.0143
      5 C4          3.8326   -3.0919    3.9640 C.3       1 <0>        -0.1445
      6 C5          3.0553   -3.5396    2.7227 C.3       1 <0>        -0.1731
      7 C6          2.1076   -2.4160    2.2933 C.3       1 <0>         0.1203
      8 H1          1.5912   -2.7053    1.3780 H         1 <0>         0.1323
      9 C7          2.9167   -1.1416    2.0425 C.3       1 <0>        -0.0672
     10 N2          1.1256   -2.1725    3.3528 N.pl3     1 <0>        -0.4600
     11 C8          0.6023   -0.9775    3.7028 C.2       1 <0>         0.1864
     12 N3         -0.2385   -1.1536    4.6864 N.2       1 <0>        -0.4484
     13 C9         -0.2892   -2.4522    5.0047 C.2       1 <0>         0.0483
     14 C10         0.5582   -3.1192    4.1752 C.2       1 <0>         0.0254
     15 C11         0.8199   -4.5751    4.1614 C.ar      1 <0>        -0.0212
     16 C12         0.7657   -5.2844    2.9592 C.ar      1 <0>        -0.1028
     17 C13         1.0094   -6.6437    2.9428 C.ar      1 <0>        -0.1112
     18 C14         1.3079   -7.3123    4.1129 C.ar      1 <0>        -0.0899
     19 C15         1.3657   -6.6152    5.3244 C.ar      1 <0>        -0.0593
     20 C16         1.1262   -5.2398    5.3456 C.ar      1 <0>        -0.0760
     21 C17         1.6840   -7.3287    6.5723 C.2       1 <0>        -0.0218
     22 C18         1.9203   -8.6556    6.5486 C.2       1 <0>        -0.1895
     23 C19         2.2369   -9.3652    7.7898 C.2       1 <0>         0.5567
     24 O1          2.2867   -8.7570    8.8427 O.2       1 <0>        -0.5207
     25 N4          2.4732  -10.6919    7.7661 N.am      1 <0>        -0.5911
     26 O2          2.7793  -11.3780    8.9663 O.3       1 <0>        -0.3128
     27 C20        -1.1388   -3.0677    6.0866 C.3       1 <0>        -0.0827
     28 C21         0.9349    0.3452    3.0618 C.3       1 <0>        -0.0216
     29 C22         0.1151    0.5165    1.8090 C.ar      1 <0>        -0.1014
     30 C23         0.4683   -0.1566    0.6544 C.ar      1 <0>        -0.1441
     31 C24        -0.2837    0.0006   -0.4948 C.ar      1 <0>        -0.1094
     32 C25        -1.3892    0.8305   -0.4893 C.ar      1 <0>        -0.1057
     33 C26        -1.7429    1.5029    0.6655 C.ar      1 <0>        -0.1053
     34 C27        -0.9934    1.3424    1.8159 C.ar      1 <0>        -0.0925
     35 H2          5.5943    0.2285    4.7682 H         1 <0>         0.0824
     36 H3          5.5033    1.9106    4.1931 H         1 <0>         0.1118
     37 H4          4.1358    1.1990    5.0830 H         1 <0>         0.0823
     38 H5          3.6293    1.2627    2.6744 H         1 <0>         0.1329
     39 H6          5.1217    0.3598    2.3193 H         1 <0>         0.1366
     40 H7          5.2719   -1.9614    2.8280 H         1 <0>         0.1345
     41 H8          5.1324   -1.4711    4.5329 H         1 <0>         0.1368
     42 H9          4.5492   -3.8644    4.2429 H         1 <0>         0.1204
     43 H10         3.1383   -2.9243    4.7873 H         1 <0>         0.0888
     44 H11         3.7534   -3.7566    1.9142 H         1 <0>         0.1046
     45 H12         2.4779   -4.4338    2.9572 H         1 <0>         0.1289
     46 H13         2.2449   -0.3397    1.7363 H         1 <0>         0.1743
     47 H14         3.6462   -1.3243    1.2535 H         1 <0>         0.1566
     48 H15         0.5321   -4.7682    2.0397 H         1 <0>         0.1233
     49 H16         0.9660   -7.1862    2.0100 H         1 <0>         0.1357
     50 H17         1.4967   -8.3754    4.0931 H         1 <0>         0.1356
     51 H18         1.1740   -4.6950    6.2769 H         1 <0>         0.1370
     52 H19         1.7282   -6.7889    7.5067 H         1 <0>         0.1428
     53 H20         1.8761   -9.1953    5.6142 H         1 <0>         0.1363
     54 H21         2.4335  -11.1766    6.9269 H         1 <0>         0.4102
     55 H22         2.9329  -12.3256    8.8494 H         1 <0>         0.3923
     56 H23        -2.1057   -3.3523    5.6715 H         1 <0>         0.0780
     57 H24        -0.6389   -3.9517    6.4824 H         1 <0>         0.0761
     58 H25        -1.2864   -2.3442    6.8884 H         1 <0>         0.0802
     59 H26         0.7085    1.1532    3.7575 H         1 <0>         0.1229
     60 H27         1.9948    0.3700    2.8087 H         1 <0>         0.0736
     61 H28         1.3320   -0.8050    0.6501 H         1 <0>         0.1155
     62 H29        -0.0073   -0.5248   -1.3970 H         1 <0>         0.1284
     63 H30        -1.9763    0.9538   -1.3873 H         1 <0>         0.1308
     64 H31        -2.6064    2.1515    0.6697 H         1 <0>         0.1324
     65 H32        -1.2720    1.8648    2.7192 H         1 <0>         0.1314
     66 H33         2.9433   -0.6309    4.0162 H         1 <0>         0.4217
@<TRIPOS>BOND
     1    1    2 1
     2    1   35 1
     3    1   36 1
     4    1   37 1
     5    2    3 1
     6    2   38 1
     7    2   39 1
     8    3    9 1
     9    3    4 1
    10    3   66 1
    11    4    5 1
    12    4   40 1
    13    4   41 1
    14    5    6 1
    15    5   42 1
    16    5   43 1
    17    6    7 1
    18    6   44 1
    19    6   45 1
    20    7    8 1
    21    7    9 1
    22    7   10 1
    23    9   46 1
    24    9   47 1
    25   10   14 1
    26   10   11 1
    27   11   12 2
    28   11   28 1
    29   12   13 1
    30   13   14 2
    31   13   27 1
    32   14   15 1
    33   15   20 ar
    34   15   16 ar
    35   16   17 ar
    36   16   48 1
    37   17   18 ar
    38   17   49 1
    39   18   19 ar
    40   18   50 1
    41   19   20 ar
    42   19   21 1
    43   20   51 1
    44   21   22 2
    45   21   52 1
    46   22   23 1
    47   22   53 1
    48   23   24 2
    49   23   25 am
    50   25   26 1
    51   25   54 1
    52   26   55 1
    53   27   56 1
    54   27   57 1
    55   27   58 1
    56   28   29 1
    57   28   59 1
    58   28   60 1
    59   29   34 ar
    60   29   30 ar
    61   30   31 ar
    62   30   61 1
    63   31   32 ar
    64   31   62 1
    65   32   33 ar
    66   32   63 1
    67   33   34 ar
    68   33   64 1
    69   34   65 1
@<TRIPOS>MOLECULE
CHEMBL1098067__1
   67    70     0     0     0
SMALL
USER_CHARGES

@<TRIPOS>ATOM
      1 C1          0.1761   -4.8023   -1.3765 C.3       1 <0>        -0.1915
      2 C2         -1.2028   -4.9508   -0.7305 C.3       1 <0>        -0.0436
      3 N1         -1.8267   -3.6275   -0.5982 N.4       1 <0>        -0.3908
      4 C3         -1.0855   -2.8354    0.3906 C.3       1 <0>        -0.0193
      5 C4         -1.6816   -1.4285    0.4733 C.3       1 <0>        -0.1614
      6 C5         -3.1510   -1.5266    0.8933 C.3       1 <0>        -0.2150
      7 C6         -3.8986   -2.4160   -0.1043 C.3       1 <0>         0.1204
      8 H1         -4.9327   -2.5358    0.2187 H         1 <0>         0.1649
      9 C7         -3.2203   -3.7862   -0.1656 C.3       1 <0>        -0.0512
     10 N2         -3.8693   -1.7949   -1.4309 N.pl3     1 <0>        -0.4171
     11 C8         -3.6916   -0.4831   -1.6990 C.cat     1 <0>         0.3401
     12 N3         -3.7243   -0.3057   -2.9924 N.pl3     1 <0>        -0.4672
     13 C9         -3.9219   -1.4810   -3.6005 C.2       1 <0>         0.0886
     14 C10        -4.0119   -2.4392   -2.6389 C.2       1 <0>         0.0541
     15 C11        -4.2235   -3.8880   -2.8499 C.ar      1 <0>        -0.0611
     16 C12        -3.1918   -4.7917   -2.5850 C.ar      1 <0>        -0.1583
     17 C13        -3.3861   -6.1449   -2.7809 C.ar      1 <0>        -0.1039
     18 C14        -4.5998   -6.6153   -3.2401 C.ar      1 <0>        -0.0685
     19 C15        -5.6422   -5.7222   -3.5096 C.ar      1 <0>        -0.0267
     20 C16        -5.4531   -4.3537   -3.3073 C.ar      1 <0>        -0.0533
     21 C17        -6.9367   -6.2243   -3.9994 C.2       1 <0>        -0.0553
     22 C18        -7.1188   -7.5464   -4.1888 C.2       1 <0>        -0.1515
     23 C19        -8.4063   -8.0458   -4.6759 C.2       1 <0>         0.5499
     24 O1         -9.3118   -7.2672   -4.9098 O.2       1 <0>        -0.5126
     25 N4         -8.5883   -9.3677   -4.8652 N.am      1 <0>        -0.5868
     26 O2         -9.8333   -9.8506   -5.3362 O.3       1 <0>        -0.3077
     27 C20        -4.0214   -1.7046   -5.0875 C.3       1 <0>        -0.1109
     28 C21        -3.4884    0.6006   -0.6718 C.3       1 <0>        -0.0697
     29 C22        -4.8278    1.0708   -0.1659 C.ar      1 <0>        -0.1301
     30 C23        -5.5491    2.0052   -0.8853 C.ar      1 <0>        -0.1041
     31 C24        -6.7777    2.4365   -0.4214 C.ar      1 <0>        -0.1029
     32 C25        -7.2853    1.9332    0.7618 C.ar      1 <0>        -0.0896
     33 C26        -6.5643    0.9981    1.4808 C.ar      1 <0>        -0.1045
     34 C27        -5.3377    0.5636    1.0146 C.ar      1 <0>        -0.1283
     35 H2          0.6391   -5.7842   -1.4747 H         1 <0>         0.1192
     36 H3          0.0686   -4.3510   -2.3628 H         1 <0>         0.0796
     37 H4          0.8032   -4.1657   -0.7522 H         1 <0>         0.0865
     38 H5         -1.8299   -5.5873   -1.3548 H         1 <0>         0.1486
     39 H6         -1.0953   -5.4021    0.2559 H         1 <0>         0.1463
     40 H7         -1.1542   -3.3166    1.3663 H         1 <0>         0.1470
     41 H8         -0.0392   -2.7692    0.0920 H         1 <0>         0.1459
     42 H9         -1.1310   -0.8426    1.2093 H         1 <0>         0.1416
     43 H10        -1.6131   -0.9463   -0.5018 H         1 <0>         0.0818
     44 H11        -3.2169   -1.9621    1.8904 H         1 <0>         0.1377
     45 H12        -3.5957   -0.5314    0.8989 H         1 <0>         0.1529
     46 H13        -3.7502   -4.4220   -0.8749 H         1 <0>         0.1693
     47 H14        -3.2435   -4.2471    0.8219 H         1 <0>         0.1716
     48 H15        -2.2392   -4.4310   -2.2261 H         1 <0>         0.1185
     49 H16        -2.5844   -6.8383   -2.5742 H         1 <0>         0.1509
     50 H17        -4.7447   -7.6747   -3.3918 H         1 <0>         0.1513
     51 H18        -6.2554   -3.6594   -3.5090 H         1 <0>         0.1478
     52 H19        -7.7403   -5.5333   -4.2070 H         1 <0>         0.1504
     53 H20        -6.3151   -8.2374   -3.9812 H         1 <0>         0.1393
     54 H21        -7.8665   -9.9883   -4.6787 H         1 <0>         0.4111
     55 H22        -9.8685  -10.8113   -5.4407 H         1 <0>         0.3969
     56 H23        -3.0294   -1.9060   -5.4918 H         1 <0>         0.1101
     57 H24        -4.6735   -2.5556   -5.2841 H         1 <0>         0.1114
     58 H25        -4.4332   -0.8140   -5.5621 H         1 <0>         0.1033
     59 H26        -2.9034    0.2078    0.1599 H         1 <0>         0.1575
     60 H27        -2.9575    1.4371   -1.1262 H         1 <0>         0.1368
     61 H28        -5.1526    2.3984   -1.8098 H         1 <0>         0.1252
     62 H29        -7.3410    3.1670   -0.9831 H         1 <0>         0.1375
     63 H30        -8.2448    2.2707    1.1247 H         1 <0>         0.1383
     64 H31        -6.9607    0.6051    2.4054 H         1 <0>         0.1372
     65 H32        -4.7761   -0.1696    1.5744 H         1 <0>         0.1335
     66 H33        -1.8040   -3.1554   -1.4896 H         1 <0>         0.4120
     67 H34        -3.6217    0.5472   -3.4430 H         1 <0>         0.4681
@<TRIPOS>BOND
     1    1    2 1
     2    1   35 1
     3    1   36 1
     4    1   37 1
     5    2    3 1
     6    2   38 1
     7    2   39 1
     8    3    9 1
     9    3    4 1
    10    3   66 1
    11    4    5 1
    12    4   40 1
    13    4   41 1
    14    5    6 1
    15    5   42 1
    16    5   43 1
    17    6    7 1
    18    6   44 1
    19    6   45 1
    20    7    8 1
    21    7    9 1
    22    7   10 1
    23    9   46 1
    24    9   47 1
    25   10   14 1
    26   10   11 1
    27   11   12 2
    28   11   28 1
    29   12   13 1
    30   12   67 1
    31   13   14 2
    32   13   27 1
    33   14   15 1
    34   15   20 ar
    35   15   16 ar
    36   16   17 ar
    37   16   48 1
    38   17   18 ar
    39   17   49 1
    40   18   19 ar
    41   18   50 1
    42   19   20 ar
    43   19   21 1
    44   20   51 1
    45   21   22 2
    46   21   52 1
    47   22   23 1
    48   22   53 1
    49   23   24 2
    50   23   25 am
    51   25   26 1
    52   25   54 1
    53   26   55 1
    54   27   56 1
    55   27   57 1
    56   27   58 1
    57   28   29 1
    58   28   59 1
    59   28   60 1
    60   29   34 ar
    61   29   30 ar
    62   30   31 ar
    63   30   61 1
    64   31   32 ar
    65   31   62 1
    66   32   33 ar
    67   32   63 1
    68   33   34 ar
    69   33   64 1
    70   34   65 1
@<TRIPOS>MOLECULE
CHEMBL468595
   47    48     0     0     0
SMALL
USER_CHARGES

@<TRIPOS>ATOM
      1 C1         -0.0167    1.3778    0.0096 C.ar      1 <0>        -0.0702
      2 C2          1.1664    2.0888    0.0021 C.ar      1 <0>        -0.1375
      3 C3          2.3872    1.4123   -0.0132 C.ar      1 <0>        -0.0011
      4 C4          2.4064    0.0178   -0.0209 C.ar      1 <0>        -0.1643
      5 C5          1.2128   -0.6873   -0.0133 C.ar      1 <0>         0.2155
      6 C6          0.0021   -0.0041    0.0020 C.ar      1 <0>        -0.1743
      7 N1          1.2266   -2.0842   -0.0214 N.pl3     1 <0>        -0.8760
      8 C7          3.6559    2.1717   -0.0217 C.2       1 <0>         0.1259
      9 C8          3.7775    3.5256   -0.0106 C.2       1 <0>        -0.2311
     10 C9          5.1543    3.8378   -0.0246 C.2       1 <0>         0.0727
     11 N2          5.8253    2.7107   -0.0434 N.2       1 <0>        -0.2881
     12 O1          4.8940    1.6443   -0.0360 O.3       1 <0>        -0.0544
     13 C10         5.7394    5.2010   -0.0196 C.2       1 <0>         0.5931
     14 O2          5.0121    6.1741   -0.0020 O.2       1 <0>        -0.5070
     15 N3          7.0776    5.3600   -0.0345 N.am      1 <0>        -0.7122
     16 C11         7.6554    6.7063   -0.0295 C.3       1 <0>         0.1155
     17 C12         9.1820    6.6061   -0.0491 C.3       1 <0>        -0.1327
     18 C13         9.7854    8.0121   -0.0439 C.3       1 <0>        -0.1174
     19 C14        11.3120    7.9120   -0.0634 C.3       1 <0>        -0.1187
     20 C15        11.9155    9.3179   -0.0582 C.3       1 <0>        -0.1072
     21 C16        13.4421    9.2178   -0.0777 C.3       1 <0>        -0.1266
     22 C17        14.0364   10.6026   -0.0726 C.2       1 <0>         0.5207
     23 O3         13.3105   11.5740   -0.0550 O.2       1 <0>        -0.5185
     24 N4         15.3747   10.7616   -0.0875 N.am      1 <0>        -0.6003
     25 O4         15.9332   12.0628   -0.0827 O.3       1 <0>        -0.3205
     26 H1         -0.9601    1.9031    0.0260 H         1 <0>         0.1336
     27 H2          1.1475    3.1686    0.0078 H         1 <0>         0.1310
     28 H3          3.3480   -0.5110   -0.0331 H         1 <0>         0.1310
     29 H4         -0.9268   -0.5550    0.0083 H         1 <0>         0.1272
     30 H5          2.0714   -2.5609   -0.0323 H         1 <0>         0.4009
     31 H6          0.3914   -2.5775   -0.0161 H         1 <0>         0.4014
     32 H7          2.9647    4.2365    0.0060 H         1 <0>         0.1731
     33 H8          7.6582    4.5831   -0.0485 H         1 <0>         0.4092
     34 H9          7.3157    7.2507   -0.9106 H         1 <0>         0.0757
     35 H10         7.3374    7.2348    0.8692 H         1 <0>         0.0757
     36 H11         9.5217    6.0617    0.8320 H         1 <0>         0.0720
     37 H12         9.5000    6.0776   -0.9478 H         1 <0>         0.0720
     38 H13         9.4457    8.5565   -0.9249 H         1 <0>         0.0693
     39 H14         9.4675    8.5406    0.8548 H         1 <0>         0.0693
     40 H15        11.6517    7.3675    0.8177 H         1 <0>         0.0654
     41 H16        11.6300    7.3834   -0.9621 H         1 <0>         0.0654
     42 H17        11.5758    9.8624   -0.9393 H         1 <0>         0.0739
     43 H18        11.5975    9.8465    0.8405 H         1 <0>         0.0739
     44 H19        13.7818    8.6733    0.8033 H         1 <0>         0.0993
     45 H20        13.7600    8.6893   -0.9764 H         1 <0>         0.0993
     46 H21        15.9553    9.9847   -0.1016 H         1 <0>         0.4080
     47 H22        16.9000   12.0759   -0.0944 H         1 <0>         0.3878
@<TRIPOS>BOND
     1    1    6 ar
     2    1    2 ar
     3    1   26 1
     4    2    3 ar
     5    2   27 1
     6    3    4 ar
     7    3    8 1
     8    4    5 ar
     9    4   28 1
    10    5    6 ar
    11    5    7 1
    12    6   29 1
    13    7   30 1
    14    7   31 1
    15    8   12 1
    16    8    9 2
    17    9   10 1
    18    9   32 1
    19   10   11 2
    20   10   13 1
    21   11   12 1
    22   13   14 2
    23   13   15 am
    24   15   16 1
    25   15   33 1
    26   16   17 1
    27   16   34 1
    28   16   35 1
    29   17   18 1
    30   17   36 1
    31   17   37 1
    32   18   19 1
    33   18   38 1
    34   18   39 1
    35   19   20 1
    36   19   40 1
    37   19   41 1
    38   20   21 1
    39   20   42 1
    40   20   43 1
    41   21   22 1
    42   21   44 1
    43   21   45 1
    44   22   23 2
    45   22   24 am
    46   24   25 1
    47   24   46 1
    48   25   47 1
@<TRIPOS>MOLECULE
CHEMBL336935
   63    66     0     0     0
SMALL
USER_CHARGES

@<TRIPOS>ATOM
      1 C1          2.4928   -3.1696    0.5837 C.ar      1 <0>        -0.1705
      2 C2          3.6438   -2.4777    0.8340 C.ar      1 <0>        -0.0565
      3 C3          3.7360   -1.1516    0.3706 C.ar      1 <0>        -0.0841
      4 C4          4.8880   -0.3809    0.5906 C.ar      1 <0>        -0.0965
      5 C5          4.9377    0.9126    0.1202 C.ar      1 <0>         0.1426
      6 C6          3.8515    1.4608   -0.5722 C.ar      1 <0>        -0.1167
      7 C7          2.7256    0.7336   -0.7968 C.ar      1 <0>        -0.0714
      8 C8          2.6398   -0.5911   -0.3317 C.ar      1 <0>         0.1144
      9 N1          1.5422   -1.3240   -0.5438 N.ar      1 <0>        -0.4719
     10 C9          1.4526   -2.5588   -0.1127 C.ar      1 <0>         0.1295
     11 N2          6.0835    1.6856    0.3367 N.am      1 <0>        -0.6695
     12 C10         7.2998    1.1051    0.3267 C.2       1 <0>         0.5278
     13 O1          7.4110   -0.0647    0.0264 O.2       1 <0>        -0.4895
     14 C11         8.5216    1.9096    0.6886 C.3       1 <0>        -0.1274
     15 C12         8.3776    2.4415    2.1159 C.3       1 <0>        -0.1051
     16 C13         8.1764    1.2698    3.0790 C.3       1 <0>        -0.1292
     17 C14         7.8977    1.8068    4.4843 C.3       1 <0>        -0.1142
     18 C15         7.6964    0.6350    5.4473 C.3       1 <0>        -0.1433
     19 C16         7.4177    1.1720    6.8527 C.3       1 <0>         0.1337
     20 N3          7.2250    0.0501    7.7748 N.am      1 <0>        -0.4798
     21 C17         8.2860   -0.6676    8.1939 C.2       1 <0>         0.4792
     22 O2          8.1265   -1.5964    8.9573 O.2       1 <0>        -0.5526
     23 O3          5.9240   -0.2803    8.2258 O.3       1 <0>        -0.3373
     24 C18         9.7444    1.0332    0.6001 C.2       1 <0>         0.5304
     25 O4          9.7579   -0.0466    1.1522 O.2       1 <0>        -0.4774
     26 N4         10.8231    1.4494   -0.0926 N.am      1 <0>        -0.6741
     27 C19        11.9033    0.5831   -0.2919 C.ar      1 <0>         0.1607
     28 C20        11.6725   -0.7884   -0.4513 C.ar      1 <0>        -0.0983
     29 C21        12.7023   -1.6533   -0.6469 C.ar      1 <0>        -0.0717
     30 C22        14.0240   -1.1742   -0.6917 C.ar      1 <0>         0.1154
     31 C23        14.2643    0.2134   -0.5310 C.ar      1 <0>        -0.0823
     32 C24        13.1841    1.0878   -0.3354 C.ar      1 <0>        -0.1334
     33 C25        15.5892    0.6868   -0.5768 C.ar      1 <0>        -0.0624
     34 C26        16.5913   -0.2201   -0.7757 C.ar      1 <0>        -0.1699
     35 C27        16.2861   -1.5708   -0.9263 C.ar      1 <0>         0.1262
     36 N5         15.0510   -2.0081   -0.8834 N.ar      1 <0>        -0.4695
     37 H1          2.3913   -4.1903    0.9216 H         1 <0>         0.1397
     38 H2          4.4603   -2.9353    1.3728 H         1 <0>         0.1393
     39 H3          5.7286   -0.7986    1.1248 H         1 <0>         0.1411
     40 H4          3.9091    2.4770   -0.9331 H         1 <0>         0.1351
     41 H5          1.8969    1.1728   -1.3322 H         1 <0>         0.1419
     42 H6          0.5485   -3.1179   -0.3038 H         1 <0>         0.1608
     43 H7          6.0025    2.6393    0.4939 H         1 <0>         0.4128
     44 H8          8.6235    2.7464   -0.0024 H         1 <0>         0.1206
     45 H9          9.2790    2.9884    2.3925 H         1 <0>         0.0852
     46 H10         7.5171    3.1083    2.1701 H         1 <0>         0.0847
     47 H11         7.3314    0.6670    2.7462 H         1 <0>         0.0645
     48 H12         9.0765    0.6553    3.0967 H         1 <0>         0.0839
     49 H13         8.7426    2.4096    4.8171 H         1 <0>         0.0681
     50 H14         6.9976    2.4212    4.4666 H         1 <0>         0.0668
     51 H15         6.8515    0.0322    5.1145 H         1 <0>         0.0727
     52 H16         8.5965    0.0206    5.4651 H         1 <0>         0.0697
     53 H17         8.2627    1.7748    7.1855 H         1 <0>         0.0923
     54 H18         6.5176    1.7865    6.8349 H         1 <0>         0.0955
     55 H19         9.2783   -0.4156    7.8500 H         1 <0>         0.1531
     56 H20         5.8971   -1.0343    8.8307 H         1 <0>         0.3976
     57 H21        10.8504    2.3496   -0.4528 H         1 <0>         0.4120
     58 H22        10.6608   -1.1649   -0.4179 H         1 <0>         0.1443
     59 H23        12.5059   -2.7084   -0.7675 H         1 <0>         0.1407
     60 H24        13.3560    2.1474   -0.2164 H         1 <0>         0.1343
     61 H25        15.8075    1.7379   -0.4584 H         1 <0>         0.1388
     62 H26        17.6188    0.1098   -0.8164 H         1 <0>         0.1389
     63 H27        17.0884   -2.2766   -1.0828 H         1 <0>         0.1602
@<TRIPOS>BOND
     1    1   10 ar
     2    1    2 ar
     3    1   37 1
     4    2    3 ar
     5    2   38 1
     6    3    8 ar
     7    3    4 ar
     8    4    5 ar
     9    4   39 1
    10    5    6 ar
    11    5   11 1
    12    6    7 ar
    13    6   40 1
    14    7    8 ar
    15    7   41 1
    16    8    9 ar
    17    9   10 ar
    18   10   42 1
    19   11   12 am
    20   11   43 1
    21   12   13 2
    22   12   14 1
    23   14   15 1
    24   14   24 1
    25   14   44 1
    26   15   16 1
    27   15   45 1
    28   15   46 1
    29   16   17 1
    30   16   47 1
    31   16   48 1
    32   17   18 1
    33   17   49 1
    34   17   50 1
    35   18   19 1
    36   18   51 1
    37   18   52 1
    38   19   20 1
    39   19   53 1
    40   19   54 1
    41   20   21 am
    42   20   23 1
    43   21   22 2
    44   21   55 1
    45   23   56 1
    46   24   25 2
    47   24   26 am
    48   26   27 1
    49   26   57 1
    50   27   32 ar
    51   27   28 ar
    52   28   29 ar
    53   28   58 1
    54   29   30 ar
    55   29   59 1
    56   30   36 ar
    57   30   31 ar
    58   31   32 ar
    59   31   33 ar
    60   32   60 1
    61   33   34 ar
    62   33   61 1
    63   34   35 ar
    64   34   62 1
    65   35   36 ar
    66   35   63 1
@<TRIPOS>MOLECULE
CHEMBL127328
   45    47     0     0     0
SMALL
USER_CHARGES

@<TRIPOS>ATOM
      1 C1         -0.0164    1.3568    0.0095 C.ar      1 <0>        -0.1291
      2 C2          1.1685    2.0907    0.0021 C.ar      1 <0>        -0.1047
      3 C3          2.3783    1.4677   -0.0132 C.ar      1 <0>        -0.1161
      4 C4          2.4374    0.0632   -0.0213 C.ar      1 <0>        -0.0130
      5 C5          3.6678   -0.6139   -0.0366 C.ar      1 <0>        -0.1563
      6 C6          3.6868   -1.9795   -0.0437 C.ar      1 <0>         0.1338
      7 C7          2.4965   -2.7136   -0.0364 C.ar      1 <0>        -0.1908
      8 C8          1.2893   -2.0877   -0.0220 C.ar      1 <0>        -0.0643
      9 C9          1.2323   -0.6830   -0.0134 C.ar      1 <0>        -0.0853
     10 C10         0.0021   -0.0041    0.0020 C.ar      1 <0>        -0.0942
     11 O1          4.8779   -2.6334   -0.0585 O.3       1 <0>        -0.3154
     12 C11         4.8337   -4.0617   -0.0653 C.3       1 <0>         0.0574
     13 C12         6.2597   -4.6160   -0.0818 C.3       1 <0>        -0.1192
     14 C13         6.2124   -6.1453   -0.0891 C.3       1 <0>        -0.1174
     15 C14         7.6384   -6.6995   -0.1057 C.3       1 <0>        -0.1180
     16 C15         7.5911   -8.2288   -0.1130 C.3       1 <0>        -0.1150
     17 C16         9.0171   -8.7830   -0.1295 C.3       1 <0>        -0.1399
     18 C17         8.9705  -10.2893   -0.1367 C.2       1 <0>         0.4508
     19 O2          7.9016  -10.8632   -0.1293 O.2       1 <0>        -0.4235
     20 C18        10.2167  -11.0611   -0.1526 C.2       1 <0>         0.0970
     21 N1         11.4321  -10.5575   -0.1560 N.2       1 <0>        -0.4194
     22 C19        12.3098  -11.5595   -0.1709 C.2       1 <0>        -0.0441
     23 C20        11.6135  -12.7220   -0.1768 C.2       1 <0>        -0.0388
     24 O3         10.3095  -12.4044   -0.1603 O.3       1 <0>        -0.1708
     25 H1         -0.9634    1.8758    0.0259 H         1 <0>         0.1232
     26 H2          1.1258    3.1698    0.0083 H         1 <0>         0.1240
     27 H3          3.2883    2.0493   -0.0195 H         1 <0>         0.1282
     28 H4          4.5937   -0.0579   -0.0430 H         1 <0>         0.1346
     29 H5          2.5366   -3.7928   -0.0426 H         1 <0>         0.1303
     30 H6          0.3781   -2.6674   -0.0172 H         1 <0>         0.1319
     31 H7         -0.9242   -0.5594    0.0082 H         1 <0>         0.1266
     32 H8          4.3175   -4.4135    0.8279 H         1 <0>         0.0625
     33 H9          4.3003   -4.4045   -0.9519 H         1 <0>         0.0625
     34 H10         6.7759   -4.2642   -0.9751 H         1 <0>         0.0751
     35 H11         6.7930   -4.2732    0.8048 H         1 <0>         0.0751
     36 H12         5.6962   -6.4971    0.8041 H         1 <0>         0.0672
     37 H13         5.6790   -6.4880   -0.9757 H         1 <0>         0.0672
     38 H14         8.1546   -6.3477   -0.9989 H         1 <0>         0.0682
     39 H15         8.1717   -6.3567    0.7810 H         1 <0>         0.0682
     40 H16         7.0749   -8.5806    0.7803 H         1 <0>         0.0724
     41 H17         7.0577   -8.5716   -0.9996 H         1 <0>         0.0725
     42 H18         9.5333   -8.4312   -1.0227 H         1 <0>         0.1118
     43 H19         9.5504   -8.4402    0.7571 H         1 <0>         0.1119
     44 H20        13.3854  -11.4625   -0.1776 H         1 <0>         0.1962
     45 H21        12.0301  -13.7183   -0.1891 H         1 <0>         0.2266
@<TRIPOS>BOND
     1    1   10 ar
     2    1    2 ar
     3    1   25 1
     4    2    3 ar
     5    2   26 1
     6    3    4 ar
     7    3   27 1
     8    4    9 ar
     9    4    5 ar
    10    5    6 ar
    11    5   28 1
    12    6    7 ar
    13    6   11 1
    14    7    8 ar
    15    7   29 1
    16    8    9 ar
    17    8   30 1
    18    9   10 ar
    19   10   31 1
    20   11   12 1
    21   12   13 1
    22   12   32 1
    23   12   33 1
    24   13   14 1
    25   13   34 1
    26   13   35 1
    27   14   15 1
    28   14   36 1
    29   14   37 1
    30   15   16 1
    31   15   38 1
    32   15   39 1
    33   16   17 1
    34   16   40 1
    35   16   41 1
    36   17   18 1
    37   17   42 1
    38   17   43 1
    39   18   19 2
    40   18   20 1
    41   20   24 1
    42   20   21 2
    43   21   22 1
    44   22   23 2
    45   22   44 1
    46   23   24 1
    47   23   45 1
@<TRIPOS>MOLECULE
CHEMBL1096433
   58    61     0     0     0
SMALL
USER_CHARGES

@<TRIPOS>ATOM
      1 C1         -0.1936    1.3157    0.6536 C.3       1 <0>        -0.1016
      2 C2         -0.1491   -0.1658    0.3815 C.2       1 <0>         0.0538
      3 C3         -0.0400   -0.7495   -0.8452 C.2       1 <0>         0.1055
      4 N1         -0.0360   -2.1105   -0.6365 N.pl3     1 <0>        -0.3939
      5 C4         -0.1429   -2.3053    0.7100 C.cat     1 <0>         0.3590
      6 N2         -0.2037   -1.1313    1.3005 N.pl3     1 <0>        -0.4685
      7 C5         -0.1782   -3.6167    1.3918 C.ar      1 <0>        -0.0859
      8 C6         -0.8168   -4.7028    0.7876 C.ar      1 <0>        -0.0794
      9 C7         -0.8520   -5.9288    1.4221 C.ar      1 <0>        -0.1034
     10 C8         -0.2570   -6.0919    2.6569 C.ar      1 <0>        -0.0593
     11 C9          0.3861   -5.0136    3.2743 C.ar      1 <0>        -0.0520
     12 C10         0.4297   -3.7733    2.6349 C.ar      1 <0>        -0.0561
     13 C11         1.0197   -5.1879    4.5918 C.2       1 <0>        -0.0349
     14 C12         0.9807   -6.3876    5.2050 C.2       1 <0>        -0.1732
     15 C13         1.6109   -6.5609    6.5154 C.2       1 <0>         0.5550
     16 O1          2.1698   -5.6218    7.0508 O.2       1 <0>        -0.5178
     17 N3          1.5720   -7.7605    7.1286 N.am      1 <0>        -0.5891
     18 O2          2.1814   -7.9281    8.3957 O.3       1 <0>        -0.3109
     19 C14         0.0633   -3.1504   -1.6636 C.3       1 <0>         0.0886
     20 C15        -1.3232   -3.4211   -2.2511 C.3       1 <0>        -0.0952
     21 C16        -1.2232   -4.5007   -3.2978 C.ar      1 <0>        -0.1029
     22 C17        -0.9785   -4.1646   -4.6162 C.ar      1 <0>        -0.1071
     23 C18        -0.8868   -5.1549   -5.5763 C.ar      1 <0>        -0.1125
     24 C19        -1.0394   -6.4813   -5.2180 C.ar      1 <0>        -0.1065
     25 C20        -1.2832   -6.8174   -3.8995 C.ar      1 <0>        -0.1132
     26 C21        -1.3706   -5.8274   -2.9386 C.ar      1 <0>        -0.1129
     27 C22         0.0547   -0.0560   -2.1471 C.ar      1 <0>        -0.0651
     28 C23         1.1264   -0.3154   -3.0032 C.ar      1 <0>        -0.0913
     29 C24         1.2086    0.3349   -4.2170 C.ar      1 <0>        -0.1107
     30 C25         0.2318    1.2424   -4.5867 C.ar      1 <0>        -0.0850
     31 C26        -0.8329    1.5044   -3.7427 C.ar      1 <0>        -0.1106
     32 C27        -0.9301    0.8568   -2.5285 C.ar      1 <0>        -0.0824
     33 H1          0.8202    1.6893    0.7979 H         1 <0>         0.1031
     34 H2         -0.6522    1.8270   -0.1929 H         1 <0>         0.1062
     35 H3         -0.7811    1.5026    1.5525 H         1 <0>         0.0941
     36 H4         -1.2846   -4.5830   -0.1785 H         1 <0>         0.1401
     37 H5         -1.3478   -6.7641    0.9500 H         1 <0>         0.1495
     38 H6         -0.2883   -7.0535    3.1475 H         1 <0>         0.1471
     39 H7          0.9284   -2.9381    3.1041 H         1 <0>         0.1410
     40 H8          1.5157   -4.3544    5.0669 H         1 <0>         0.1470
     41 H9          0.4847   -7.2211    4.7299 H         1 <0>         0.1388
     42 H10         1.1265   -8.5091    6.7018 H         1 <0>         0.4110
     43 H11         2.1017   -8.8221    8.7553 H         1 <0>         0.3939
     44 H12         0.7344   -2.8166   -2.4550 H         1 <0>         0.1254
     45 H13         0.4540   -4.0652   -1.2178 H         1 <0>         0.1228
     46 H14        -1.9969   -3.7454   -1.4579 H         1 <0>         0.0868
     47 H15        -1.7096   -2.5089   -2.7057 H         1 <0>         0.0935
     48 H16        -0.8593   -3.1284   -4.8961 H         1 <0>         0.1233
     49 H17        -0.6963   -4.8923   -6.6064 H         1 <0>         0.1287
     50 H18        -0.9684   -7.2549   -5.9682 H         1 <0>         0.1289
     51 H19        -1.4027   -7.8536   -3.6196 H         1 <0>         0.1286
     52 H20        -1.5574   -6.0903   -1.9079 H         1 <0>         0.1207
     53 H21         1.8897   -1.0233   -2.7156 H         1 <0>         0.1251
     54 H22         2.0374    0.1354   -4.8801 H         1 <0>         0.1367
     55 H23         0.3008    1.7488   -5.5381 H         1 <0>         0.1362
     56 H24        -1.5916    2.2145   -4.0369 H         1 <0>         0.1383
     57 H25        -1.7641    1.0586   -1.8727 H         1 <0>         0.1322
     58 H26        -0.2794   -0.9894    2.2570 H         1 <0>         0.4606
@<TRIPOS>BOND
     1    1    2 1
     2    1   33 1
     3    1   34 1
     4    1   35 1
     5    2    6 1
     6    2    3 2
     7    3    4 1
     8    3   27 1
     9    4    5 1
    10    4   19 1
    11    5    6 2
    12    5    7 1
    13    6   58 1
    14    7   12 ar
    15    7    8 ar
    16    8    9 ar
    17    8   36 1
    18    9   10 ar
    19    9   37 1
    20   10   11 ar
    21   10   38 1
    22   11   12 ar
    23   11   13 1
    24   12   39 1
    25   13   14 2
    26   13   40 1
    27   14   15 1
    28   14   41 1
    29   15   16 2
    30   15   17 am
    31   17   18 1
    32   17   42 1
    33   18   43 1
    34   19   20 1
    35   19   44 1
    36   19   45 1
    37   20   21 1
    38   20   46 1
    39   20   47 1
    40   21   26 ar
    41   21   22 ar
    42   22   23 ar
    43   22   48 1
    44   23   24 ar
    45   23   49 1
    46   24   25 ar
    47   24   50 1
    48   25   26 ar
    49   25   51 1
    50   26   52 1
    51   27   32 ar
    52   27   28 ar
    53   28   29 ar
    54   28   53 1
    55   29   30 ar
    56   29   54 1
    57   30   31 ar
    58   30   55 1
    59   31   32 ar
    60   31   56 1
    61   32   57 1
@<TRIPOS>MOLECULE
CHEMBL1096433__1
   57    60     0     0     0
SMALL
USER_CHARGES

@<TRIPOS>ATOM
      1 C1         -0.2307    1.4357    0.4945 C.3       1 <0>        -0.0719
      2 C2         -0.1469   -0.0459    0.2320 C.2       1 <0>         0.0336
      3 C3          0.1053   -0.6304   -0.9730 C.2       1 <0>         0.0181
      4 N1          0.0930   -1.9910   -0.7628 N.pl3     1 <0>        -0.4406
      5 C4         -0.1663   -2.1849    0.5630 C.2       1 <0>         0.2464
      6 N2         -0.3010   -1.0105    1.1404 N.2       1 <0>        -0.4652
      7 C5         -0.2721   -3.4957    1.2387 C.ar      1 <0>        -0.0101
      8 C6         -0.5234   -4.6498    0.4920 C.ar      1 <0>        -0.1162
      9 C7         -0.6233   -5.8754    1.1203 C.ar      1 <0>        -0.1153
     10 C8         -0.4755   -5.9710    2.4893 C.ar      1 <0>        -0.0907
     11 C9         -0.2235   -4.8243    3.2501 C.ar      1 <0>        -0.0748
     12 C10        -0.1158   -3.5833    2.6197 C.ar      1 <0>        -0.0490
     13 C11        -0.0669   -4.9267    4.7105 C.2       1 <0>        -0.0015
     14 C12        -0.1663   -6.1266    5.3165 C.2       1 <0>        -0.2091
     15 C13        -0.0105   -6.2284    6.7689 C.2       1 <0>         0.5603
     16 O1          0.2086   -5.2297    7.4289 O.2       1 <0>        -0.5226
     17 N3         -0.1098   -7.4282    7.3749 N.am      1 <0>        -0.5937
     18 O2          0.0408   -7.5267    8.7794 O.3       1 <0>        -0.3156
     19 C14         0.3153   -3.0316   -1.7698 C.3       1 <0>         0.0962
     20 C15        -1.0005   -3.3342   -2.4895 C.3       1 <0>        -0.0977
     21 C16        -0.7538   -4.3374   -3.5867 C.ar      1 <0>        -0.0877
     22 C17        -0.4204   -3.9049   -4.8566 C.ar      1 <0>        -0.1101
     23 C18        -0.1941   -4.8251   -5.8629 C.ar      1 <0>        -0.1156
     24 C19        -0.3008   -6.1779   -5.5993 C.ar      1 <0>        -0.1177
     25 C20        -0.6334   -6.6104   -4.3292 C.ar      1 <0>        -0.1157
     26 C21        -0.8555   -5.6903   -3.3218 C.ar      1 <0>        -0.1154
     27 C22         0.3447    0.0621   -2.2568 C.ar      1 <0>        -0.0139
     28 C23         1.4971   -0.2102   -2.9960 C.ar      1 <0>        -0.1087
     29 C24         1.7141    0.4393   -4.1936 C.ar      1 <0>        -0.1150
     30 C25         0.7927    1.3588   -4.6624 C.ar      1 <0>        -0.1132
     31 C26        -0.3515    1.6336   -3.9345 C.ar      1 <0>        -0.1145
     32 C27        -0.5835    0.9870   -2.7382 C.ar      1 <0>        -0.0967
     33 H1          0.7578    1.8154    0.7532 H         1 <0>         0.0707
     34 H2         -0.5921    1.9433   -0.3999 H         1 <0>         0.0708
     35 H3         -0.9183    1.6202    1.3199 H         1 <0>         0.0741
     36 H4         -0.6402   -4.5829   -0.5795 H         1 <0>         0.1352
     37 H5         -0.8184   -6.7636    0.5376 H         1 <0>         0.1328
     38 H6         -0.5549   -6.9328    2.9742 H         1 <0>         0.1324
     39 H7          0.0830   -2.6949    3.2007 H         1 <0>         0.1433
     40 H8          0.1275   -4.0404    5.2962 H         1 <0>         0.1423
     41 H9         -0.3607   -7.0129    4.7308 H         1 <0>         0.1351
     42 H10        -0.2845   -8.2243    6.8488 H         1 <0>         0.4093
     43 H11        -0.0467   -8.4266    9.1222 H         1 <0>         0.3887
     44 H12         1.0537   -2.6855   -2.4930 H         1 <0>         0.0972
     45 H13         0.6796   -3.9363   -1.2831 H         1 <0>         0.1049
     46 H14        -1.7182   -3.7428   -1.7781 H         1 <0>         0.0834
     47 H15        -1.3988   -2.4154   -2.9201 H         1 <0>         0.0851
     48 H16        -0.3370   -2.8480   -5.0625 H         1 <0>         0.1218
     49 H17         0.0658   -4.4872   -6.8553 H         1 <0>         0.1240
     50 H18        -0.1247   -6.8969   -6.3858 H         1 <0>         0.1236
     51 H19        -0.7172   -7.6673   -4.1234 H         1 <0>         0.1245
     52 H20        -1.1117   -6.0283   -2.3286 H         1 <0>         0.1215
     53 H21         2.2173   -0.9274   -2.6309 H         1 <0>         0.1183
     54 H22         2.6055    0.2298   -4.7663 H         1 <0>         0.1253
     55 H23         0.9674    1.8644   -5.6006 H         1 <0>         0.1248
     56 H24        -1.0664    2.3529   -4.3057 H         1 <0>         0.1275
     57 H25        -1.4793    1.1989   -2.1733 H         1 <0>         0.1270
@<TRIPOS>BOND
     1    1    2 1
     2    1   33 1
     3    1   34 1
     4    1   35 1
     5    2    6 1
     6    2    3 2
     7    3    4 1
     8    3   27 1
     9    4    5 1
    10    4   19 1
    11    5    6 2
    12    5    7 1
    13    7   12 ar
    14    7    8 ar
    15    8    9 ar
    16    8   36 1
    17    9   10 ar
    18    9   37 1
    19   10   11 ar
    20   10   38 1
    21   11   12 ar
    22   11   13 1
    23   12   39 1
    24   13   14 2
    25   13   40 1
    26   14   15 1
    27   14   41 1
    28   15   16 2
    29   15   17 am
    30   17   18 1
    31   17   42 1
    32   18   43 1
    33   19   20 1
    34   19   44 1
    35   19   45 1
    36   20   21 1
    37   20   46 1
    38   20   47 1
    39   21   26 ar
    40   21   22 ar
    41   22   23 ar
    42   22   48 1
    43   23   24 ar
    44   23   49 1
    45   24   25 ar
    46   24   50 1
    47   25   26 ar
    48   25   51 1
    49   26   52 1
    50   27   32 ar
    51   27   28 ar
    52   28   29 ar
    53   28   53 1
    54   29   30 ar
    55   29   54 1
    56   30   31 ar
    57   30   55 1
    58   31   32 ar
    59   31   56 1
    60   32   57 1
@<TRIPOS>MOLECULE
CHEMBL1095451
   58    61     0     0     0
SMALL
USER_CHARGES

@<TRIPOS>ATOM
      1 C1          0.2174    1.4966   -0.0136 C.3       1 <0>        -0.1040
      2 C2          0.1055   -0.0063   -0.0086 C.2       1 <0>         0.0764
      3 C3         -0.0884   -0.8077   -1.0906 C.2       1 <0>         0.0837
      4 N1         -0.1310   -2.0826   -0.6629 N.pl3     1 <0>        -0.4663
      5 C4          0.0284   -2.1059    0.6402 C.cat     1 <0>         0.3612
      6 N2          0.1851   -0.8245    1.0830 N.pl3     1 <0>        -0.3969
      7 C5          0.3959   -0.4042    2.4705 C.3       1 <0>         0.0844
      8 C6          1.8942   -0.2367    2.7307 C.3       1 <0>        -0.0911
      9 C7          2.1192    0.0761    4.1876 C.ar      1 <0>        -0.1031
     10 C8          2.1272    1.3893    4.6193 C.ar      1 <0>        -0.1099
     11 C9          2.3336    1.6763    5.9557 C.ar      1 <0>        -0.1135
     12 C10         2.5315    0.6500    6.8605 C.ar      1 <0>        -0.1072
     13 C11         2.5226   -0.6632    6.4289 C.ar      1 <0>        -0.1142
     14 C12         2.3119   -0.9504    5.0932 C.ar      1 <0>        -0.1106
     15 C13         0.0421   -3.3193    1.4865 C.ar      1 <0>        -0.0854
     16 C14        -0.5642   -3.3016    2.7448 C.ar      1 <0>        -0.0739
     17 C15        -0.5531   -4.4325    3.5374 C.ar      1 <0>        -0.1018
     18 C16         0.0568   -5.5885    3.0936 C.ar      1 <0>        -0.0605
     19 C17         0.6681   -5.6211    1.8357 C.ar      1 <0>        -0.0514
     20 C18         0.6543   -4.4823    1.0279 C.ar      1 <0>        -0.0569
     21 C19         1.3187   -6.8542    1.3626 C.2       1 <0>        -0.0351
     22 C20         1.3259   -7.9541    2.1419 C.2       1 <0>        -0.1731
     23 C21         1.9730   -9.1805    1.6713 C.2       1 <0>         0.5549
     24 O1          2.5041   -9.2068    0.5767 O.2       1 <0>        -0.5178
     25 N3          1.9802  -10.2802    2.4505 N.am      1 <0>        -0.5890
     26 O2          2.6059  -11.4662    1.9954 O.3       1 <0>        -0.3109
     27 C22        -0.2287   -0.3549   -2.4965 C.ar      1 <0>        -0.0644
     28 C23        -1.0424    0.7342   -2.8026 C.ar      1 <0>        -0.0866
     29 C24        -1.1693    1.1511   -4.1121 C.ar      1 <0>        -0.1096
     30 C25        -0.4910    0.4896   -5.1200 C.ar      1 <0>        -0.0866
     31 C26         0.3180   -0.5920   -4.8220 C.ar      1 <0>        -0.1094
     32 C27         0.4572   -1.0136   -3.5152 C.ar      1 <0>        -0.0955
     33 H1          1.2608    1.7827   -0.1461 H         1 <0>         0.1048
     34 H2         -0.3774    1.9025   -0.8318 H         1 <0>         0.1089
     35 H3         -0.1502    1.8914    0.9335 H         1 <0>         0.0935
     36 H4         -0.1113    0.5450    2.6436 H         1 <0>         0.1265
     37 H5         -0.0077   -1.1599    3.1444 H         1 <0>         0.1242
     38 H6          2.4132   -1.1599    2.4730 H         1 <0>         0.0865
     39 H7          2.2801    0.5796    2.1200 H         1 <0>         0.0903
     40 H8          1.9726    2.1911    3.9125 H         1 <0>         0.1240
     41 H9          2.3406    2.7023    6.2929 H         1 <0>         0.1288
     42 H10         2.6934    0.8743    7.9045 H         1 <0>         0.1285
     43 H11         2.6775   -1.4650    7.1357 H         1 <0>         0.1278
     44 H12         2.3013   -1.9765    4.7566 H         1 <0>         0.1214
     45 H13        -1.0428   -2.4006    3.0991 H         1 <0>         0.1389
     46 H14        -1.0236   -4.4123    4.5092 H         1 <0>         0.1500
     47 H15         0.0625   -6.4691    3.7187 H         1 <0>         0.1469
     48 H16         1.1206   -4.5023    0.0539 H         1 <0>         0.1404
     49 H17         1.7901   -6.8775    0.3912 H         1 <0>         0.1467
     50 H18         0.8545   -7.9307    3.1133 H         1 <0>         0.1388
     51 H19         1.5569  -10.2592    3.3229 H         1 <0>         0.4110
     52 H20         2.5598  -12.2007    2.6226 H         1 <0>         0.3939
     53 H21        -1.5730    1.2510   -2.0165 H         1 <0>         0.1337
     54 H22        -1.7997    1.9950   -4.3505 H         1 <0>         0.1390
     55 H23        -0.5938    0.8187   -6.1435 H         1 <0>         0.1368
     56 H24         0.8453   -1.1048   -5.6128 H         1 <0>         0.1373
     57 H25         1.0926   -1.8555   -3.2830 H         1 <0>         0.1254
     58 H26        -0.2596   -2.8608   -1.2274 H         1 <0>         0.4601
@<TRIPOS>BOND
     1    1    2 1
     2    1   33 1
     3    1   34 1
     4    1   35 1
     5    2    6 1
     6    2    3 2
     7    3    4 1
     8    3   27 1
     9    4    5 2
    10    4   58 1
    11    5    6 1
    12    5   15 1
    13    6    7 1
    14    7    8 1
    15    7   36 1
    16    7   37 1
    17    8    9 1
    18    8   38 1
    19    8   39 1
    20    9   14 ar
    21    9   10 ar
    22   10   11 ar
    23   10   40 1
    24   11   12 ar
    25   11   41 1
    26   12   13 ar
    27   12   42 1
    28   13   14 ar
    29   13   43 1
    30   14   44 1
    31   15   20 ar
    32   15   16 ar
    33   16   17 ar
    34   16   45 1
    35   17   18 ar
    36   17   46 1
    37   18   19 ar
    38   18   47 1
    39   19   20 ar
    40   19   21 1
    41   20   48 1
    42   21   22 2
    43   21   49 1
    44   22   23 1
    45   22   50 1
    46   23   24 2
    47   23   25 am
    48   25   26 1
    49   25   51 1
    50   26   52 1
    51   27   32 ar
    52   27   28 ar
    53   28   29 ar
    54   28   53 1
    55   29   30 ar
    56   29   54 1
    57   30   31 ar
    58   30   55 1
    59   31   32 ar
    60   31   56 1
    61   32   57 1
@<TRIPOS>MOLECULE
CHEMBL1095451__1
   57    60     0     0     0
SMALL
USER_CHARGES

@<TRIPOS>ATOM
      1 C1          0.1429    1.4998    0.0301 C.3       1 <0>        -0.0831
      2 C2          0.0722   -0.0054    0.0105 C.2       1 <0>         0.0086
      3 C3         -0.1011   -0.7940   -1.0844 C.2       1 <0>         0.0413
      4 N1         -0.1082   -2.0764   -0.6777 N.2       1 <0>        -0.4534
      5 C4          0.0535   -2.1168    0.6246 C.2       1 <0>         0.2408
      6 N2          0.1758   -0.8390    1.0883 N.pl3     1 <0>        -0.4454
      7 C5          0.3768   -0.4360    2.4824 C.3       1 <0>         0.0973
      8 C6         -0.9751   -0.1045    3.1175 C.3       1 <0>        -0.1001
      9 C7         -0.7683    0.3101    4.5515 C.ar      1 <0>        -0.0888
     10 C8         -0.7846   -0.6405    5.5550 C.ar      1 <0>        -0.1155
     11 C9         -0.5948   -0.2602    6.8704 C.ar      1 <0>        -0.1150
     12 C10        -0.3884    1.0706    7.1822 C.ar      1 <0>        -0.1174
     13 C11        -0.3712    2.0211    6.1786 C.ar      1 <0>        -0.1155
     14 C12        -0.5567    1.6402    4.8627 C.ar      1 <0>        -0.1123
     15 C13         0.1017   -3.3431    1.4508 C.ar      1 <0>        -0.0090
     16 C14        -0.1615   -3.2744    2.8209 C.ar      1 <0>        -0.1161
     17 C15        -0.1173   -4.4173    3.5950 C.ar      1 <0>        -0.1154
     18 C16         0.1874   -5.6356    3.0222 C.ar      1 <0>        -0.0909
     19 C17         0.4533   -5.7197    1.6514 C.ar      1 <0>        -0.0745
     20 C18         0.4039   -4.5683    0.8631 C.ar      1 <0>        -0.0498
     21 C19         0.7783   -7.0193    1.0406 C.2       1 <0>        -0.0018
     22 C20         0.8201   -8.1305    1.8026 C.2       1 <0>        -0.2089
     23 C21         1.1433   -9.4231    1.1951 C.2       1 <0>         0.5603
     24 O1          1.3743   -9.4941    0.0024 O.2       1 <0>        -0.5225
     25 N3          1.1850  -10.5341    1.9569 N.am      1 <0>        -0.5937
     26 O2          1.4977  -11.7840    1.3696 O.3       1 <0>        -0.3156
     27 C22        -0.2558   -0.3221   -2.4826 C.ar      1 <0>        -0.0009
     28 C23         0.5420    0.7144   -2.9632 C.ar      1 <0>        -0.1086
     29 C24         0.3939    1.1494   -4.2646 C.ar      1 <0>        -0.1197
     30 C25        -0.5447    0.5586   -5.0913 C.ar      1 <0>        -0.1190
     31 C26        -1.3394   -0.4707   -4.6196 C.ar      1 <0>        -0.1196
     32 C27        -1.1955   -0.9177   -3.3218 C.ar      1 <0>        -0.0931
     33 H1          1.1854    1.8151   -0.0125 H         1 <0>         0.0766
     34 H2         -0.3932    1.9000   -0.8304 H         1 <0>         0.0888
     35 H3         -0.3124    1.8729    0.9475 H         1 <0>         0.0677
     36 H4          0.8464   -1.2516    3.0323 H         1 <0>         0.1054
     37 H5          1.0200    0.4434    2.5172 H         1 <0>         0.0977
     38 H6         -1.4447    0.7111    2.5675 H         1 <0>         0.0855
     39 H7         -1.6183   -0.9838    3.0826 H         1 <0>         0.0845
     40 H8         -0.9458   -1.6802    5.3114 H         1 <0>         0.1218
     41 H9         -0.6083   -1.0027    7.6545 H         1 <0>         0.1248
     42 H10        -0.2409    1.3679    8.2100 H         1 <0>         0.1239
     43 H11        -0.2103    3.0609    6.4222 H         1 <0>         0.1246
     44 H12        -0.5395    2.3823    4.0782 H         1 <0>         0.1224
     45 H13        -0.4000   -2.3246    3.2763 H         1 <0>         0.1350
     46 H14        -0.3218   -4.3574    4.6538 H         1 <0>         0.1327
     47 H15         0.2209   -6.5253    3.6335 H         1 <0>         0.1324
     48 H16         0.6038   -4.6272   -0.1966 H         1 <0>         0.1427
     49 H17         0.9833   -7.0824   -0.0179 H         1 <0>         0.1422
     50 H18         0.6151   -8.0674    2.8610 H         1 <0>         0.1352
     51 H19         1.0009  -10.4774    2.9076 H         1 <0>         0.4093
     52 H20         1.5035  -12.5218    1.9946 H         1 <0>         0.3887
     53 H21         1.2747    1.1768   -2.3183 H         1 <0>         0.1218
     54 H22         1.0117    1.9526   -4.6381 H         1 <0>         0.1238
     55 H23        -0.6578    0.9026   -6.1088 H         1 <0>         0.1219
     56 H24        -2.0706   -0.9283   -5.2694 H         1 <0>         0.1236
     57 H25        -1.8133   -1.7244   -2.9558 H         1 <0>         0.1242
@<TRIPOS>BOND
     1    1    2 1
     2    1   33 1
     3    1   34 1
     4    1   35 1
     5    2    6 1
     6    2    3 2
     7    3    4 1
     8    3   27 1
     9    4    5 2
    10    5    6 1
    11    5   15 1
    12    6    7 1
    13    7    8 1
    14    7   36 1
    15    7   37 1
    16    8    9 1
    17    8   38 1
    18    8   39 1
    19    9   14 ar
    20    9   10 ar
    21   10   11 ar
    22   10   40 1
    23   11   12 ar
    24   11   41 1
    25   12   13 ar
    26   12   42 1
    27   13   14 ar
    28   13   43 1
    29   14   44 1
    30   15   20 ar
    31   15   16 ar
    32   16   17 ar
    33   16   45 1
    34   17   18 ar
    35   17   46 1
    36   18   19 ar
    37   18   47 1
    38   19   20 ar
    39   19   21 1
    40   20   48 1
    41   21   22 2
    42   21   49 1
    43   22   23 1
    44   22   50 1
    45   23   24 2
    46   23   25 am
    47   25   26 1
    48   25   51 1
    49   26   52 1
    50   27   32 ar
    51   27   28 ar
    52   28   29 ar
    53   28   53 1
    54   29   30 ar
    55   29   54 1
    56   30   31 ar
    57   30   55 1
    58   31   32 ar
    59   31   56 1
    60   32   57 1
@<TRIPOS>MOLECULE
CHEMBL585939
   83    85     0     0     0
SMALL
USER_CHARGES

@<TRIPOS>ATOM
      1 C1         -0.8986    1.7368    0.7828 C.3       1 <0>        -0.1549
      2 C2         -0.8405    0.2079    0.7867 C.3       1 <0>         0.1342
      3 H1         -1.8520   -0.1979    0.8063 H         1 <0>         0.0921
      4 C3         -0.1239   -0.2756   -0.4463 C.2       1 <0>         0.4549
      5 O1          0.9751    0.1542   -0.7260 O.2       1 <0>        -0.3953
      6 N1         -0.7269   -1.2031   -1.2452 N.am      1 <0>        -0.7275
      7 C4          0.0858   -1.6800   -2.3886 C.3       1 <0>         0.1380
      8 H2         -0.5353   -2.2746   -3.0584 H         1 <0>         0.1090
      9 C5          1.2079   -2.5292   -1.8481 C.2       1 <0>         0.5147
     10 O2          1.0066   -3.6661   -1.4767 O.2       1 <0>        -0.5362
     11 N2          2.4647   -1.9789   -1.7888 N.am      1 <0>        -0.6970
     12 C6          3.4883   -2.8924   -1.2147 C.3       1 <0>         0.1097
     13 H3          3.0917   -3.9067   -1.1699 H         1 <0>         0.1240
     14 C7          3.8228   -2.4156    0.1769 C.2       1 <0>         0.5323
     15 O3          4.9687   -2.1672    0.4872 O.2       1 <0>        -0.5085
     16 N3          2.8087   -2.2690    1.0804 N.am      1 <0>        -0.7267
     17 C8          3.2111   -1.7868    2.4233 C.3       1 <0>         0.1638
     18 H4          3.3305   -2.6344    3.0980 H         1 <0>         0.0721
     19 C9          2.1104   -0.8602    2.9474 C.3       1 <0>        -0.1624
     20 C10         1.2518   -0.4034    1.7989 C.2       1 <0>         0.4717
     21 O4          1.7533   -0.1644    0.7208 O.2       1 <0>        -0.4265
     22 N4         -0.0921   -0.2600    1.9761 N.am      1 <0>        -0.7343
     23 C11         4.5298   -1.0177    2.3221 C.3       1 <0>        -0.1858
     24 C12         4.3128    0.2626    1.5130 C.3       1 <0>        -0.0669
     25 C13         5.5586    1.1454    1.6113 C.3       1 <0>        -0.1439
     26 C14         4.0567   -0.0970    0.0481 C.3       1 <0>        -0.2000
     27 C15         4.7465   -2.8689   -2.0849 C.3       1 <0>        -0.0366
     28 C16         4.4276   -3.4357   -3.4444 C.2       1 <0>        -0.1668
     29 C17         4.6021   -4.7063   -3.8406 C.2       1 <0>         0.0584
     30 N5          4.2005   -4.8489   -5.1409 N.pl3     1 <0>        -0.5946
     31 H5          4.2312   -5.6764   -5.6461 H         1 <0>         0.4156
     32 C18         3.7462   -3.6428   -5.6255 C.ar      1 <0>         0.0949
     33 C19         3.8626   -2.7060   -4.5820 C.ar      1 <0>        -0.0907
     34 C20         3.4664   -1.3832   -4.7862 C.ar      1 <0>        -0.0686
     35 C21         2.9633   -1.0051   -5.9993 C.ar      1 <0>        -0.1448
     36 C22         2.8427   -1.9262   -7.0304 C.ar      1 <0>        -0.0996
     37 C23         3.2363   -3.2349   -6.8535 C.ar      1 <0>        -0.1296
     38 C24         0.6626   -0.4828   -3.1467 C.3       1 <0>        -0.1681
     39 C25        -0.4810    0.3884   -3.6702 C.3       1 <0>        -0.1055
     40 C26         0.0959    1.5857   -4.4283 C.3       1 <0>        -0.1171
     41 C27        -1.0477    2.4569   -4.9518 C.3       1 <0>        -0.1037
     42 C28        -0.4709    3.6542   -5.7099 C.3       1 <0>        -0.1268
     43 C29        -1.5973    4.5123   -6.2256 C.2       1 <0>         0.5212
     44 O5         -2.7482    4.1973   -6.0081 O.2       1 <0>        -0.5196
     45 N6         -1.3258    5.6298   -6.9284 N.am      1 <0>        -0.6003
     46 O6         -2.3842    6.4361   -7.4129 O.3       1 <0>        -0.3211
     47 H6          0.1143    2.1388    0.7632 H         1 <0>         0.0719
     48 H7         -1.4419    2.0775   -0.0985 H         1 <0>         0.0680
     49 H8         -1.4097    2.0832    1.6811 H         1 <0>         0.0637
     50 H9         -1.6254   -1.5274   -1.0764 H         1 <0>         0.4089
     51 H10         2.6657   -1.0798   -2.0922 H         1 <0>         0.4215
     52 H11         1.8857   -2.4678    0.8579 H         1 <0>         0.4041
     53 H12         1.4958   -1.3980    3.6693 H         1 <0>         0.0776
     54 H13         2.5635    0.0060    3.4295 H         1 <0>         0.1079
     55 H14        -0.5280   -0.4505    2.8215 H         1 <0>         0.4097
     56 H15         4.8783   -0.7607    3.3224 H         1 <0>         0.0450
     57 H16         5.2755   -1.6389    1.8259 H         1 <0>         0.1663
     58 H17         3.4530    0.8021    1.9104 H         1 <0>         0.0526
     59 H18         6.4184    0.6059    1.2140 H         1 <0>         0.0514
     60 H19         5.4039    2.0575    1.0349 H         1 <0>         0.0434
     61 H20         5.7410    1.4016    2.6549 H         1 <0>         0.0412
     62 H21         4.9073   -0.6553   -0.3430 H         1 <0>         0.0650
     63 H22         3.1569   -0.7078   -0.0241 H         1 <0>         0.1385
     64 H23         3.9236    0.8161   -0.5322 H         1 <0>         0.0194
     65 H24         5.0949   -1.8416   -2.1922 H         1 <0>         0.0809
     66 H25         5.5250   -3.4693   -1.6144 H         1 <0>         0.0914
     67 H26         5.0008   -5.4986   -3.2245 H         1 <0>         0.1684
     68 H27         3.5567   -0.6611   -3.9881 H         1 <0>         0.1150
     69 H28         2.6569    0.0184   -6.1567 H         1 <0>         0.1204
     70 H29         2.4426   -1.6125   -7.9833 H         1 <0>         0.1226
     71 H30         3.1373   -3.9444   -7.6617 H         1 <0>         0.1170
     72 H31         1.2891    0.1048   -2.4755 H         1 <0>         0.1172
     73 H32         1.2619   -0.8380   -3.9850 H         1 <0>         0.0798
     74 H33        -1.1074   -0.1991   -4.3414 H         1 <0>         0.0582
     75 H34        -1.0802    0.7437   -2.8319 H         1 <0>         0.0618
     76 H35         0.7223    2.1732   -3.7571 H         1 <0>         0.0649
     77 H36         0.6951    1.2305   -5.2666 H         1 <0>         0.0640
     78 H37        -1.6741    1.8694   -5.6230 H         1 <0>         0.0713
     79 H38        -1.6470    2.8122   -4.1135 H         1 <0>         0.0704
     80 H39         0.1555    4.2417   -5.0387 H         1 <0>         0.0988
     81 H40         0.1283    3.2990   -6.5483 H         1 <0>         0.0991
     82 H41        -0.4054    5.8818   -7.1023 H         1 <0>         0.4080
     83 H42        -2.0915    7.2154   -7.9049 H         1 <0>         0.3875
@<TRIPOS>BOND
     1    1    2 1
     2    1   47 1
     3    1   48 1
     4    1   49 1
     5    2    3 1
     6    2   22 1
     7    2    4 1
     8    4    5 2
     9    4    6 am
    10    6    7 1
    11    6   50 1
    12    7    8 1
    13    7    9 1
    14    7   38 1
    15    9   10 2
    16    9   11 am
    17   11   12 1
    18   11   51 1
    19   12   13 1
    20   12   14 1
    21   12   27 1
    22   14   15 2
    23   14   16 am
    24   16   17 1
    25   16   52 1
    26   17   18 1
    27   17   19 1
    28   17   23 1
    29   19   20 1
    30   19   53 1
    31   19   54 1
    32   20   21 2
    33   20   22 am
    34   22   55 1
    35   23   24 1
    36   23   56 1
    37   23   57 1
    38   24   25 1
    39   24   26 1
    40   24   58 1
    41   25   59 1
    42   25   60 1
    43   25   61 1
    44   26   62 1
    45   26   63 1
    46   26   64 1
    47   27   28 1
    48   27   65 1
    49   27   66 1
    50   28   33 1
    51   28   29 2
    52   29   30 1
    53   29   67 1
    54   30   31 1
    55   30   32 1
    56   32   37 ar
    57   32   33 ar
    58   33   34 ar
    59   34   35 ar
    60   34   68 1
    61   35   36 ar
    62   35   69 1
    63   36   37 ar
    64   36   70 1
    65   37   71 1
    66   38   39 1
    67   38   72 1
    68   38   73 1
    69   39   40 1
    70   39   74 1
    71   39   75 1
    72   40   41 1
    73   40   76 1
    74   40   77 1
    75   41   42 1
    76   41   78 1
    77   41   79 1
    78   42   43 1
    79   42   80 1
    80   42   81 1
    81   43   44 2
    82   43   45 am
    83   45   46 1
    84   45   82 1
    85   46   83 1
@<TRIPOS>MOLECULE
CHEMBL1095450
   61    64     0     0     0
SMALL
USER_CHARGES

@<TRIPOS>ATOM
      1 C1          0.2195    1.4841   -0.0232 C.3       1 <0>        -0.1031
      2 C2          0.1066   -0.0186   -0.0107 C.2       1 <0>         0.0746
      3 C3         -0.0873   -0.8253   -1.0887 C.2       1 <0>         0.0855
      4 N1         -0.1309   -2.0980   -0.6546 N.pl3     1 <0>        -0.4663
      5 C4          0.0279   -2.1149    0.6486 C.cat     1 <0>         0.3660
      6 N2          0.1854   -0.8314    1.0850 N.pl3     1 <0>        -0.3977
      7 C5          0.3958   -0.4042    2.4705 C.3       1 <0>         0.0824
      8 C6          1.8942   -0.2363    2.7304 C.3       1 <0>         0.0383
      9 N3          2.1138    0.0686    4.1505 N.3       1 <0>        -0.5305
     10 C7          1.5555    1.3831    4.4995 C.3       1 <0>         0.0078
     11 C8          1.7527    1.6340    5.9969 C.3       1 <0>         0.0619
     12 O1          3.1442    1.5356    6.3124 O.3       1 <0>        -0.3788
     13 C9          3.7203    0.2679    5.9860 C.3       1 <0>         0.0621
     14 C10         3.5430    0.0032    4.4886 C.3       1 <0>         0.0192
     15 C11         0.0406   -3.3240    1.5010 C.ar      1 <0>        -0.0877
     16 C12        -0.5661   -3.2996    2.7590 C.ar      1 <0>        -0.0697
     17 C13        -0.5560   -4.4266    3.5572 C.ar      1 <0>        -0.1005
     18 C14         0.0533   -5.5851    3.1195 C.ar      1 <0>        -0.0593
     19 C15         0.6650   -5.6244    1.8620 C.ar      1 <0>        -0.0520
     20 C16         0.6522   -4.4897    1.0485 C.ar      1 <0>        -0.0569
     21 C17         1.3149   -6.8603    1.3953 C.2       1 <0>        -0.0350
     22 C18         1.3212   -7.9563    2.1801 C.2       1 <0>        -0.1732
     23 C19         1.9676   -9.1855    1.7159 C.2       1 <0>         0.5550
     24 O2          2.4991   -9.2176    0.6217 O.2       1 <0>        -0.5182
     25 N4          1.9739  -10.2812    2.5006 N.am      1 <0>        -0.5890
     26 O3          2.5990  -11.4699    2.0518 O.3       1 <0>        -0.3110
     27 C20        -0.2269   -0.3795   -2.4970 C.ar      1 <0>        -0.0652
     28 C21        -1.0398    0.7086   -2.8088 C.ar      1 <0>        -0.0865
     29 C22        -1.1659    1.1189   -4.1205 C.ar      1 <0>        -0.1095
     30 C23        -0.4877    0.4520   -5.1248 C.ar      1 <0>        -0.0861
     31 C24         0.3205   -0.6287   -4.8210 C.ar      1 <0>        -0.1093
     32 C25         0.4589   -1.0438   -3.5120 C.ar      1 <0>        -0.0954
     33 H1          1.2631    1.7690   -0.1567 H         1 <0>         0.1033
     34 H2         -0.3748    1.8863   -0.8437 H         1 <0>         0.1100
     35 H3         -0.1482    1.8840    0.9218 H         1 <0>         0.0919
     36 H4         -0.1108    0.5461    2.6387 H         1 <0>         0.1236
     37 H5         -0.0084   -1.1564    3.1480 H         1 <0>         0.1332
     38 H6          2.4134   -1.1594    2.4725 H         1 <0>         0.0907
     39 H7          2.2797    0.5802    2.1197 H         1 <0>         0.0551
     40 H8          2.0674    2.1588    3.9300 H         1 <0>         0.0527
     41 H9          0.4913    1.4006    4.2646 H         1 <0>         0.0859
     42 H10         1.3919    2.6310    6.2495 H         1 <0>         0.1046
     43 H11         1.1967    0.8897    6.5670 H         1 <0>         0.0638
     44 H12         4.7824    0.2770    6.2308 H         1 <0>         0.1058
     45 H13         3.2215   -0.5161    6.5558 H         1 <0>         0.0643
     46 H14         3.9295   -0.9866    4.2457 H         1 <0>         0.0914
     47 H15         4.0866    0.7568    3.9189 H         1 <0>         0.0514
     48 H16        -1.0443   -2.3965    3.1086 H         1 <0>         0.1389
     49 H17        -1.0269   -4.4011    4.5288 H         1 <0>         0.1503
     50 H18         0.0582   -6.4626    3.7490 H         1 <0>         0.1469
     51 H19         1.1188   -4.5149    0.0748 H         1 <0>         0.1399
     52 H20         1.7866   -6.8888    0.4242 H         1 <0>         0.1465
     53 H21         0.8495   -7.9277    3.1512 H         1 <0>         0.1389
     54 H22         1.5502  -10.2556    3.3728 H         1 <0>         0.4111
     55 H23         2.5522  -12.2012    2.6827 H         1 <0>         0.3939
     56 H24        -1.5703    1.2296   -2.0255 H         1 <0>         0.1336
     57 H25        -1.7957    1.9621   -4.3633 H         1 <0>         0.1392
     58 H26        -0.5899    0.7760   -6.1499 H         1 <0>         0.1371
     59 H27         0.8478   -1.1458   -5.6090 H         1 <0>         0.1376
     60 H28         1.0938   -1.8849   -3.2754 H         1 <0>         0.1256
     61 H29        -0.2598   -2.8790   -1.2153 H         1 <0>         0.4607
@<TRIPOS>BOND
     1    1    2 1
     2    1   33 1
     3    1   34 1
     4    1   35 1
     5    2    6 1
     6    2    3 2
     7    3    4 1
     8    3   27 1
     9    4    5 2
    10    4   61 1
    11    5    6 1
    12    5   15 1
    13    6    7 1
    14    7    8 1
    15    7   36 1
    16    7   37 1
    17    8    9 1
    18    8   38 1
    19    8   39 1
    20    9   14 1
    21    9   10 1
    22   10   11 1
    23   10   40 1
    24   10   41 1
    25   11   12 1
    26   11   42 1
    27   11   43 1
    28   12   13 1
    29   13   14 1
    30   13   44 1
    31   13   45 1
    32   14   46 1
    33   14   47 1
    34   15   20 ar
    35   15   16 ar
    36   16   17 ar
    37   16   48 1
    38   17   18 ar
    39   17   49 1
    40   18   19 ar
    41   18   50 1
    42   19   20 ar
    43   19   21 1
    44   20   51 1
    45   21   22 2
    46   21   52 1
    47   22   23 1
    48   22   53 1
    49   23   24 2
    50   23   25 am
    51   25   26 1
    52   25   54 1
    53   26   55 1
    54   27   32 ar
    55   27   28 ar
    56   28   29 ar
    57   28   56 1
    58   29   30 ar
    59   29   57 1
    60   30   31 ar
    61   30   58 1
    62   31   32 ar
    63   31   59 1
    64   32   60 1
@<TRIPOS>MOLECULE
CHEMBL1095450__1
   60    63     0     0     0
SMALL
USER_CHARGES

@<TRIPOS>ATOM
      1 C1          0.1587    1.4947    0.1374 C.3       1 <0>        -0.0831
      2 C2          0.0791   -0.0081    0.0570 C.2       1 <0>         0.0102
      3 C3         -0.1030   -0.7505   -1.0683 C.2       1 <0>         0.0419
      4 N1         -0.1161   -2.0483   -0.7140 N.2       1 <0>        -0.4520
      5 C4          0.0503   -2.1425    0.5850 C.2       1 <0>         0.2400
      6 N2          0.1818   -0.8853    1.0997 N.pl3     1 <0>        -0.4452
      7 C5          0.3904   -0.5403    2.5081 C.3       1 <0>         0.0951
      8 C6         -0.9568   -0.2245    3.1608 C.3       1 <0>         0.0353
      9 N3         -0.7476    0.1214    4.5731 N.3       1 <0>        -0.5317
     10 C7         -0.2616   -1.0393    5.3334 C.3       1 <0>         0.0061
     11 C8         -0.0008   -0.6203    6.7826 C.3       1 <0>         0.0638
     12 O1         -1.1992   -0.0724    7.3383 O.3       1 <0>        -0.3826
     13 C9         -1.7002    1.0601    6.6228 C.3       1 <0>         0.0634
     14 C10        -1.9783    0.6582    5.1720 C.3       1 <0>         0.0183
     15 C11         0.0943   -3.4015    1.3605 C.ar      1 <0>        -0.0084
     16 C12        -0.1691   -3.3879    2.7323 C.ar      1 <0>        -0.1191
     17 C13        -0.1288   -4.5615    3.4592 C.ar      1 <0>        -0.1149
     18 C14         0.1722   -5.7564    2.8373 C.ar      1 <0>        -0.0904
     19 C15         0.4382   -5.7855    1.4642 C.ar      1 <0>        -0.0728
     20 C16         0.3927   -4.6027    0.7235 C.ar      1 <0>        -0.0496
     21 C17         0.7593   -7.0602    0.8011 C.2       1 <0>        -0.0028
     22 C18         0.7973   -8.2016    1.5171 C.2       1 <0>        -0.2075
     23 C19         1.1166   -9.4694    0.8576 C.2       1 <0>         0.5602
     24 O2          1.3477   -9.4925   -0.3370 O.2       1 <0>        -0.5222
     25 N4          1.1545  -10.6106    1.5735 N.am      1 <0>        -0.5935
     26 O3          1.4633  -11.8366    0.9357 O.3       1 <0>        -0.3154
     27 C20        -0.2601   -0.2214   -2.4456 C.ar      1 <0>        -0.0016
     28 C21         0.5415    0.8298   -2.8866 C.ar      1 <0>        -0.1081
     29 C22         0.3910    1.3180   -4.1687 C.ar      1 <0>        -0.1195
     30 C23        -0.5536    0.7662   -5.0152 C.ar      1 <0>        -0.1185
     31 C24        -1.3519   -0.2773   -4.5827 C.ar      1 <0>        -0.1196
     32 C25        -1.2058   -0.7776   -3.3048 C.ar      1 <0>        -0.0931
     33 H1          1.2029    1.8055    0.1036 H         1 <0>         0.0775
     34 H2         -0.3781    1.9325   -0.7041 H         1 <0>         0.0887
     35 H3         -0.2910    1.8329    1.0709 H         1 <0>         0.0687
     36 H4          0.8555   -1.3810    3.0230 H         1 <0>         0.1029
     37 H5          1.0404    0.3320    2.5761 H         1 <0>         0.1060
     38 H6         -1.4219    0.6161    2.6459 H         1 <0>         0.0896
     39 H7         -1.6069   -1.0969    3.0929 H         1 <0>         0.0490
     40 H8         -1.0130   -1.8287    5.3124 H         1 <0>         0.0494
     41 H9          0.6637   -1.4046    4.8880 H         1 <0>         0.0877
     42 H10         0.3051   -1.4904    7.3636 H         1 <0>         0.1016
     43 H11         0.7887    0.1309    6.8079 H         1 <0>         0.0627
     44 H12        -2.6234    1.4054    7.0882 H         1 <0>         0.1019
     45 H13        -0.9602    1.8601    6.6434 H         1 <0>         0.0627
     46 H14        -2.3061    1.5319    4.6087 H         1 <0>         0.0901
     47 H15        -2.7571   -0.1041    5.1483 H         1 <0>         0.0476
     48 H16        -0.4046   -2.4567    3.2260 H         1 <0>         0.1307
     49 H17        -0.3334   -4.5442    4.5195 H         1 <0>         0.1322
     50 H18         0.2028   -6.6704    3.4118 H         1 <0>         0.1331
     51 H19         0.5927   -4.6191   -0.3377 H         1 <0>         0.1434
     52 H20         0.9644   -7.0807   -0.2591 H         1 <0>         0.1426
     53 H21         0.5922   -8.1810    2.5773 H         1 <0>         0.1352
     54 H22         0.9703  -10.5922    2.5257 H         1 <0>         0.4094
     55 H23         1.4666  -12.5993    1.5302 H         1 <0>         0.3889
     56 H24         1.2788    1.2618   -2.2262 H         1 <0>         0.1221
     57 H25         1.0117    2.1326   -4.5115 H         1 <0>         0.1241
     58 H26        -0.6684    1.1518   -6.0175 H         1 <0>         0.1221
     59 H27        -2.0879   -0.7044   -5.2479 H         1 <0>         0.1236
     60 H28        -1.8266   -1.5953   -2.9696 H         1 <0>         0.1239
@<TRIPOS>BOND
     1    1    2 1
     2    1   33 1
     3    1   34 1
     4    1   35 1
     5    2    6 1
     6    2    3 2
     7    3    4 1
     8    3   27 1
     9    4    5 2
    10    5    6 1
    11    5   15 1
    12    6    7 1
    13    7    8 1
    14    7   36 1
    15    7   37 1
    16    8    9 1
    17    8   38 1
    18    8   39 1
    19    9   14 1
    20    9   10 1
    21   10   11 1
    22   10   40 1
    23   10   41 1
    24   11   12 1
    25   11   42 1
    26   11   43 1
    27   12   13 1
    28   13   14 1
    29   13   44 1
    30   13   45 1
    31   14   46 1
    32   14   47 1
    33   15   20 ar
    34   15   16 ar
    35   16   17 ar
    36   16   48 1
    37   17   18 ar
    38   17   49 1
    39   18   19 ar
    40   18   50 1
    41   19   20 ar
    42   19   21 1
    43   20   51 1
    44   21   22 2
    45   21   52 1
    46   22   23 1
    47   22   53 1
    48   23   24 2
    49   23   25 am
    50   25   26 1
    51   25   54 1
    52   26   55 1
    53   27   32 ar
    54   27   28 ar
    55   28   29 ar
    56   28   56 1
    57   29   30 ar
    58   29   57 1
    59   30   31 ar
    60   30   58 1
    61   31   32 ar
    62   31   59 1
    63   32   60 1
@<TRIPOS>MOLECULE
CHEMBL143179
   46    48     0     0     0
SMALL
USER_CHARGES

@<TRIPOS>ATOM
      1 C1         -0.0165    1.3620    0.0095 C.ar      1 <0>        -0.1458
      2 C2          1.1697    2.0834    0.0021 C.ar      1 <0>        -0.0982
      3 C3          2.3856    1.4362   -0.0134 C.ar      1 <0>        -0.1309
      4 C4          2.4281    0.0456   -0.0212 C.ar      1 <0>         0.0942
      5 C5          1.2234   -0.6807   -0.0132 C.ar      1 <0>        -0.1022
      6 C6          0.0021   -0.0041    0.0020 C.ar      1 <0>        -0.0713
      7 C7          1.6036   -2.0953   -0.0245 C.2       1 <0>        -0.1716
      8 C8          2.9451   -2.1410   -0.0380 C.2       1 <0>         0.0544
      9 N1          3.4551   -0.8713   -0.0363 N.pl3     1 <0>        -0.5958
     10 H1          4.3995   -0.6501   -0.0442 H         1 <0>         0.4164
     11 C9          0.6664   -3.2754   -0.0210 C.3       1 <0>        -0.0388
     12 C10         0.2361   -3.5891   -1.4554 C.3       1 <0>        -0.1244
     13 C11        -0.7154   -4.7873   -1.4519 C.3       1 <0>         0.1191
     14 N2         -1.1275   -5.0876   -2.8253 N.pl3     1 <0>        -0.7400
     15 C12        -1.9980   -6.1436   -3.0751 C.ar      1 <0>         0.2374
     16 C13        -2.4809   -6.9103   -2.0178 C.ar      1 <0>        -0.2045
     17 C14        -3.3386   -7.9521   -2.2597 C.ar      1 <0>        -0.0353
     18 C15        -3.7292   -8.2445   -3.5722 C.ar      1 <0>        -0.1518
     19 C16        -3.2416   -7.4707   -4.6325 C.ar      1 <0>        -0.0426
     20 C17        -2.3883   -6.4274   -4.3813 C.ar      1 <0>        -0.2035
     21 C18        -4.6479   -9.3603   -3.8362 C.2       1 <0>         0.0194
     22 C19        -5.0234   -9.6407   -5.1027 C.2       1 <0>        -0.2383
     23 C20        -5.9374  -10.7510   -5.3653 C.2       1 <0>         0.5632
     24 O1         -6.3600  -11.4228   -4.4424 O.2       1 <0>        -0.5305
     25 N3         -6.3122  -11.0308   -6.6294 N.am      1 <0>        -0.5957
     26 O2         -7.1975  -12.1062   -6.8838 O.3       1 <0>        -0.3180
     27 H2         -0.9613    1.8849    0.0259 H         1 <0>         0.1225
     28 H3          1.1388    3.1630    0.0081 H         1 <0>         0.1253
     29 H4          3.3028    2.0064   -0.0198 H         1 <0>         0.1195
     30 H5         -0.9246   -0.5587    0.0082 H         1 <0>         0.1203
     31 H6          3.5346   -3.0459   -0.0490 H         1 <0>         0.1692
     32 H7          1.1742   -4.1414    0.4036 H         1 <0>         0.0727
     33 H8         -0.2127   -3.0396    0.5787 H         1 <0>         0.0733
     34 H9         -0.2717   -2.7231   -1.8800 H         1 <0>         0.0703
     35 H10         1.1152   -3.8250   -2.0551 H         1 <0>         0.0687
     36 H11        -0.2076   -5.6533   -1.0273 H         1 <0>         0.0633
     37 H12        -1.5945   -4.5514   -0.8522 H         1 <0>         0.0636
     38 H13        -0.7933   -4.5502   -3.5604 H         1 <0>         0.4015
     39 H14        -2.1791   -6.6841   -1.0058 H         1 <0>         0.1256
     40 H15        -3.7122   -8.5467   -1.4391 H         1 <0>         0.1282
     41 H16        -3.5401   -7.6931   -5.6463 H         1 <0>         0.1266
     42 H17        -2.0152   -5.8273   -5.1980 H         1 <0>         0.1233
     43 H18        -5.0228   -9.9564   -3.0173 H         1 <0>         0.1345
     44 H19        -4.6484   -9.0446   -5.9215 H         1 <0>         0.1311
     45 H20        -5.9754  -10.4954   -7.3648 H         1 <0>         0.4086
     46 H21        -7.4082  -12.2293   -7.8195 H         1 <0>         0.3873
@<TRIPOS>BOND
     1    1    6 ar
     2    1    2 ar
     3    1   27 1
     4    2    3 ar
     5    2   28 1
     6    3    4 ar
     7    3   29 1
     8    4    9 1
     9    4    5 ar
    10    5    6 ar
    11    5    7 1
    12    6   30 1
    13    7    8 2
    14    7   11 1
    15    8    9 1
    16    8   31 1
    17    9   10 1
    18   11   12 1
    19   11   32 1
    20   11   33 1
    21   12   13 1
    22   12   34 1
    23   12   35 1
    24   13   14 1
    25   13   36 1
    26   13   37 1
    27   14   15 1
    28   14   38 1
    29   15   20 ar
    30   15   16 ar
    31   16   17 ar
    32   16   39 1
    33   17   18 ar
    34   17   40 1
    35   18   19 ar
    36   18   21 1
    37   19   20 ar
    38   19   41 1
    39   20   42 1
    40   21   22 2
    41   21   43 1
    42   22   23 1
    43   22   44 1
    44   23   24 2
    45   23   25 am
    46   25   26 1
    47   25   45 1
    48   26   46 1
@<TRIPOS>MOLECULE
CHEMBL112234
   40    41     0     0     0
SMALL
USER_CHARGES

@<TRIPOS>ATOM
      1 C1          3.9245    1.6782   -1.4256 C.ar      1 <0>        -0.1104
      2 C2          2.9072    2.2297   -0.6490 C.ar      1 <0>        -0.1043
      3 C3          2.0668    1.4390    0.0722 C.ar      1 <0>        -0.0884
      4 C4          2.2210    0.0417    0.0378 C.ar      1 <0>         0.1108
      5 C5          3.2561   -0.5168   -0.7532 C.ar      1 <0>        -0.0818
      6 C6          4.1054    0.3303   -1.4844 C.ar      1 <0>        -0.0981
      7 C7          3.4113   -1.9142   -0.7884 C.ar      1 <0>        -0.0644
      8 C8          2.5384   -2.6832   -0.0427 C.ar      1 <0>         0.0861
      9 C9          1.5403   -2.0594    0.7146 C.ar      1 <0>         0.1197
     10 N1          1.4082   -0.7564    0.7369 N.ar      1 <0>        -0.4545
     11 N2          2.6515   -4.0779   -0.0451 N.am      1 <0>        -0.6707
     12 C10         3.8636   -4.6555   -0.1619 C.2       1 <0>         0.5116
     13 O1          4.8640   -3.9698   -0.1687 O.2       1 <0>        -0.5174
     14 C11         3.9758   -6.1534   -0.2840 C.3       1 <0>        -0.1389
     15 C12         5.4498   -6.5464   -0.4022 C.3       1 <0>        -0.1063
     16 C13         5.5637   -8.0671   -0.5262 C.3       1 <0>        -0.1194
     17 C14         7.0377   -8.4601   -0.6444 C.3       1 <0>        -0.1154
     18 C15         7.1516   -9.9808   -0.7684 C.3       1 <0>        -0.1045
     19 C16         8.6256  -10.3738   -0.8866 C.3       1 <0>        -0.0663
     20 S1          8.7607  -12.1768   -1.0336 S.3       1 <0>        -0.2572
     21 H1          4.5750    2.3285   -1.9917 H         1 <0>         0.1295
     22 H2          2.7840    3.3022   -0.6188 H         1 <0>         0.1315
     23 H3          1.2841    1.8832    0.6693 H         1 <0>         0.1365
     24 H4          4.8970   -0.0855   -2.0900 H         1 <0>         0.1310
     25 H5          4.1893   -2.3725   -1.3808 H         1 <0>         0.1497
     26 H6          0.8620   -2.6675    1.2947 H         1 <0>         0.1622
     27 H7          1.8575   -4.6290    0.0374 H         1 <0>         0.4152
     28 H8          3.5443   -6.6233    0.5997 H         1 <0>         0.0993
     29 H9          3.4386   -6.4868   -1.1718 H         1 <0>         0.1000
     30 H10         5.8813   -6.0764   -1.2860 H         1 <0>         0.0713
     31 H11         5.9870   -6.2129    0.4856 H         1 <0>         0.0716
     32 H12         5.1322   -8.5370    0.3575 H         1 <0>         0.0661
     33 H13         5.0265   -8.4005   -1.4140 H         1 <0>         0.0660
     34 H14         7.4692   -7.9901   -1.5282 H         1 <0>         0.0659
     35 H15         7.5749   -8.1266    0.2434 H         1 <0>         0.0660
     36 H16         6.7201  -10.4507    0.1153 H         1 <0>         0.0756
     37 H17         6.6144  -10.3142   -1.6563 H         1 <0>         0.0756
     38 H18         9.0571   -9.9038   -1.7704 H         1 <0>         0.0832
     39 H19         9.1628  -10.0404    0.0012 H         1 <0>         0.0832
     40 H20        10.0840  -12.3971   -1.1296 H         1 <0>         0.0902
@<TRIPOS>BOND
     1    1    6 ar
     2    1    2 ar
     3    1   21 1
     4    2    3 ar
     5    2   22 1
     6    3    4 ar
     7    3   23 1
     8    4   10 ar
     9    4    5 ar
    10    5    6 ar
    11    5    7 ar
    12    6   24 1
    13    7    8 ar
    14    7   25 1
    15    8    9 ar
    16    8   11 1
    17    9   10 ar
    18    9   26 1
    19   11   12 am
    20   11   27 1
    21   12   13 2
    22   12   14 1
    23   14   15 1
    24   14   28 1
    25   14   29 1
    26   15   16 1
    27   15   30 1
    28   15   31 1
    29   16   17 1
    30   16   32 1
    31   16   33 1
    32   17   18 1
    33   17   34 1
    34   17   35 1
    35   18   19 1
    36   18   36 1
    37   18   37 1
    38   19   20 1
    39   19   38 1
    40   19   39 1
    41   20   40 1
@<TRIPOS>MOLECULE
CHEMBL341826
   58    60     0     0     0
SMALL
USER_CHARGES

@<TRIPOS>ATOM
      1 C1          0.5996    2.0152    0.4003 C.ar      1 <0>        -0.1131
      2 C2          1.8394    2.6257    0.4341 C.ar      1 <0>        -0.1151
      3 C3          2.9886    1.8573    0.4284 C.ar      1 <0>        -0.1151
      4 C4          2.8979    0.4785    0.3893 C.ar      1 <0>        -0.1001
      5 C5          1.6581   -0.1320    0.3564 C.ar      1 <0>        -0.1157
      6 C6          0.5090    0.6364    0.3607 C.ar      1 <0>        -0.1155
      7 C7          4.1507   -0.3591    0.3820 C.3       1 <0>        -0.0720
      8 C8          4.5565   -0.6822    1.8214 C.3       1 <0>        -0.1433
      9 C9          5.8284   -1.5326    1.8141 C.3       1 <0>        -0.0163
     10 N1          6.2179   -1.8429    3.1961 N.4       1 <0>        -0.3829
     11 C10         7.5021   -2.5563    3.1944 C.3       1 <0>         0.0385
     12 C11         8.5849   -1.6405    2.6845 C.ar      1 <0>        -0.1519
     13 C12         8.9516   -1.6840    1.3507 C.ar      1 <0>        -0.0920
     14 C13         9.9418   -0.8496    0.8767 C.ar      1 <0>        -0.0909
     15 C14        10.5755    0.0424    1.7474 C.ar      1 <0>        -0.0308
     16 C15        10.1989    0.0807    3.0936 C.ar      1 <0>        -0.1009
     17 C16         9.2034   -0.7565    3.5513 C.ar      1 <0>        -0.0934
     18 C17        11.6338    0.9363    1.2495 C.2       1 <0>        -0.0358
     19 C18        12.2425    1.7949    2.0919 C.2       1 <0>        -0.1746
     20 C19        13.2952    2.6840    1.5967 C.2       1 <0>         0.5540
     21 O1         13.6207    2.6479    0.4246 O.2       1 <0>        -0.5156
     22 N2         13.9037    3.5425    2.4389 N.am      1 <0>        -0.5901
     23 O2         14.9218    4.4023    1.9600 O.3       1 <0>        -0.3108
     24 C20         5.1891   -2.6879    3.8169 C.3       1 <0>         0.0440
     25 C21         5.5282   -2.9073    5.2688 C.ar      1 <0>        -0.2166
     26 C22         6.2214   -4.0413    5.6642 C.ar      1 <0>        -0.0484
     27 C23         6.5115   -4.2014    7.0103 C.ar      1 <0>        -0.1650
     28 C24         6.1029   -3.2322    7.9073 C.ar      1 <0>         0.1371
     29 N3          5.4449   -2.1665    7.4953 N.ar      1 <0>        -0.4737
     30 C25         5.1571   -1.9783    6.2220 C.ar      1 <0>         0.1293
     31 H1         -0.2982    2.6153    0.4093 H         1 <0>         0.1262
     32 H2          1.9102    3.7029    0.4647 H         1 <0>         0.1258
     33 H3          3.9572    2.3343    0.4541 H         1 <0>         0.1212
     34 H4          1.5873   -1.2092    0.3255 H         1 <0>         0.1212
     35 H5         -0.4596    0.1594    0.3346 H         1 <0>         0.1258
     36 H6          3.9647   -1.2863   -0.1599 H         1 <0>         0.0830
     37 H7          4.9538    0.1926   -0.1067 H         1 <0>         0.0829
     38 H8          4.7425    0.2450    2.3634 H         1 <0>         0.0885
     39 H9          3.7534   -1.2339    2.3102 H         1 <0>         0.0888
     40 H10         5.6423   -2.4598    1.2721 H         1 <0>         0.1329
     41 H11         6.6314   -0.9809    1.3253 H         1 <0>         0.1346
     42 H12         7.7426   -2.8738    4.2090 H         1 <0>         0.1349
     43 H13         7.4311   -3.4306    2.5473 H         1 <0>         0.1379
     44 H14         8.4612   -2.3735    0.6795 H         1 <0>         0.1369
     45 H15        10.2274   -0.8852   -0.1643 H         1 <0>         0.1436
     46 H16        10.6840    0.7667    3.7721 H         1 <0>         0.1397
     47 H17         8.9084   -0.7251    4.5898 H         1 <0>         0.1319
     48 H18        11.9227    0.9042    0.2094 H         1 <0>         0.1476
     49 H19        11.9536    1.8270    3.1321 H         1 <0>         0.1365
     50 H20        13.6442    3.5713    3.3731 H         1 <0>         0.4100
     51 H21        15.2984    4.9811    2.6369 H         1 <0>         0.3932
     52 H22         4.2197   -2.1953    3.7406 H         1 <0>         0.1440
     53 H23         5.1498   -3.6487    3.3037 H         1 <0>         0.1398
     54 H24         6.5278   -4.7823    4.9408 H         1 <0>         0.1451
     55 H25         7.0495   -5.0725    7.3540 H         1 <0>         0.1511
     56 H26         6.3249   -3.3494    8.9577 H         1 <0>         0.1706
     57 H27         4.6212   -1.0901    5.9215 H         1 <0>         0.1613
     58 H28         6.3102   -0.9855    3.7200 H         1 <0>         0.4218
@<TRIPOS>BOND
     1    1    6 ar
     2    1    2 ar
     3    1   31 1
     4    2    3 ar
     5    2   32 1
     6    3    4 ar
     7    3   33 1
     8    4    5 ar
     9    4    7 1
    10    5    6 ar
    11    5   34 1
    12    6   35 1
    13    7    8 1
    14    7   36 1
    15    7   37 1
    16    8    9 1
    17    8   38 1
    18    8   39 1
    19    9   10 1
    20    9   40 1
    21    9   41 1
    22   10   11 1
    23   10   24 1
    24   10   58 1
    25   11   12 1
    26   11   42 1
    27   11   43 1
    28   12   17 ar
    29   12   13 ar
    30   13   14 ar
    31   13   44 1
    32   14   15 ar
    33   14   45 1
    34   15   16 ar
    35   15   18 1
    36   16   17 ar
    37   16   46 1
    38   17   47 1
    39   18   19 2
    40   18   48 1
    41   19   20 1
    42   19   49 1
    43   20   21 2
    44   20   22 am
    45   22   23 1
    46   22   50 1
    47   23   51 1
    48   24   25 1
    49   24   52 1
    50   24   53 1
    51   25   30 ar
    52   25   26 ar
    53   26   27 ar
    54   26   54 1
    55   27   28 ar
    56   27   55 1
    57   28   29 ar
    58   28   56 1
    59   29   30 ar
    60   30   57 1
@<TRIPOS>MOLECULE
CHEMBL341826__1
   57    59     0     0     0
SMALL
USER_CHARGES

@<TRIPOS>ATOM
      1 C1         -0.7135    1.0780    1.7031 C.ar      1 <0>        -0.1249
      2 C2          0.3926    1.8241    1.3415 C.ar      1 <0>        -0.1175
      3 C3          1.5839    1.1918    1.0386 C.ar      1 <0>        -0.1165
      4 C4          1.6693   -0.1867    1.0977 C.ar      1 <0>        -0.0809
      5 C5          0.5634   -0.9328    1.4601 C.ar      1 <0>        -0.1187
      6 C6         -0.6283   -0.3005    1.7616 C.ar      1 <0>        -0.1183
      7 C7          2.9678   -0.8761    0.7665 C.3       1 <0>        -0.0799
      8 C8          3.8048   -1.0255    2.0385 C.3       1 <0>        -0.1100
      9 C9          5.1231   -1.7254    1.7022 C.3       1 <0>         0.0518
     10 N1          5.9267   -1.8688    2.9235 N.3       1 <0>        -0.5263
     11 C10         7.2893   -2.3176    2.6074 C.3       1 <0>         0.0861
     12 C11         8.0771   -1.1673    2.0354 C.ar      1 <0>        -0.0585
     13 C12         8.1690   -1.0107    0.6633 C.ar      1 <0>        -0.1169
     14 C13         8.8883    0.0391    0.1323 C.ar      1 <0>        -0.0894
     15 C14         9.5254    0.9469    0.9840 C.ar      1 <0>        -0.0804
     16 C15         9.4274    0.7822    2.3691 C.ar      1 <0>        -0.0974
     17 C16         8.7001   -0.2697    2.8849 C.ar      1 <0>        -0.0969
     18 C17        10.2957    2.0701    0.4252 C.2       1 <0>        -0.0018
     19 C18        10.9085    2.9433    1.2494 C.2       1 <0>        -0.2127
     20 C19        11.6748    4.0605    0.6936 C.2       1 <0>         0.5610
     21 O1         11.7583    4.2007   -0.5124 O.2       1 <0>        -0.5255
     22 N2         12.2874    4.9335    1.5176 N.am      1 <0>        -0.5935
     23 O2         13.0284    6.0138    0.9801 O.3       1 <0>        -0.3161
     24 C20         5.2795   -2.7814    3.8755 C.3       1 <0>         0.0927
     25 C21         5.9080   -2.6173    5.2353 C.ar      1 <0>        -0.1294
     26 C22         6.9229   -3.4679    5.6469 C.ar      1 <0>        -0.0732
     27 C23         7.4715   -3.2796    6.9060 C.ar      1 <0>        -0.1725
     28 C24         6.9921   -2.2575    7.7037 C.ar      1 <0>         0.0981
     29 N3          6.0252   -1.4679    7.2794 N.ar      1 <0>        -0.4844
     30 C25         5.4842   -1.6138    6.0855 C.ar      1 <0>         0.1223
     31 H1         -1.6430    1.5722    1.9441 H         1 <0>         0.1207
     32 H2          0.3259    2.9011    1.2954 H         1 <0>         0.1214
     33 H3          2.4479    1.7747    0.7555 H         1 <0>         0.1209
     34 H4          0.6300   -2.0097    1.5059 H         1 <0>         0.1195
     35 H5         -1.4924   -0.8835    2.0444 H         1 <0>         0.1209
     36 H6          2.7599   -1.8619    0.3504 H         1 <0>         0.0710
     37 H7          3.5185   -0.2825    0.0368 H         1 <0>         0.0733
     38 H8          4.0126   -0.0396    2.4545 H         1 <0>         0.0744
     39 H9          3.2541   -1.6191    2.7682 H         1 <0>         0.0647
     40 H10         4.9153   -2.7112    1.2862 H         1 <0>         0.0368
     41 H11         5.6738   -1.1318    0.9725 H         1 <0>         0.0819
     42 H12         7.7745   -2.6740    3.5161 H         1 <0>         0.0858
     43 H13         7.2454   -3.1263    1.8779 H         1 <0>         0.0484
     44 H14         7.6764   -1.7127    0.0069 H         1 <0>         0.1238
     45 H15         8.9598    0.1596   -0.9386 H         1 <0>         0.1293
     46 H16         9.9170    1.4791    3.0332 H         1 <0>         0.1269
     47 H17         8.6198   -0.3958    3.9545 H         1 <0>         0.1233
     48 H18        10.3699    2.1945   -0.6451 H         1 <0>         0.1389
     49 H19        10.8344    2.8188    2.3196 H         1 <0>         0.1343
     50 H20        12.2208    4.8217    2.4788 H         1 <0>         0.4096
     51 H21        13.4310    6.5855    1.6480 H         1 <0>         0.3888
     52 H22         4.2163   -2.5488    3.9362 H         1 <0>         0.0938
     53 H23         5.4077   -3.8097    3.5376 H         1 <0>         0.0478
     54 H24         7.2772   -4.2585    5.0021 H         1 <0>         0.1302
     55 H25         8.2632   -3.9236    7.2594 H         1 <0>         0.1346
     56 H26         7.4142   -2.1042    8.6859 H         1 <0>         0.1548
     57 H27         4.6976   -0.9441    5.7704 H         1 <0>         0.1540
@<TRIPOS>BOND
     1    1    6 ar
     2    1    2 ar
     3    1   31 1
     4    2    3 ar
     5    2   32 1
     6    3    4 ar
     7    3   33 1
     8    4    5 ar
     9    4    7 1
    10    5    6 ar
    11    5   34 1
    12    6   35 1
    13    7    8 1
    14    7   36 1
    15    7   37 1
    16    8    9 1
    17    8   38 1
    18    8   39 1
    19    9   10 1
    20    9   40 1
    21    9   41 1
    22   10   11 1
    23   10   24 1
    24   11   12 1
    25   11   42 1
    26   11   43 1
    27   12   17 ar
    28   12   13 ar
    29   13   14 ar
    30   13   44 1
    31   14   15 ar
    32   14   45 1
    33   15   16 ar
    34   15   18 1
    35   16   17 ar
    36   16   46 1
    37   17   47 1
    38   18   19 2
    39   18   48 1
    40   19   20 1
    41   19   49 1
    42   20   21 2
    43   20   22 am
    44   22   23 1
    45   22   50 1
    46   23   51 1
    47   24   25 1
    48   24   52 1
    49   24   53 1
    50   25   30 ar
    51   25   26 ar
    52   26   27 ar
    53   26   54 1
    54   27   28 ar
    55   27   55 1
    56   28   29 ar
    57   28   56 1
    58   29   30 ar
    59   30   57 1
@<TRIPOS>MOLECULE
CHEMBL152538
   64    67     0     0     0
SMALL
USER_CHARGES

@<TRIPOS>ATOM
      1 C1         -0.0347    1.3546    0.0493 C.ar      1 <0>        -0.1721
      2 C2          1.1616    2.0557    0.0330 C.ar      1 <0>        -0.0719
      3 C3          2.3470    1.3374    0.0035 C.ar      1 <0>        -0.1332
      4 C4          2.2974   -0.0439   -0.0085 C.ar      1 <0>         0.1211
      5 N1          1.1411   -0.6774    0.0073 N.ar      1 <0>        -0.4845
      6 C5         -0.0058   -0.0269    0.0359 C.ar      1 <0>         0.1000
      7 C6          3.6728    2.0535   -0.0158 C.3       1 <0>         0.0989
      8 N2          4.1305    2.2737    1.3626 N.3       1 <0>        -0.5319
      9 C7          3.2363    3.1977    2.0730 C.3       1 <0>         0.0356
     10 C8          3.6400    3.2597    3.5499 C.3       1 <0>         0.1219
     11 N3          5.0702    3.5936    3.6298 N.pl3     1 <0>        -0.6211
     12 C9          6.0164    2.7959    2.8350 C.3       1 <0>         0.1221
     13 C10         5.5192    2.7522    1.3862 C.3       1 <0>         0.0401
     14 C11         5.5159    4.6353    4.4357 C.ar      1 <0>         0.2510
     15 C12         4.5959    5.4493    5.0908 C.ar      1 <0>        -0.2123
     16 C13         5.0339    6.4811    5.8891 C.ar      1 <0>        -0.0036
     17 C14         6.4043    6.7115    6.0418 C.ar      1 <0>        -0.2040
     18 C15         7.3256    5.8924    5.3826 C.ar      1 <0>        -0.0310
     19 C16         6.8813    4.8587    4.5902 C.ar      1 <0>        -0.2108
     20 C17         6.8772    7.8171    6.8964 C.2       1 <0>         0.5660
     21 O1          6.0748    8.5290    7.4689 O.2       1 <0>        -0.5430
     22 N4          8.1987    8.0380    7.0426 N.am      1 <0>        -0.7276
     23 C18         8.6683    9.1359    7.8913 C.3       1 <0>         0.1595
     24 C19        10.1750    9.1665    7.8851 C.ar      1 <0>        -0.0952
     25 C20        10.8822    8.4367    8.8246 C.ar      1 <0>        -0.1015
     26 C21        12.2609    8.4599    8.8257 C.ar      1 <0>        -0.0912
     27 C22        12.9444    9.2230    7.8740 C.ar      1 <0>        -0.0716
     28 C23        12.2227    9.9573    6.9277 C.ar      1 <0>        -0.1004
     29 C24        10.8443    9.9197    6.9363 C.ar      1 <0>        -0.1021
     30 C25        14.4162    9.2537    7.8685 C.2       1 <0>        -0.0057
     31 C26        15.0716    9.9906    6.9494 C.2       1 <0>        -0.2077
     32 C27        16.5356   10.0210    6.9440 C.2       1 <0>         0.5602
     33 O2         17.1606    9.3812    7.7692 O.2       1 <0>        -0.5239
     34 N5         17.1909   10.7577    6.0251 N.am      1 <0>        -0.5933
     35 O3         18.6065   10.7872    6.0199 O.3       1 <0>        -0.3155
     36 H1         -0.9770    1.8816    0.0768 H         1 <0>         0.1359
     37 H2          1.1697    3.1356    0.0426 H         1 <0>         0.1302
     38 H3          3.2163   -0.6108   -0.0315 H         1 <0>         0.1553
     39 H4         -0.9331   -0.5803    0.0488 H         1 <0>         0.1563
     40 H5          4.4052    1.4478   -0.5494 H         1 <0>         0.0906
     41 H6          3.5598    3.0139   -0.5188 H         1 <0>         0.0471
     42 H7          3.3156    4.1915    1.6322 H         1 <0>         0.0407
     43 H8          2.2085    2.8441    1.9913 H         1 <0>         0.0889
     44 H9          3.0559    4.0276    4.0572 H         1 <0>         0.0903
     45 H10         3.4632    2.2917    4.0188 H         1 <0>         0.0742
     46 H11         7.0034    3.2571    2.8696 H         1 <0>         0.0902
     47 H12         6.0680    1.7833    3.2351 H         1 <0>         0.0751
     48 H13         6.1469    2.0755    0.8065 H         1 <0>         0.0904
     49 H14         5.5667    3.7522    0.9550 H         1 <0>         0.0413
     50 H15         3.5374    5.2710    4.9722 H         1 <0>         0.1291
     51 H16         4.3198    7.1125    6.3968 H         1 <0>         0.1349
     52 H17         8.3849    6.0681    5.4983 H         1 <0>         0.1228
     53 H18         7.5926    4.2225    4.0845 H         1 <0>         0.1286
     54 H19         8.8388    7.4700    6.5859 H         1 <0>         0.4001
     55 H20         8.2841   10.0812    7.5081 H         1 <0>         0.0791
     56 H21         8.3122    8.9853    8.9104 H         1 <0>         0.0796
     57 H22        10.3529    7.8477    9.5590 H         1 <0>         0.1307
     58 H23        12.8114    7.8904    9.5600 H         1 <0>         0.1331
     59 H24        12.7436   10.5493    6.1897 H         1 <0>         0.1304
     60 H25        10.2856   10.4828    6.2034 H         1 <0>         0.1295
     61 H26        14.9708    8.6858    8.6008 H         1 <0>         0.1406
     62 H27        14.5170   10.5584    6.2171 H         1 <0>         0.1351
     63 H28        16.6927   11.2678    5.3674 H         1 <0>         0.4097
     64 H29        18.9858   11.3424    5.3249 H         1 <0>         0.3892
@<TRIPOS>BOND
     1    1    6 ar
     2    1    2 ar
     3    1   36 1
     4    2    3 ar
     5    2   37 1
     6    3    4 ar
     7    3    7 1
     8    4    5 ar
     9    4   38 1
    10    5    6 ar
    11    6   39 1
    12    7    8 1
    13    7   40 1
    14    7   41 1
    15    8   13 1
    16    8    9 1
    17    9   10 1
    18    9   42 1
    19    9   43 1
    20   10   11 1
    21   10   44 1
    22   10   45 1
    23   11   12 1
    24   11   14 1
    25   12   13 1
    26   12   46 1
    27   12   47 1
    28   13   48 1
    29   13   49 1
    30   14   19 ar
    31   14   15 ar
    32   15   16 ar
    33   15   50 1
    34   16   17 ar
    35   16   51 1
    36   17   18 ar
    37   17   20 1
    38   18   19 ar
    39   18   52 1
    40   19   53 1
    41   20   21 2
    42   20   22 am
    43   22   23 1
    44   22   54 1
    45   23   24 1
    46   23   55 1
    47   23   56 1
    48   24   29 ar
    49   24   25 ar
    50   25   26 ar
    51   25   57 1
    52   26   27 ar
    53   26   58 1
    54   27   28 ar
    55   27   30 1
    56   28   29 ar
    57   28   59 1
    58   29   60 1
    59   30   31 2
    60   30   61 1
    61   31   32 1
    62   31   62 1
    63   32   33 2
    64   32   34 am
    65   34   35 1
    66   34   63 1
    67   35   64 1
@<TRIPOS>MOLECULE
CHEMBL152538__1
   65    68     0     0     0
SMALL
USER_CHARGES

@<TRIPOS>ATOM
      1 C1         -0.0345    1.3551    0.0502 C.ar      1 <0>        -0.1652
      2 C2          1.1622    2.0556    0.0332 C.ar      1 <0>        -0.0503
      3 C3          2.3471    1.3367    0.0041 C.ar      1 <0>        -0.2210
      4 C4          2.2968   -0.0446   -0.0070 C.ar      1 <0>         0.1336
      5 N1          1.1402   -0.6775    0.0093 N.ar      1 <0>        -0.4743
      6 C5         -0.0063   -0.0263    0.0375 C.ar      1 <0>         0.1395
      7 C6          3.6733    2.0521   -0.0157 C.3       1 <0>         0.0504
      8 N2          4.1312    2.2729    1.3625 N.4       1 <0>        -0.3822
      9 C7          3.1999    3.1788    2.0466 C.3       1 <0>        -0.0276
     10 C8          3.6118    3.3191    3.5158 C.3       1 <0>         0.0980
     11 N3          5.0194    3.7436    3.5669 N.pl3     1 <0>        -0.6390
     12 C9          6.0011    2.9860    2.7754 C.3       1 <0>         0.0969
     13 C10         5.4763    2.8614    1.3412 C.3       1 <0>        -0.0222
     14 C11         5.4109    4.8302    4.3411 C.ar      1 <0>         0.2255
     15 C12         4.4514    5.6015    4.9912 C.ar      1 <0>        -0.1959
     16 C13         4.8356    6.6776    5.7581 C.ar      1 <0>        -0.0074
     17 C14         6.1910    6.9959    5.8839 C.ar      1 <0>        -0.1731
     18 C15         7.1520    6.2195    5.2299 C.ar      1 <0>        -0.0347
     19 C16         6.7618    5.1413    4.4690 C.ar      1 <0>        -0.1947
     20 C17         6.6062    8.1491    6.7049 C.2       1 <0>         0.5586
     21 O1          5.7692    8.8239    7.2730 O.2       1 <0>        -0.5332
     22 N4          7.9133    8.4548    6.8253 N.am      1 <0>        -0.7229
     23 C18         8.3257    9.6000    7.6406 C.3       1 <0>         0.1591
     24 C19         9.8273    9.7235    7.6101 C.ar      1 <0>        -0.1010
     25 C20        10.5917    9.0620    8.5554 C.ar      1 <0>        -0.1008
     26 C21        11.9662    9.1705    8.5345 C.ar      1 <0>        -0.0918
     27 C22        12.5874    9.9510    7.5545 C.ar      1 <0>        -0.0661
     28 C23        11.8082   10.6159    6.6027 C.ar      1 <0>        -0.1014
     29 C24        10.4351   10.4934    6.6337 C.ar      1 <0>        -0.1015
     30 C25        14.0542   10.0724    7.5254 C.2       1 <0>        -0.0114
     31 C26        14.6495   10.8258    6.5792 C.2       1 <0>        -0.2019
     32 C27        16.1085   10.9466    6.5502 C.2       1 <0>         0.5585
     33 O2         16.7837   10.3669    7.3804 O.2       1 <0>        -0.5221
     34 N5         16.7037   11.6998    5.6042 N.am      1 <0>        -0.5928
     35 O3         18.1146   11.8166    5.5762 O.3       1 <0>        -0.3143
     36 H1         -0.9765    1.8826    0.0774 H         1 <0>         0.1519
     37 H2          1.1708    3.1355    0.0422 H         1 <0>         0.1443
     38 H3          3.2155   -0.6120   -0.0297 H         1 <0>         0.1629
     39 H4         -0.9340   -0.5793    0.0509 H         1 <0>         0.1717
     40 H5          4.4054    1.4457   -0.5490 H         1 <0>         0.1430
     41 H6          3.5608    3.0122   -0.5194 H         1 <0>         0.1381
     42 H7          3.2260    4.1571    1.5668 H         1 <0>         0.1350
     43 H8          2.1900    2.7727    1.9895 H         1 <0>         0.1383
     44 H9          2.9858    4.0674    4.0019 H         1 <0>         0.1296
     45 H10         3.5000    2.3597    4.0208 H         1 <0>         0.0906
     46 H11         6.9547    3.5140    2.7719 H         1 <0>         0.1298
     47 H12         6.1305    1.9929    3.2056 H         1 <0>         0.0914
     48 H13         6.1439    2.2214    0.7642 H         1 <0>         0.1444
     49 H14         5.4336    3.8493    0.8827 H         1 <0>         0.1349
     50 H15         3.4044    5.3553    4.8933 H         1 <0>         0.1307
     51 H16         4.0907    7.2757    6.2619 H         1 <0>         0.1427
     52 H17         8.1999    6.4632    5.3249 H         1 <0>         0.1307
     53 H18         7.5041    4.5382    3.9673 H         1 <0>         0.1305
     54 H19         8.5810    7.9165    6.3721 H         1 <0>         0.3999
     55 H20         7.8781   10.5102    7.2413 H         1 <0>         0.0818
     56 H21         7.9940    9.4526    8.6683 H         1 <0>         0.0822
     57 H22        10.1104    8.4596    9.3116 H         1 <0>         0.1303
     58 H23        12.5613    8.6542    9.2732 H         1 <0>         0.1342
     59 H24        12.2808   11.2208    5.8430 H         1 <0>         0.1313
     60 H25         9.8321   11.0028    5.8966 H         1 <0>         0.1291
     61 H26        14.6534    9.5580    8.2621 H         1 <0>         0.1416
     62 H27        14.0503   11.3402    5.8425 H         1 <0>         0.1350
     63 H28        16.1656   12.1618    4.9426 H         1 <0>         0.4095
     64 H29        18.4488   12.3770    4.8625 H         1 <0>         0.3903
     65 H30         4.1591    1.3909    1.8517 H         1 <0>         0.4230
@<TRIPOS>BOND
     1    1    6 ar
     2    1    2 ar
     3    1   36 1
     4    2    3 ar
     5    2   37 1
     6    3    4 ar
     7    3    7 1
     8    4    5 ar
     9    4   38 1
    10    5    6 ar
    11    6   39 1
    12    7    8 1
    13    7   40 1
    14    7   41 1
    15    8   13 1
    16    8    9 1
    17    8   65 1
    18    9   10 1
    19    9   42 1
    20    9   43 1
    21   10   11 1
    22   10   44 1
    23   10   45 1
    24   11   12 1
    25   11   14 1
    26   12   13 1
    27   12   46 1
    28   12   47 1
    29   13   48 1
    30   13   49 1
    31   14   19 ar
    32   14   15 ar
    33   15   16 ar
    34   15   50 1
    35   16   17 ar
    36   16   51 1
    37   17   18 ar
    38   17   20 1
    39   18   19 ar
    40   18   52 1
    41   19   53 1
    42   20   21 2
    43   20   22 am
    44   22   23 1
    45   22   54 1
    46   23   24 1
    47   23   55 1
    48   23   56 1
    49   24   29 ar
    50   24   25 ar
    51   25   26 ar
    52   25   57 1
    53   26   27 ar
    54   26   58 1
    55   27   28 ar
    56   27   30 1
    57   28   29 ar
    58   28   59 1
    59   29   60 1
    60   30   31 2
    61   30   61 1
    62   31   32 1
    63   31   62 1
    64   32   33 2
    65   32   34 am
    66   34   35 1
    67   34   63 1
    68   35   64 1
@<TRIPOS>MOLECULE
CHEMBL140525
   63    66     0     0     0
SMALL
USER_CHARGES

@<TRIPOS>ATOM
      1 C1          5.0416    1.6059    0.0371 C.ar      1 <0>        -0.1102
      2 C2          4.0602    2.0861    0.9022 C.ar      1 <0>        -0.1010
      3 C3          3.0747    1.2716    1.3680 C.ar      1 <0>        -0.0903
      4 C4          3.0396   -0.0779    0.9743 C.ar      1 <0>         0.1154
      5 C5          4.0389   -0.5640    0.0943 C.ar      1 <0>        -0.0832
      6 C6          5.0412    0.3059   -0.3666 C.ar      1 <0>        -0.0964
      7 C7          4.0047   -1.9135   -0.3002 C.ar      1 <0>        -0.0536
      8 C8          2.9885   -2.7087    0.1940 C.ar      1 <0>         0.0840
      9 C9          2.0369   -2.1572    1.0595 C.ar      1 <0>         0.1234
     10 N1          2.0818   -0.8980    1.4176 N.ar      1 <0>        -0.4548
     11 N2          2.9110   -4.0577   -0.1693 N.am      1 <0>        -0.6660
     12 C10         4.0360   -4.7918   -0.2792 C.2       1 <0>         0.5287
     13 O1          5.1050   -4.3143    0.0375 O.2       1 <0>        -0.4916
     14 C11         3.9656   -6.2058   -0.7956 C.3       1 <0>        -0.1255
     15 C12         3.3860   -6.2034   -2.2116 C.3       1 <0>        -0.1051
     16 C13         4.2505   -5.3217   -3.1150 C.3       1 <0>        -0.1304
     17 C14         3.6016   -5.2160   -4.4965 C.3       1 <0>        -0.1142
     18 C15         4.4661   -4.3343   -5.4000 C.3       1 <0>        -0.1433
     19 C16         3.8172   -4.2287   -6.7815 C.3       1 <0>         0.1338
     20 N3          4.6449   -3.3844   -7.6465 N.am      1 <0>        -0.4798
     21 C17         5.7954   -3.8662   -8.1571 C.2       1 <0>         0.4792
     22 O2          6.4807   -3.1672   -8.8732 O.2       1 <0>        -0.5526
     23 O3          4.2362   -2.0622   -7.9462 O.3       1 <0>        -0.3373
     24 C18         5.3499   -6.8010   -0.8204 C.2       1 <0>         0.5314
     25 O4          6.2488   -6.2219   -1.3929 O.2       1 <0>        -0.4793
     26 N4          5.5890   -7.9767   -0.2065 N.am      1 <0>        -0.6676
     27 C19         6.8979   -8.4619   -0.1095 C.ar      1 <0>         0.0996
     28 C20         7.1377   -9.8226   -0.1294 C.ar      1 <0>        -0.0943
     29 C21         8.4705  -10.2600   -0.0294 C.ar      1 <0>        -0.0815
     30 C22         8.7927  -11.6274   -0.0430 C.ar      1 <0>        -0.1025
     31 C23        10.0945  -12.0130    0.0554 C.ar      1 <0>        -0.1093
     32 C24        11.1129  -11.0686    0.1696 C.ar      1 <0>        -0.1055
     33 C25        10.8370   -9.7363    0.1861 C.ar      1 <0>        -0.0864
     34 C26         9.5046   -9.2977    0.0866 C.ar      1 <0>         0.1121
     35 N5          9.2078   -7.9946    0.0993 N.ar      1 <0>        -0.4536
     36 C27         7.9719   -7.5715    0.0022 C.ar      1 <0>         0.1405
     37 H1          5.8099    2.2750   -0.3213 H         1 <0>         0.1301
     38 H2          4.0824    3.1216    1.2083 H         1 <0>         0.1321
     39 H3          2.3222    1.6601    2.0381 H         1 <0>         0.1370
     40 H4          5.8068   -0.0547   -1.0375 H         1 <0>         0.1314
     41 H5          4.7504   -2.3161   -0.9697 H         1 <0>         0.1454
     42 H6          1.2457   -2.7854    1.4414 H         1 <0>         0.1621
     43 H7          2.0476   -4.4646   -0.3421 H         1 <0>         0.4143
     44 H8          3.3264   -6.7998   -0.1424 H         1 <0>         0.1220
     45 H9          3.3743   -7.2214   -2.6011 H         1 <0>         0.0856
     46 H10         2.3691   -5.8119   -2.1873 H         1 <0>         0.0854
     47 H11         4.3368   -4.3272   -2.6771 H         1 <0>         0.0635
     48 H12         5.2423   -5.7632   -3.2122 H         1 <0>         0.0865
     49 H13         3.5153   -6.2105   -4.9344 H         1 <0>         0.0682
     50 H14         2.6098   -4.7745   -4.3993 H         1 <0>         0.0666
     51 H15         4.5524   -3.3399   -4.9621 H         1 <0>         0.0726
     52 H16         5.4579   -4.7759   -5.4972 H         1 <0>         0.0699
     53 H17         3.7308   -5.2231   -7.2194 H         1 <0>         0.0922
     54 H18         2.8254   -3.7871   -6.6843 H         1 <0>         0.0955
     55 H19         6.1072   -4.8746   -7.9285 H         1 <0>         0.1532
     56 H20         4.8462   -1.5833   -8.5238 H         1 <0>         0.3976
     57 H21         4.8537   -8.4866    0.1680 H         1 <0>         0.4131
     58 H22         6.3257  -10.5291   -0.2185 H         1 <0>         0.1433
     59 H23         8.0119  -12.3684   -0.1307 H         1 <0>         0.1306
     60 H24        10.3412  -13.0644    0.0452 H         1 <0>         0.1292
     61 H25        12.1380  -11.3997    0.2468 H         1 <0>         0.1314
     62 H26        11.6386   -9.0181    0.2756 H         1 <0>         0.1367
     63 H27         7.7765   -6.5094    0.0128 H         1 <0>         0.1717
@<TRIPOS>BOND
     1    1    6 ar
     2    1    2 ar
     3    1   37 1
     4    2    3 ar
     5    2   38 1
     6    3    4 ar
     7    3   39 1
     8    4   10 ar
     9    4    5 ar
    10    5    6 ar
    11    5    7 ar
    12    6   40 1
    13    7    8 ar
    14    7   41 1
    15    8    9 ar
    16    8   11 1
    17    9   10 ar
    18    9   42 1
    19   11   12 am
    20   11   43 1
    21   12   13 2
    22   12   14 1
    23   14   15 1
    24   14   24 1
    25   14   44 1
    26   15   16 1
    27   15   45 1
    28   15   46 1
    29   16   17 1
    30   16   47 1
    31   16   48 1
    32   17   18 1
    33   17   49 1
    34   17   50 1
    35   18   19 1
    36   18   51 1
    37   18   52 1
    38   19   20 1
    39   19   53 1
    40   19   54 1
    41   20   21 am
    42   20   23 1
    43   21   22 2
    44   21   55 1
    45   23   56 1
    46   24   25 2
    47   24   26 am
    48   26   27 1
    49   26   57 1
    50   27   36 ar
    51   27   28 ar
    52   28   29 ar
    53   28   58 1
    54   29   34 ar
    55   29   30 ar
    56   30   31 ar
    57   30   59 1
    58   31   32 ar
    59   31   60 1
    60   32   33 ar
    61   32   61 1
    62   33   34 ar
    63   33   62 1
    64   34   35 ar
    65   35   36 ar
    66   36   63 1
@<TRIPOS>MOLECULE
CHEMBL470843
   43    45     0     0     0
SMALL
USER_CHARGES

@<TRIPOS>ATOM
      1 C1         -0.0169    1.3952    0.0097 C.ar      1 <0>        -0.0915
      2 C2          1.1661    2.0984    0.0022 C.ar      1 <0>        -0.0836
      3 C3          2.3835    1.4173   -0.0136 C.ar      1 <0>        -0.0268
      4 C4          2.4050    0.0224   -0.0212 C.ar      1 <0>        -0.0855
      5 C5          1.2245   -0.6850   -0.0138 C.ar      1 <0>        -0.1019
      6 C6          0.0021   -0.0041    0.0020 C.ar      1 <0>        -0.0589
      7 C7         -1.2611   -0.7580    0.0105 C.2       1 <0>        -0.0090
      8 C8         -1.2416   -2.1066    0.0031 C.2       1 <0>        -0.2024
      9 C9         -2.4989   -2.8570    0.0115 C.2       1 <0>         0.5596
     10 O1         -3.5615   -2.2639    0.0253 O.2       1 <0>        -0.5225
     11 N1         -2.4794   -4.2046    0.0041 N.am      1 <0>        -0.5929
     12 O2         -3.6953   -4.9303    0.0123 O.3       1 <0>        -0.3151
     13 C10         3.6573    2.1776   -0.0226 C.2       1 <0>         0.1452
     14 C11         4.9599    1.6231   -0.0443 C.2       1 <0>        -0.2728
     15 C12         5.8440    2.6360   -0.0460 C.2       1 <0>         0.0904
     16 O3          5.1604    3.7907   -0.0266 O.3       1 <0>        -0.0616
     17 N2          3.7780    3.4835   -0.0177 N.2       1 <0>        -0.3070
     18 C13         7.3446    2.4984   -0.0655 C.3       1 <0>         0.1185
     19 N3          7.8153    2.4661   -1.4567 N.3       1 <0>        -0.5335
     20 C14         7.3504    1.2514   -2.1421 C.3       1 <0>         0.0094
     21 C15         7.8117    1.2871   -3.6014 C.3       1 <0>         0.0637
     22 O4          9.2349    1.4211   -3.6431 O.3       1 <0>        -0.3835
     23 C16         9.7223    2.5939   -2.9854 C.3       1 <0>         0.0625
     24 C17         9.2803    2.5714   -1.5198 C.3       1 <0>         0.0190
     25 H1         -0.9591    1.9228    0.0260 H         1 <0>         0.1389
     26 H2          1.1519    3.1782    0.0081 H         1 <0>         0.1368
     27 H3          3.3486   -0.5027   -0.0334 H         1 <0>         0.1341
     28 H4          1.2416   -1.7649   -0.0205 H         1 <0>         0.1366
     29 H5         -2.2041   -0.2317    0.0227 H         1 <0>         0.1428
     30 H6         -0.2987   -2.6329   -0.0091 H         1 <0>         0.1361
     31 H7         -1.6325   -4.6773   -0.0068 H         1 <0>         0.4098
     32 H8         -3.5804   -5.8904    0.0060 H         1 <0>         0.3894
     33 H9          5.2012    0.5704   -0.0571 H         1 <0>         0.1597
     34 H10         7.7940    3.3469    0.4504 H         1 <0>         0.1070
     35 H11         7.6313    1.5745    0.4366 H         1 <0>         0.0779
     36 H12         7.7680    0.3732   -1.6497 H         1 <0>         0.0496
     37 H13         6.2619    1.2068   -2.1054 H         1 <0>         0.0899
     38 H14         7.5185    0.3624   -4.0986 H         1 <0>         0.1014
     39 H15         7.3512    2.1352   -4.1081 H         1 <0>         0.0615
     40 H16        10.8108    2.6143   -3.0370 H         1 <0>         0.1031
     41 H17         9.3174    3.4800   -3.4742 H         1 <0>         0.0627
     42 H18         9.6006    3.4904   -1.0289 H         1 <0>         0.0930
     43 H19         9.7288    1.7143   -1.0175 H         1 <0>         0.0501
@<TRIPOS>BOND
     1    1    6 ar
     2    1    2 ar
     3    1   25 1
     4    2    3 ar
     5    2   26 1
     6    3    4 ar
     7    3   13 1
     8    4    5 ar
     9    4   27 1
    10    5    6 ar
    11    5   28 1
    12    6    7 1
    13    7    8 2
    14    7   29 1
    15    8    9 1
    16    8   30 1
    17    9   10 2
    18    9   11 am
    19   11   12 1
    20   11   31 1
    21   12   32 1
    22   13   17 2
    23   13   14 1
    24   14   15 2
    25   14   33 1
    26   15   16 1
    27   15   18 1
    28   16   17 1
    29   18   19 1
    30   18   34 1
    31   18   35 1
    32   19   24 1
    33   19   20 1
    34   20   21 1
    35   20   36 1
    36   20   37 1
    37   21   22 1
    38   21   38 1
    39   21   39 1
    40   22   23 1
    41   23   24 1
    42   23   40 1
    43   23   41 1
    44   24   42 1
    45   24   43 1
@<TRIPOS>MOLECULE
CHEMBL470843__1
   44    46     0     0     0
SMALL
USER_CHARGES

@<TRIPOS>ATOM
      1 C1         -0.0169    1.3952    0.0097 C.ar      1 <0>        -0.0923
      2 C2          1.1661    2.0984    0.0022 C.ar      1 <0>        -0.0749
      3 C3          2.3835    1.4173   -0.0136 C.ar      1 <0>        -0.0549
      4 C4          2.4050    0.0224   -0.0212 C.ar      1 <0>        -0.0805
      5 C5          1.2245   -0.6850   -0.0138 C.ar      1 <0>        -0.1053
      6 C6          0.0021   -0.0041    0.0020 C.ar      1 <0>        -0.0372
      7 C7         -1.2611   -0.7580    0.0105 C.2       1 <0>        -0.0252
      8 C8         -1.2416   -2.1066    0.0031 C.2       1 <0>        -0.1845
      9 C9         -2.4989   -2.8570    0.0115 C.2       1 <0>         0.5557
     10 O1         -3.5615   -2.2639    0.0253 O.2       1 <0>        -0.5172
     11 N1         -2.4794   -4.2046    0.0041 N.am      1 <0>        -0.5914
     12 O2         -3.6953   -4.9303    0.0123 O.3       1 <0>        -0.3121
     13 C10         3.6573    2.1776   -0.0226 C.2       1 <0>         0.1527
     14 C11         4.9599    1.6231   -0.0443 C.2       1 <0>        -0.2092
     15 C12         5.8440    2.6360   -0.0460 C.2       1 <0>        -0.0120
     16 O3          5.1604    3.7907   -0.0266 O.3       1 <0>        -0.0590
     17 N2          3.7780    3.4835   -0.0177 N.2       1 <0>        -0.2671
     18 C13         7.3446    2.4984   -0.0655 C.3       1 <0>         0.0789
     19 N3          7.8153    2.4661   -1.4567 N.4       1 <0>        -0.3875
     20 C14         7.3064    1.2566   -2.1181 C.3       1 <0>        -0.0535
     21 C15         7.7980    1.2253   -3.5674 C.3       1 <0>         0.0382
     22 O4          9.2275    1.2698   -3.5815 O.3       1 <0>        -0.3545
     23 C16         9.7724    2.4191   -2.9272 C.3       1 <0>         0.0357
     24 C17         9.2845    2.4526   -1.4767 C.3       1 <0>        -0.0430
     25 H1         -0.9591    1.9228    0.0260 H         1 <0>         0.1439
     26 H2          1.1519    3.1782    0.0081 H         1 <0>         0.1377
     27 H3          3.3486   -0.5027   -0.0334 H         1 <0>         0.1327
     28 H4          1.2416   -1.7649   -0.0205 H         1 <0>         0.1406
     29 H5         -2.2041   -0.2317    0.0227 H         1 <0>         0.1465
     30 H6         -0.2987   -2.6329   -0.0091 H         1 <0>         0.1365
     31 H7         -1.6325   -4.6773   -0.0068 H         1 <0>         0.4095
     32 H8         -3.5804   -5.8904    0.0060 H         1 <0>         0.3917
     33 H9          5.2012    0.5704   -0.0571 H         1 <0>         0.1757
     34 H10         7.7940    3.3469    0.4504 H         1 <0>         0.1597
     35 H11         7.6313    1.5745    0.4366 H         1 <0>         0.1641
     36 H12         7.6699    0.3741   -1.5917 H         1 <0>         0.1450
     37 H13         6.2165    1.2657   -2.1039 H         1 <0>         0.1399
     38 H14         7.4576    0.3079   -4.0475 H         1 <0>         0.1443
     39 H15         7.4017    2.0868   -4.1049 H         1 <0>         0.0822
     40 H16        10.8609    2.3656   -2.9439 H         1 <0>         0.1458
     41 H17         9.4437    3.3214   -3.4427 H         1 <0>         0.0832
     42 H18         9.6630    3.3495   -0.9863 H         1 <0>         0.1480
     43 H19         9.6472    1.5696   -0.9505 H         1 <0>         0.1443
     44 H20         7.4796    3.2830   -1.9446 H         1 <0>         0.4287
@<TRIPOS>BOND
     1    1    6 ar
     2    1    2 ar
     3    1   25 1
     4    2    3 ar
     5    2   26 1
     6    3    4 ar
     7    3   13 1
     8    4    5 ar
     9    4   27 1
    10    5    6 ar
    11    5   28 1
    12    6    7 1
    13    7    8 2
    14    7   29 1
    15    8    9 1
    16    8   30 1
    17    9   10 2
    18    9   11 am
    19   11   12 1
    20   11   31 1
    21   12   32 1
    22   13   17 2
    23   13   14 1
    24   14   15 2
    25   14   33 1
    26   15   16 1
    27   15   18 1
    28   16   17 1
    29   18   19 1
    30   18   34 1
    31   18   35 1
    32   19   24 1
    33   19   20 1
    34   19   44 1
    35   20   21 1
    36   20   36 1
    37   20   37 1
    38   21   22 1
    39   21   38 1
    40   21   39 1
    41   22   23 1
    42   23   24 1
    43   23   40 1
    44   23   41 1
    45   24   42 1
    46   24   43 1
@<TRIPOS>MOLECULE
CHEMBL16481
   90    91     0     0     0
SMALL
USER_CHARGES

@<TRIPOS>ATOM
      1 C1         -0.0187    1.5258    0.0104 C.3       1 <0>        -0.1516
      2 C2          0.0021   -0.0041    0.0020 C.3       1 <0>        -0.1112
      3 C3         -1.4333   -0.5336    0.0129 C.3       1 <0>        -0.0989
      4 C4         -2.1103   -0.1453    1.3289 C.3       1 <0>        -0.1586
      5 C5         -1.4157   -2.0533   -0.1208 C.3       1 <0>         0.1499
      6 H1         -0.8556   -2.4788    0.7257 H         1 <0>         0.0980
      7 C6         -2.8018   -2.6244   -0.1289 C.2       1 <0>         0.5072
      8 O1         -3.4637   -2.5227   -1.1460 O.2       1 <0>        -0.4882
      9 N1         -3.4043   -3.2210    0.9182 N.am      1 <0>        -0.6180
     10 C7         -3.1882   -2.6949    2.2609 C.3       1 <0>         0.1113
     11 C8         -3.2282   -3.7908    3.3217 C.3       1 <0>        -0.1360
     12 C9         -4.4883   -4.6356    3.1126 C.3       1 <0>        -0.1170
     13 C10        -4.3650   -5.3467    1.7668 C.3       1 <0>        -0.1248
     14 C11        -4.3014   -4.3348    0.6259 C.3       1 <0>         0.1505
     15 H2         -5.2963   -3.9649    0.3954 H         1 <0>         0.0799
     16 C12        -3.7414   -5.0496   -0.5920 C.2       1 <0>         0.5020
     17 O2         -2.7743   -5.7761   -0.4854 O.2       1 <0>        -0.4923
     18 N2         -4.3575   -4.8588   -1.7948 N.am      1 <0>        -0.7066
     19 C13        -3.7000   -5.5140   -2.9585 C.3       1 <0>         0.1366
     20 H3         -3.5033   -6.5628   -2.7181 H         1 <0>         0.1102
     21 C14        -2.3990   -4.7880   -3.1713 C.2       1 <0>         0.5137
     22 O3         -1.4005   -5.1550   -2.5726 O.2       1 <0>        -0.5044
     23 N3         -2.3134   -3.7281   -4.0302 N.am      1 <0>        -0.7103
     24 C15        -1.0650   -2.9244   -3.8174 C.3       1 <0>         0.1345
     25 H4         -0.2081   -3.5734   -3.6813 H         1 <0>         0.1075
     26 C16        -1.3466   -2.1406   -2.5556 C.2       1 <0>         0.5223
     27 O4         -2.0957   -1.1898   -2.6467 O.2       1 <0>        -0.4994
     28 N4         -0.7738   -2.4885   -1.3846 N.am      1 <0>        -0.7199
     29 C17        -0.8465   -1.9705   -4.9913 C.3       1 <0>        -0.1697
     30 C18        -0.5895   -2.7669   -6.2446 C.2       1 <0>         0.3634
     31 O5         -0.5821   -3.9737   -6.2022 O.2       1 <0>        -0.4331
     32 C19        -0.3418   -2.0572   -7.5507 C.3       1 <0>        -0.1137
     33 C20        -0.1109   -3.0895   -8.6562 C.3       1 <0>        -0.1344
     34 C21        -1.5572   -1.1969   -7.9022 C.3       1 <0>        -0.1406
     35 C22         0.8941   -1.1648   -7.4199 C.3       1 <0>        -0.1412
     36 C23        -4.5997   -5.4309   -4.1888 C.3       1 <0>        -0.1291
     37 C24        -5.8733   -6.2429   -3.9450 C.3       1 <0>        -0.1162
     38 C25        -6.7752   -6.1596   -5.1782 C.3       1 <0>        -0.1191
     39 C26        -8.0488   -6.9716   -4.9344 C.3       1 <0>        -0.1122
     40 C27        -8.9506   -6.8883   -6.1676 C.3       1 <0>        -0.1733
     41 C28       -10.2051   -7.6882   -5.9274 C.2       1 <0>         0.3512
     42 O6        -10.3616   -8.2653   -4.8783 O.2       1 <0>        -0.4512
     43 C29       -11.2641   -7.7678   -6.9966 C.3       1 <0>        -0.1774
     44 C30       -12.4238   -8.6348   -6.5022 C.3       1 <0>        -0.1465
     45 H5          1.0039    1.9031    0.0027 H         1 <0>         0.0541
     46 H6         -0.5459    1.8868   -0.8726 H         1 <0>         0.0548
     47 H7         -0.5289    1.8773    0.9072 H         1 <0>         0.0564
     48 H8          0.5123   -0.3556   -0.8948 H         1 <0>         0.0629
     49 H9          0.5293   -0.3651    0.8851 H         1 <0>         0.0604
     50 H10        -1.9862   -0.1019   -0.8214 H         1 <0>         0.1067
     51 H11        -1.5574   -0.5770    2.1631 H         1 <0>         0.0601
     52 H12        -2.1228    0.9405    1.4244 H         1 <0>         0.0689
     53 H13        -3.1329   -0.5225    1.3366 H         1 <0>         0.0571
     54 H14        -2.2178   -2.1934    2.3049 H         1 <0>         0.0848
     55 H15        -3.9643   -1.9554    2.4834 H         1 <0>         0.0635
     56 H16        -2.3465   -4.4244    3.2317 H         1 <0>         0.0725
     57 H17        -3.2543   -3.3421    4.3148 H         1 <0>         0.0811
     58 H18        -4.5716   -5.3704    3.9119 H         1 <0>         0.0747
     59 H19        -5.3646   -3.9898    3.1099 H         1 <0>         0.0675
     60 H20        -3.4574   -5.9545    1.7638 H         1 <0>         0.0855
     61 H21        -5.2269   -6.0016    1.6232 H         1 <0>         0.0792
     62 H22        -5.1668   -4.3350   -1.8903 H         1 <0>         0.4126
     63 H23        -2.9615   -3.4953   -4.7096 H         1 <0>         0.4106
     64 H24         0.0495   -3.0220   -1.3686 H         1 <0>         0.4141
     65 H25        -1.7347   -1.3537   -5.1284 H         1 <0>         0.1176
     66 H26         0.0116   -1.3309   -4.7848 H         1 <0>         0.1140
     67 H27        -0.9913   -3.7252   -8.7494 H         1 <0>         0.0601
     68 H28         0.0683   -2.5762   -9.6009 H         1 <0>         0.0624
     69 H29         0.7550   -3.7024   -8.4058 H         1 <0>         0.0605
     70 H30        -1.7218   -0.4615   -7.1147 H         1 <0>         0.0648
     71 H31        -1.3780   -0.6836   -8.8470 H         1 <0>         0.0694
     72 H32        -2.4377   -1.8326   -7.9954 H         1 <0>         0.0592
     73 H33         1.7599   -1.7778   -7.1695 H         1 <0>         0.0601
     74 H34         1.0732   -0.6516   -8.3647 H         1 <0>         0.0698
     75 H35         0.7295   -0.4294   -6.6324 H         1 <0>         0.0639
     76 H36        -4.8629   -4.3900   -4.3768 H         1 <0>         0.0747
     77 H37        -4.0717   -5.8339   -5.0530 H         1 <0>         0.0855
     78 H38        -5.6102   -7.2838   -3.7571 H         1 <0>         0.0679
     79 H39        -6.4014   -5.8399   -3.0808 H         1 <0>         0.0657
     80 H40        -7.0384   -5.1187   -5.3662 H         1 <0>         0.0640
     81 H41        -6.2471   -6.5626   -6.0424 H         1 <0>         0.0647
     82 H42        -7.7856   -8.0126   -4.7464 H         1 <0>         0.0678
     83 H43        -8.5768   -6.5686   -4.0702 H         1 <0>         0.0674
     84 H44        -9.2138   -5.8474   -6.3556 H         1 <0>         0.0975
     85 H45        -8.4226   -7.2914   -7.0318 H         1 <0>         0.0978
     86 H46       -11.6297   -6.7658   -7.2213 H         1 <0>         0.0972
     87 H47       -10.8385   -8.2097   -7.8975 H         1 <0>         0.0973
     88 H48       -13.1898   -8.6924   -7.2755 H         1 <0>         0.0612
     89 H49       -12.0582   -9.6368   -6.2775 H         1 <0>         0.0594
     90 H50       -12.8495   -8.1928   -5.6013 H         1 <0>         0.0593
@<TRIPOS>BOND
     1    1    2 1
     2    1   45 1
     3    1   46 1
     4    1   47 1
     5    2    3 1
     6    2   48 1
     7    2   49 1
     8    3    4 1
     9    3    5 1
    10    3   50 1
    11    4   51 1
    12    4   52 1
    13    4   53 1
    14    5    6 1
    15    5   28 1
    16    5    7 1
    17    7    8 2
    18    7    9 am
    19    9   14 1
    20    9   10 1
    21   10   11 1
    22   10   54 1
    23   10   55 1
    24   11   12 1
    25   11   56 1
    26   11   57 1
    27   12   13 1
    28   12   58 1
    29   12   59 1
    30   13   14 1
    31   13   60 1
    32   13   61 1
    33   14   15 1
    34   14   16 1
    35   16   17 2
    36   16   18 am
    37   18   19 1
    38   18   62 1
    39   19   20 1
    40   19   21 1
    41   19   36 1
    42   21   22 2
    43   21   23 am
    44   23   24 1
    45   23   63 1
    46   24   25 1
    47   24   26 1
    48   24   29 1
    49   26   27 2
    50   26   28 am
    51   28   64 1
    52   29   30 1
    53   29   65 1
    54   29   66 1
    55   30   31 2
    56   30   32 1
    57   32   33 1
    58   32   34 1
    59   32   35 1
    60   33   67 1
    61   33   68 1
    62   33   69 1
    63   34   70 1
    64   34   71 1
    65   34   72 1
    66   35   73 1
    67   35   74 1
    68   35   75 1
    69   36   37 1
    70   36   76 1
    71   36   77 1
    72   37   38 1
    73   37   78 1
    74   37   79 1
    75   38   39 1
    76   38   80 1
    77   38   81 1
    78   39   40 1
    79   39   82 1
    80   39   83 1
    81   40   41 1
    82   40   84 1
    83   40   85 1
    84   41   42 2
    85   41   43 1
    86   43   44 1
    87   43   86 1
    88   43   87 1
    89   44   88 1
    90   44   89 1
    91   44   90 1
@<TRIPOS>MOLECULE
CHEMBL16481__1
   90    91     0     0     0
SMALL
USER_CHARGES

@<TRIPOS>ATOM
      1 C1         -2.3328    1.5825    0.9902 C.3       1 <0>        -0.1499
      2 C2         -2.2441    0.0650    1.1640 C.3       1 <0>        -0.1293
      3 C3         -1.4333   -0.5336    0.0129 C.3       1 <0>        -0.0986
      4 C4          0.0101   -0.0322    0.0909 C.3       1 <0>        -0.1400
      5 C5         -1.4493   -2.0556    0.1173 C.3       1 <0>         0.1497
      6 H1         -1.0300   -2.3502    1.0913 H         1 <0>         0.0981
      7 C6         -2.8391   -2.6043   -0.0050 C.2       1 <0>         0.5067
      8 O1         -3.3460   -2.6550   -1.1112 O.2       1 <0>        -0.4878
      9 N1         -3.6043   -3.0225    1.0220 N.am      1 <0>        -0.6181
     10 C7         -3.5631   -2.2956    2.2854 C.3       1 <0>         0.1120
     11 C8         -3.7909   -3.2116    3.4840 C.3       1 <0>        -0.1359
     12 C9         -5.0370   -4.0635    3.2255 C.3       1 <0>        -0.1170
     13 C10        -4.7485   -4.9777    2.0368 C.3       1 <0>        -0.1249
     14 C11        -4.4886   -4.1575    0.7760 C.3       1 <0>         0.1504
     15 H2         -5.4274   -3.8163    0.3493 H         1 <0>         0.0800
     16 C12        -3.7864   -5.0607   -0.2235 C.2       1 <0>         0.5020
     17 O2         -2.8699   -5.7730    0.1327 O.2       1 <0>        -0.4923
     18 N2         -4.2186   -5.0529   -1.5180 N.am      1 <0>        -0.7067
     19 C13        -3.4255   -5.8899   -2.4596 C.3       1 <0>         0.1365
     20 H3         -3.3012   -6.8904   -2.0354 H         1 <0>         0.1102
     21 C14        -2.0832   -5.2217   -2.5891 C.2       1 <0>         0.5138
     22 O3         -1.1931   -5.5025   -1.8025 O.2       1 <0>        -0.5043
     23 N3         -1.8401   -4.3102   -3.5784 N.am      1 <0>        -0.7104
     24 C15        -0.6076   -3.4981   -3.3116 C.3       1 <0>         0.1345
     25 H4          0.1985   -4.1281   -2.9545 H         1 <0>         0.1075
     26 C16        -1.0383   -2.5234   -2.2391 C.2       1 <0>         0.5220
     27 O4         -1.7336   -1.5896   -2.5828 O.2       1 <0>        -0.4995
     28 N4         -0.6499   -2.6907   -0.9580 N.am      1 <0>        -0.7196
     29 C17        -0.1919   -2.7422   -4.5731 C.3       1 <0>        -0.1697
     30 C18         0.2128   -3.7278   -5.6389 C.2       1 <0>         0.3634
     31 O5          0.1725   -4.9132   -5.4117 O.2       1 <0>        -0.4331
     32 C19         0.6677   -3.2342   -6.9881 C.3       1 <0>        -0.1136
     33 C20         1.0176   -4.4293   -7.8770 C.3       1 <0>        -0.1344
     34 C21        -0.4550   -2.4249   -7.6402 C.3       1 <0>        -0.1406
     35 C22         1.9026   -2.3472   -6.8168 C.3       1 <0>        -0.1412
     36 C23        -4.1381   -5.9894   -3.8058 C.3       1 <0>        -0.1291
     37 C24        -5.4606   -6.7380   -3.6287 C.3       1 <0>        -0.1162
     38 C25        -6.1748   -6.8378   -4.9781 C.3       1 <0>        -0.1191
     39 C26        -7.4973   -7.5864   -4.8010 C.3       1 <0>        -0.1122
     40 C27        -8.2116   -7.6862   -6.1504 C.3       1 <0>        -0.1733
     41 C28        -9.5142   -8.4235   -5.9760 C.2       1 <0>         0.3512
     42 O6         -9.8379   -8.8276   -4.8850 O.2       1 <0>        -0.4513
     43 C29       -10.4129   -8.6567   -7.1630 C.3       1 <0>        -0.1774
     44 C30       -11.6602   -9.4218   -6.7160 C.3       1 <0>        -0.1465
     45 H5         -2.9104    2.0091    1.8102 H         1 <0>         0.0557
     46 H6         -1.3292    2.0079    0.9929 H         1 <0>         0.0582
     47 H7         -2.8220    1.8118    0.0435 H         1 <0>         0.0552
     48 H8         -1.7549   -0.1642    2.1107 H         1 <0>         0.0661
     49 H9         -3.2477   -0.3603    1.1613 H         1 <0>         0.0651
     50 H10        -1.8726   -0.2300   -0.9373 H         1 <0>         0.1060
     51 H11         0.4175   -0.2499    1.0781 H         1 <0>         0.0538
     52 H12         0.6104   -0.5334   -0.6685 H         1 <0>         0.0559
     53 H13         0.0307    1.0438   -0.0815 H         1 <0>         0.0619
     54 H14        -2.5920   -1.8051    2.3929 H         1 <0>         0.0840
     55 H15        -4.3369   -1.5212    2.2767 H         1 <0>         0.0640
     56 H16        -2.9278   -3.8620    3.6214 H         1 <0>         0.0727
     57 H17        -3.9423   -2.6128    4.3823 H         1 <0>         0.0812
     58 H18        -5.2582   -4.6633    4.1070 H         1 <0>         0.0748
     59 H19        -5.8813   -3.4157    2.9964 H         1 <0>         0.0676
     60 H20        -3.8711   -5.5894    2.2590 H         1 <0>         0.0856
     61 H21        -5.6033   -5.6367    1.8711 H         1 <0>         0.0793
     62 H22        -4.9876   -4.5409   -1.8094 H         1 <0>         0.4126
     63 H23        -2.3768   -4.1788   -4.3724 H         1 <0>         0.4106
     64 H24         0.1440   -3.2249   -0.7408 H         1 <0>         0.4142
     65 H25        -1.0298   -2.1439   -4.9309 H         1 <0>         0.1176
     66 H26         0.6498   -2.0886   -4.3442 H         1 <0>         0.1141
     67 H27         0.1379   -5.0612   -7.9990 H         1 <0>         0.0601
     68 H28         1.3467   -4.0723   -8.8529 H         1 <0>         0.0624
     69 H29         1.8175   -5.0059   -7.4124 H         1 <0>         0.0605
     70 H30        -0.7043   -1.5735   -7.0069 H         1 <0>         0.0648
     71 H31        -0.1260   -2.0679   -8.6161 H         1 <0>         0.0694
     72 H32        -1.3348   -3.0568   -7.7622 H         1 <0>         0.0592
     73 H33         2.7025   -2.9238   -6.3522 H         1 <0>         0.0601
     74 H34         2.2316   -1.9902   -7.7927 H         1 <0>         0.0698
     75 H35         1.6533   -1.4958   -6.1835 H         1 <0>         0.0639
     76 H36        -4.3359   -4.9876   -4.1871 H         1 <0>         0.0747
     77 H37        -3.5069   -6.5289   -4.5120 H         1 <0>         0.0856
     78 H38        -5.2628   -7.7398   -3.2474 H         1 <0>         0.0679
     79 H39        -6.0918   -6.1985   -2.9226 H         1 <0>         0.0657
     80 H40        -6.3726   -5.8360   -5.3594 H         1 <0>         0.0641
     81 H41        -5.5436   -7.3773   -5.6843 H         1 <0>         0.0647
     82 H42        -7.2996   -8.5882   -4.4197 H         1 <0>         0.0679
     83 H43        -8.1285   -7.0469   -4.0949 H         1 <0>         0.0674
     84 H44        -8.4094   -6.6844   -6.5317 H         1 <0>         0.0975
     85 H45        -7.5804   -8.2257   -6.8566 H         1 <0>         0.0978
     86 H46       -10.7081   -7.6979   -7.5892 H         1 <0>         0.0972
     87 H47        -9.8791   -9.2392   -7.9140 H         1 <0>         0.0973
     88 H48       -12.3102   -9.5904   -7.5746 H         1 <0>         0.0612
     89 H49       -11.3650  -10.3806   -6.2898 H         1 <0>         0.0594
     90 H50       -12.1939   -8.8393   -5.9650 H         1 <0>         0.0593
@<TRIPOS>BOND
     1    1    2 1
     2    1   45 1
     3    1   46 1
     4    1   47 1
     5    2    3 1
     6    2   48 1
     7    2   49 1
     8    3    4 1
     9    3    5 1
    10    3   50 1
    11    4   51 1
    12    4   52 1
    13    4   53 1
    14    5    6 1
    15    5   28 1
    16    5    7 1
    17    7    8 2
    18    7    9 am
    19    9   14 1
    20    9   10 1
    21   10   11 1
    22   10   54 1
    23   10   55 1
    24   11   12 1
    25   11   56 1
    26   11   57 1
    27   12   13 1
    28   12   58 1
    29   12   59 1
    30   13   14 1
    31   13   60 1
    32   13   61 1
    33   14   15 1
    34   14   16 1
    35   16   17 2
    36   16   18 am
    37   18   19 1
    38   18   62 1
    39   19   20 1
    40   19   21 1
    41   19   36 1
    42   21   22 2
    43   21   23 am
    44   23   24 1
    45   23   63 1
    46   24   25 1
    47   24   26 1
    48   24   29 1
    49   26   27 2
    50   26   28 am
    51   28   64 1
    52   29   30 1
    53   29   65 1
    54   29   66 1
    55   30   31 2
    56   30   32 1
    57   32   33 1
    58   32   34 1
    59   32   35 1
    60   33   67 1
    61   33   68 1
    62   33   69 1
    63   34   70 1
    64   34   71 1
    65   34   72 1
    66   35   73 1
    67   35   74 1
    68   35   75 1
    69   36   37 1
    70   36   76 1
    71   36   77 1
    72   37   38 1
    73   37   78 1
    74   37   79 1
    75   38   39 1
    76   38   80 1
    77   38   81 1
    78   39   40 1
    79   39   82 1
    80   39   83 1
    81   40   41 1
    82   40   84 1
    83   40   85 1
    84   41   42 2
    85   41   43 1
    86   43   44 1
    87   43   86 1
    88   43   87 1
    89   44   88 1
    90   44   89 1
    91   44   90 1
@<TRIPOS>MOLECULE
CHEMBL140900
   56    59     0     0     0
SMALL
USER_CHARGES

@<TRIPOS>ATOM
      1 C1         -0.0166    1.3739    0.0096 C.ar      1 <0>        -0.1437
      2 C2          1.1715    2.0887    0.0021 C.ar      1 <0>        -0.0797
      3 C3          2.3835    1.4330   -0.0135 C.ar      1 <0>        -0.1476
      4 C4          2.4230    0.0419   -0.0218 C.ar      1 <0>         0.1353
      5 C5          1.2201   -0.6797   -0.0137 C.ar      1 <0>        -0.1004
      6 C6          0.0021   -0.0041    0.0020 C.ar      1 <0>        -0.0579
      7 C7          1.5887   -2.1073   -0.0265 C.ar      1 <0>        -0.1002
      8 C8          0.8500   -3.2882   -0.0266 C.ar      1 <0>        -0.0578
      9 C9          1.5007   -4.5029   -0.0413 C.ar      1 <0>        -0.1439
     10 C10         2.8862   -4.5530   -0.0561 C.ar      1 <0>        -0.0799
     11 C11         3.6293   -3.3925   -0.0558 C.ar      1 <0>        -0.1478
     12 C12         2.9905   -2.1561   -0.0414 C.ar      1 <0>         0.1354
     13 N1          3.4724   -0.8594   -0.0383 N.pl3     1 <0>        -0.5110
     14 C13         4.8908   -0.4931   -0.0508 C.3       1 <0>         0.1243
     15 C14         5.3995   -0.3745    1.3873 C.3       1 <0>        -0.1743
     16 C15         6.8809    0.0081    1.3743 C.3       1 <0>        -0.0060
     17 N2          7.3693    0.1219    2.7550 N.4       1 <0>        -0.5087
     18 C16         8.7916    0.4892    2.7425 C.3       1 <0>         0.0460
     19 C17         9.2927    0.6060    4.1590 C.ar      1 <0>        -0.1642
     20 C18         9.2163    1.8204    4.8183 C.ar      1 <0>        -0.0894
     21 C19         9.6731    1.9354    6.1142 C.ar      1 <0>        -0.0929
     22 C20        10.2142    0.8207    6.7624 C.ar      1 <0>        -0.0273
     23 C21        10.2876   -0.4030    6.0896 C.ar      1 <0>        -0.1043
     24 C22         9.8218   -0.5032    4.7956 C.ar      1 <0>        -0.0895
     25 C23        10.7046    0.9350    8.1457 C.2       1 <0>        -0.0379
     26 C24        11.2257   -0.1418    8.7672 C.2       1 <0>        -0.1724
     27 C25        11.7134   -0.0281   10.1432 C.2       1 <0>         0.5537
     28 O1         11.6485    1.0384   10.7256 O.2       1 <0>        -0.5151
     29 N3         12.2344   -1.1047   10.7646 N.am      1 <0>        -0.5900
     30 O2         12.7061   -0.9948   12.0952 O.3       1 <0>        -0.3106
     31 H1         -0.9602    1.8990    0.0259 H         1 <0>         0.1314
     32 H2          1.1469    3.1684    0.0081 H         1 <0>         0.1314
     33 H3          3.3032    1.9991   -0.0196 H         1 <0>         0.1187
     34 H4         -0.9248   -0.5584    0.0083 H         1 <0>         0.1290
     35 H5         -0.2293   -3.2520   -0.0147 H         1 <0>         0.1290
     36 H6          0.9292   -5.4194   -0.0411 H         1 <0>         0.1313
     37 H7          3.3873   -5.5097   -0.0676 H         1 <0>         0.1312
     38 H8          4.7081   -3.4425   -0.0666 H         1 <0>         0.1185
     39 H9          5.4597   -1.2607   -0.5753 H         1 <0>         0.0967
     40 H10         5.0147    0.4627   -0.5600 H         1 <0>         0.0968
     41 H11         4.8306    0.3931    1.9118 H         1 <0>         0.0947
     42 H12         5.2756   -1.3303    1.8965 H         1 <0>         0.0945
     43 H13         7.4498   -0.7596    0.8497 H         1 <0>         0.1364
     44 H14         7.0048    0.9638    0.8651 H         1 <0>         0.1365
     45 H15         6.8427    0.8325    3.2406 H         1 <0>         0.4289
     46 H16         9.3605   -0.2784    2.2179 H         1 <0>         0.1397
     47 H17         8.9156    1.4450    2.2333 H         1 <0>         0.1400
     48 H18         8.7981    2.6804    4.3164 H         1 <0>         0.1365
     49 H19         9.6135    2.8839    6.6272 H         1 <0>         0.1437
     50 H20        10.7046   -1.2682    6.5835 H         1 <0>         0.1404
     51 H21         9.8737   -1.4487    4.2762 H         1 <0>         0.1356
     52 H22        10.6470    1.8815    8.6625 H         1 <0>         0.1479
     53 H23        11.2833   -1.0883    8.2503 H         1 <0>         0.1369
     54 H24        12.2861   -1.9548   10.3003 H         1 <0>         0.4101
     55 H25        13.0614   -1.8186   12.4558 H         1 <0>         0.3933
     56 H26         7.2546   -0.7628    3.2264 H         1 <0>         0.4285
@<TRIPOS>BOND
     1    1    6 ar
     2    1    2 ar
     3    1   31 1
     4    2    3 ar
     5    2   32 1
     6    3    4 ar
     7    3   33 1
     8    4   13 1
     9    4    5 ar
    10    5    6 ar
    11    5    7 1
    12    6   34 1
    13    7   12 ar
    14    7    8 ar
    15    8    9 ar
    16    8   35 1
    17    9   10 ar
    18    9   36 1
    19   10   11 ar
    20   10   37 1
    21   11   12 ar
    22   11   38 1
    23   12   13 1
    24   13   14 1
    25   14   15 1
    26   14   39 1
    27   14   40 1
    28   15   16 1
    29   15   41 1
    30   15   42 1
    31   16   17 1
    32   16   43 1
    33   16   44 1
    34   17   18 1
    35   17   45 1
    36   17   56 1
    37   18   19 1
    38   18   46 1
    39   18   47 1
    40   19   24 ar
    41   19   20 ar
    42   20   21 ar
    43   20   48 1
    44   21   22 ar
    45   21   49 1
    46   22   23 ar
    47   22   25 1
    48   23   24 ar
    49   23   50 1
    50   24   51 1
    51   25   26 2
    52   25   52 1
    53   26   27 1
    54   26   53 1
    55   27   28 2
    56   27   29 am
    57   29   30 1
    58   29   54 1
    59   30   55 1
@<TRIPOS>MOLECULE
CHEMBL1094094
   61    64     0     0     0
SMALL
USER_CHARGES

@<TRIPOS>ATOM
      1 C1          0.1684    1.4923    0.3517 C.3       1 <0>        -0.1020
      2 C2          0.0662    0.0021    0.1517 C.2       1 <0>         0.0523
      3 C3         -0.0133   -0.6417   -1.0443 C.2       1 <0>         0.0967
      4 N1         -0.0907   -1.9862   -0.7598 N.pl3     1 <0>        -0.3929
      5 C4         -0.0558   -2.1102    0.5847 C.cat     1 <0>         0.3195
      6 N2          0.0434   -0.9225    1.1185 N.pl3     1 <0>        -0.4696
      7 C5         -0.1152   -3.4097    1.3457 C.3       1 <0>        -0.0264
      8 C6         -1.5393   -3.6898    1.7511 C.ar      1 <0>        -0.1199
      9 C7         -2.0188   -3.2210    2.9599 C.ar      1 <0>        -0.1079
     10 C8         -3.3252   -3.4780    3.3317 C.ar      1 <0>        -0.1100
     11 C9         -4.1521   -4.2034    2.4946 C.ar      1 <0>        -0.0975
     12 C10        -3.6729   -4.6714    1.2854 C.ar      1 <0>        -0.1099
     13 C11        -2.3678   -4.4108    0.9116 C.ar      1 <0>        -0.1063
     14 C12        -0.1922   -3.0772   -1.7322 C.3       1 <0>         0.0896
     15 C13         1.2014   -3.6444   -2.0098 C.3       1 <0>        -0.0947
     16 C14         1.1141   -4.6796   -3.1015 C.ar      1 <0>        -0.1039
     17 C15         0.8857   -6.0047   -2.7808 C.ar      1 <0>        -0.1106
     18 C16         0.8057   -6.9543   -3.7822 C.ar      1 <0>        -0.1132
     19 C17         0.9537   -6.5787   -5.1043 C.ar      1 <0>        -0.1064
     20 C18         1.1812   -5.2534   -5.4250 C.ar      1 <0>        -0.1132
     21 C19         1.2569   -4.3032   -4.4239 C.ar      1 <0>        -0.1095
     22 C20        -0.0159   -0.0192   -2.3862 C.ar      1 <0>        -0.0596
     23 C21         0.9204   -0.4165   -3.3437 C.ar      1 <0>        -0.0840
     24 C22         0.9206    0.1627   -4.5974 C.ar      1 <0>        -0.1089
     25 C23        -0.0032    1.1378   -4.9147 C.ar      1 <0>        -0.0730
     26 C24        -0.9466    1.5463   -3.9660 C.ar      1 <0>        -0.0590
     27 C25        -0.9552    0.9596   -2.6990 C.ar      1 <0>        -0.0606
     28 C26        -1.9316    2.5869   -4.3045 C.2       1 <0>        -0.0275
     29 C27        -1.9252    3.1477   -5.5303 C.2       1 <0>        -0.1825
     30 C28        -2.9048    4.1827   -5.8670 C.2       1 <0>         0.5561
     31 O1         -3.7247    4.5366   -5.0403 O.2       1 <0>        -0.5198
     32 N3         -2.8985    4.7434   -7.0926 N.am      1 <0>        -0.5901
     33 O2         -3.8458    5.7442   -7.4182 O.3       1 <0>        -0.3120
     34 H1          1.2180    1.7863    0.3623 H         1 <0>         0.1029
     35 H2         -0.3441    2.0042   -0.4627 H         1 <0>         0.1052
     36 H3         -0.2946    1.7641    1.3003 H         1 <0>         0.0941
     37 H4          0.2481   -4.2187    0.7120 H         1 <0>         0.1262
     38 H5          0.5088   -3.3378    2.2365 H         1 <0>         0.1314
     39 H6         -1.3727   -2.6543    3.6139 H         1 <0>         0.1254
     40 H7         -3.6996   -3.1123    4.2765 H         1 <0>         0.1330
     41 H8         -5.1726   -4.4048    2.7855 H         1 <0>         0.1329
     42 H9         -4.3189   -5.2385    0.6316 H         1 <0>         0.1326
     43 H10        -1.9945   -4.7733   -0.0348 H         1 <0>         0.1228
     44 H11        -0.8312   -3.8636   -1.3306 H         1 <0>         0.1201
     45 H12        -0.6217   -2.6984   -2.6597 H         1 <0>         0.1265
     46 H13         1.8652   -2.8393   -2.3247 H         1 <0>         0.0884
     47 H14         1.5934   -4.1049   -1.1029 H         1 <0>         0.0889
     48 H15         0.7701   -6.2981   -1.7479 H         1 <0>         0.1231
     49 H16         0.6279   -7.9896   -3.5316 H         1 <0>         0.1287
     50 H17         0.8919   -7.3206   -5.8866 H         1 <0>         0.1286
     51 H18         1.2971   -4.9600   -6.4579 H         1 <0>         0.1283
     52 H19         1.4310   -3.2672   -4.6747 H         1 <0>         0.1219
     53 H20         1.6465   -1.1787   -3.1026 H         1 <0>         0.1291
     54 H21         1.6474   -0.1488   -5.3331 H         1 <0>         0.1414
     55 H22         0.0026    1.5866   -5.8971 H         1 <0>         0.1404
     56 H23        -1.6840    1.2670   -1.9636 H         1 <0>         0.1389
     57 H24        -2.6592    2.9010   -3.5708 H         1 <0>         0.1445
     58 H25        -1.1976    2.8336   -6.2640 H         1 <0>         0.1374
     59 H26        -2.2450    4.4613   -7.7516 H         1 <0>         0.4106
     60 H27        -3.7629    6.0861   -8.3190 H         1 <0>         0.3930
     61 H28         0.0905   -0.7387    2.0697 H         1 <0>         0.4600
@<TRIPOS>BOND
     1    1    2 1
     2    1   34 1
     3    1   35 1
     4    1   36 1
     5    2    6 1
     6    2    3 2
     7    3    4 1
     8    3   22 1
     9    4    5 1
    10    4   14 1
    11    5    6 2
    12    5    7 1
    13    6   61 1
    14    7    8 1
    15    7   37 1
    16    7   38 1
    17    8   13 ar
    18    8    9 ar
    19    9   10 ar
    20    9   39 1
    21   10   11 ar
    22   10   40 1
    23   11   12 ar
    24   11   41 1
    25   12   13 ar
    26   12   42 1
    27   13   43 1
    28   14   15 1
    29   14   44 1
    30   14   45 1
    31   15   16 1
    32   15   46 1
    33   15   47 1
    34   16   21 ar
    35   16   17 ar
    36   17   18 ar
    37   17   48 1
    38   18   19 ar
    39   18   49 1
    40   19   20 ar
    41   19   50 1
    42   20   21 ar
    43   20   51 1
    44   21   52 1
    45   22   27 ar
    46   22   23 ar
    47   23   24 ar
    48   23   53 1
    49   24   25 ar
    50   24   54 1
    51   25   26 ar
    52   25   55 1
    53   26   27 ar
    54   26   28 1
    55   27   56 1
    56   28   29 2
    57   28   57 1
    58   29   30 1
    59   29   58 1
    60   30   31 2
    61   30   32 am
    62   32   33 1
    63   32   59 1
    64   33   60 1
@<TRIPOS>MOLECULE
CHEMBL1094094__1
   60    63     0     0     0
SMALL
USER_CHARGES

@<TRIPOS>ATOM
      1 C1          0.2402    1.5113    0.0416 C.3       1 <0>        -0.0720
      2 C2          0.1320    0.0083    0.0231 C.2       1 <0>         0.0348
      3 C3          0.0466   -0.7747   -1.0862 C.2       1 <0>         0.0001
      4 N1         -0.0348   -2.0748   -0.6414 N.pl3     1 <0>        -0.4420
      5 C4          0.0037   -2.0359    0.7081 C.2       1 <0>         0.2277
      6 N2          0.1088   -0.7928    1.0944 N.2       1 <0>        -0.4783
      7 C5         -0.0580   -3.2337    1.6205 C.3       1 <0>         0.0037
      8 C6          1.3404   -3.6514    1.9964 C.ar      1 <0>        -0.0840
      9 C7          1.9810   -4.6450    1.2800 C.ar      1 <0>        -0.1164
     10 C8          3.2637   -5.0281    1.6248 C.ar      1 <0>        -0.1202
     11 C9          3.9059   -4.4173    2.6856 C.ar      1 <0>        -0.1183
     12 C10         3.2655   -3.4230    3.4014 C.ar      1 <0>        -0.1182
     13 C11         1.9845   -3.0369    3.0539 C.ar      1 <0>        -0.0967
     14 C12        -0.1433   -3.2747   -1.4748 C.3       1 <0>         0.1062
     15 C13        -1.6113   -3.5169   -1.8316 C.3       1 <0>        -0.0928
     16 C14        -1.7373   -4.8155   -2.5859 C.ar      1 <0>        -0.0867
     17 C15        -1.6349   -4.8268   -3.9644 C.ar      1 <0>        -0.1121
     18 C16        -1.7505   -6.0179   -4.6563 C.ar      1 <0>        -0.1165
     19 C17        -1.9680   -7.1978   -3.9697 C.ar      1 <0>        -0.1185
     20 C18        -2.0694   -7.1866   -2.5911 C.ar      1 <0>        -0.1162
     21 C19        -1.9496   -5.9961   -1.8989 C.ar      1 <0>        -0.1142
     22 C20         0.0420   -0.3187   -2.4935 C.ar      1 <0>        -0.0078
     23 C21         0.9652   -0.8423   -3.4017 C.ar      1 <0>        -0.0955
     24 C22         0.9636   -0.4187   -4.7161 C.ar      1 <0>        -0.1153
     25 C23         0.0510    0.5246   -5.1432 C.ar      1 <0>        -0.0952
     26 C24        -0.8793    1.0583   -4.2450 C.ar      1 <0>        -0.0735
     27 C25        -0.8861    0.6289   -2.9164 C.ar      1 <0>        -0.0703
     28 C26        -1.8524    2.0648   -4.7007 C.2       1 <0>        -0.0034
     29 C27        -1.8478    2.4735   -5.9852 C.2       1 <0>        -0.2085
     30 C28        -2.8156    3.4746   -6.4384 C.2       1 <0>         0.5602
     31 O1         -3.6240    3.9376   -5.6555 O.2       1 <0>        -0.5233
     32 N3         -2.8111    3.8832   -7.7228 N.am      1 <0>        -0.5936
     33 O2         -3.7470    4.8512   -8.1611 O.3       1 <0>        -0.3155
     34 H1          1.2908    1.8004    0.0139 H         1 <0>         0.0691
     35 H2         -0.2731    1.9233   -0.8273 H         1 <0>         0.0691
     36 H3         -0.2190    1.8974    0.9517 H         1 <0>         0.0734
     37 H4         -0.6147   -2.9760    2.5214 H         1 <0>         0.1070
     38 H5         -0.5572   -4.0558    1.1075 H         1 <0>         0.0869
     39 H6          1.4793   -5.1222    0.4512 H         1 <0>         0.1164
     40 H7          3.7640   -5.8049    1.0656 H         1 <0>         0.1216
     41 H8          4.9077   -4.7171    2.9555 H         1 <0>         0.1218
     42 H9          3.7671   -2.9460    4.2305 H         1 <0>         0.1235
     43 H10         1.4856   -2.2576    3.6108 H         1 <0>         0.1274
     44 H11         0.4346   -3.1359   -2.3886 H         1 <0>         0.0934
     45 H12         0.2440   -4.1338   -0.9270 H         1 <0>         0.0960
     46 H13        -2.2035   -3.5685   -0.9179 H         1 <0>         0.0811
     47 H14        -1.9737   -2.6987   -2.4538 H         1 <0>         0.0815
     48 H15        -1.4650   -3.9050   -4.5008 H         1 <0>         0.1212
     49 H16        -1.6712   -6.0266   -5.7334 H         1 <0>         0.1234
     50 H17        -2.0590   -8.1283   -4.5103 H         1 <0>         0.1231
     51 H18        -2.2397   -8.1084   -2.0547 H         1 <0>         0.1241
     52 H19        -2.0251   -5.9879   -0.8215 H         1 <0>         0.1220
     53 H20         1.6826   -1.5805   -3.0748 H         1 <0>         0.1216
     54 H21         1.6803   -0.8272   -5.4132 H         1 <0>         0.1302
     55 H22         0.0553    0.8515   -6.1726 H         1 <0>         0.1303
     56 H23        -1.6048    1.0334   -2.2191 H         1 <0>         0.1341
     57 H24        -2.5698    2.4757   -4.0058 H         1 <0>         0.1407
     58 H25        -1.1304    2.0626   -6.6801 H         1 <0>         0.1350
     59 H26        -2.1667    3.5141   -8.3469 H         1 <0>         0.4094
     60 H27        -3.6664    5.0807   -9.0970 H         1 <0>         0.3890
@<TRIPOS>BOND
     1    1    2 1
     2    1   34 1
     3    1   35 1
     4    1   36 1
     5    2    6 1
     6    2    3 2
     7    3    4 1
     8    3   22 1
     9    4    5 1
    10    4   14 1
    11    5    6 2
    12    5    7 1
    13    7    8 1
    14    7   37 1
    15    7   38 1
    16    8   13 ar
    17    8    9 ar
    18    9   10 ar
    19    9   39 1
    20   10   11 ar
    21   10   40 1
    22   11   12 ar
    23   11   41 1
    24   12   13 ar
    25   12   42 1
    26   13   43 1
    27   14   15 1
    28   14   44 1
    29   14   45 1
    30   15   16 1
    31   15   46 1
    32   15   47 1
    33   16   21 ar
    34   16   17 ar
    35   17   18 ar
    36   17   48 1
    37   18   19 ar
    38   18   49 1
    39   19   20 ar
    40   19   50 1
    41   20   21 ar
    42   20   51 1
    43   21   52 1
    44   22   27 ar
    45   22   23 ar
    46   23   24 ar
    47   23   53 1
    48   24   25 ar
    49   24   54 1
    50   25   26 ar
    51   25   55 1
    52   26   27 ar
    53   26   28 1
    54   27   56 1
    55   28   29 2
    56   28   57 1
    57   29   30 1
    58   29   58 1
    59   30   31 2
    60   30   32 am
    61   32   33 1
    62   32   59 1
    63   33   60 1
@<TRIPOS>MOLECULE
CHEMBL99
   44    44     0     0     0
SMALL
USER_CHARGES

@<TRIPOS>ATOM
      1 C1          0.0163    0.8704   -0.6224 C.3       1 <0>        -0.1382
      2 C2          0.1984   -0.5975   -0.2312 C.3       1 <0>        -0.1146
      3 H1         -0.7690   -1.0995   -0.2438 H         1 <0>         0.1076
      4 C3          0.7887   -0.6789    1.1530 C.2       1 <0>        -0.0924
      5 C4          0.0754   -1.2000    2.1527 C.2       1 <0>        -0.1248
      6 C5         -1.3645   -1.5849    1.9302 C.3       1 <0>        -0.1253
      7 C6          0.6913   -1.3981    3.4654 C.2       1 <0>        -0.0018
      8 C7         -0.0314   -1.9261    4.4783 C.2       1 <0>        -0.2188
      9 C8          0.5841   -2.1240    5.7903 C.2       1 <0>         0.5599
     10 O1          1.7472   -1.8132    5.9699 O.2       1 <0>        -0.5263
     11 N1         -0.1365   -2.6506    6.8002 N.am      1 <0>        -0.5945
     12 O2          0.4595   -2.8422    8.0703 O.3       1 <0>        -0.3168
     13 C9          1.1251   -1.2677   -1.2126 C.2       1 <0>         0.4107
     14 O3          2.3095   -1.3556   -0.9656 O.2       1 <0>        -0.4581
     15 C10         0.5946   -1.8139   -2.4671 C.ar      1 <0>        -0.2376
     16 C11        -0.7721   -1.7083   -2.7570 C.ar      1 <0>        -0.0197
     17 C12        -1.2614   -2.2176   -3.9257 C.ar      1 <0>        -0.2150
     18 C13        -0.4039   -2.8414   -4.8291 C.ar      1 <0>         0.2501
     19 C14         0.9557   -2.9486   -4.5449 C.ar      1 <0>        -0.2148
     20 C15         1.4543   -2.4374   -3.3810 C.ar      1 <0>        -0.0053
     21 N2         -0.9059   -3.3584   -6.0164 N.pl3     1 <0>        -0.6264
     22 C16        -2.3354   -3.2472   -6.3172 C.3       1 <0>         0.0859
     23 C17        -0.0060   -4.0149   -6.9680 C.3       1 <0>         0.0853
     24 H2          0.9837    1.3725   -0.6098 H         1 <0>         0.0651
     25 H3         -0.4106    0.9293   -1.6236 H         1 <0>         0.0678
     26 H4         -0.6539    1.3552    0.0874 H         1 <0>         0.0712
     27 H5          1.7891   -0.3153    1.3357 H         1 <0>         0.1273
     28 H6         -1.4116   -2.5915    1.5147 H         1 <0>         0.0719
     29 H7         -1.8986   -1.5586    2.8801 H         1 <0>         0.0699
     30 H8         -1.8250   -0.8829    1.2350 H         1 <0>         0.0721
     31 H9          1.7232   -1.1223    3.6248 H         1 <0>         0.1353
     32 H10        -1.0634   -2.2019    4.3189 H         1 <0>         0.1355
     33 H11        -1.0633   -2.8983    6.6570 H         1 <0>         0.4090
     34 H12        -0.1350   -3.2249    8.7300 H         1 <0>         0.3880
     35 H13        -1.4377   -1.2251   -2.0571 H         1 <0>         0.1299
     36 H14        -2.3148   -2.1369   -4.1498 H         1 <0>         0.1291
     37 H15         1.6170   -3.4333   -5.2479 H         1 <0>         0.1289
     38 H16         2.5092   -2.5170   -3.1635 H         1 <0>         0.1322
     39 H17        -2.5223   -2.3180   -6.8554 H         1 <0>         0.0543
     40 H18        -2.6439   -4.0921   -6.9331 H         1 <0>         0.0711
     41 H19        -2.9036   -3.2490   -5.3871 H         1 <0>         0.0730
     42 H20         0.0495   -5.0794   -6.7405 H         1 <0>         0.0545
     43 H21        -0.3861   -3.8791   -7.9805 H         1 <0>         0.0713
     44 H22         0.9881   -3.5745   -6.8910 H         1 <0>         0.0733
@<TRIPOS>BOND
     1    1    2 1
     2    1   24 1
     3    1   25 1
     4    1   26 1
     5    2    3 1
     6    2    4 1
     7    2   13 1
     8    4    5 2
     9    4   27 1
    10    5    6 1
    11    5    7 1
    12    6   28 1
    13    6   29 1
    14    6   30 1
    15    7    8 2
    16    7   31 1
    17    8    9 1
    18    8   32 1
    19    9   10 2
    20    9   11 am
    21   11   12 1
    22   11   33 1
    23   12   34 1
    24   13   14 2
    25   13   15 1
    26   15   20 ar
    27   15   16 ar
    28   16   17 ar
    29   16   35 1
    30   17   18 ar
    31   17   36 1
    32   18   19 ar
    33   18   21 1
    34   19   20 ar
    35   19   37 1
    36   20   38 1
    37   21   22 1
    38   21   23 1
    39   22   39 1
    40   22   40 1
    41   22   41 1
    42   23   42 1
    43   23   43 1
    44   23   44 1
@<TRIPOS>MOLECULE
CHEMBL143255
   63    66     0     0     0
SMALL
USER_CHARGES

@<TRIPOS>ATOM
      1 C1          2.7273   -0.1785    1.3509 C.ar      1 <0>        -0.1327
      2 C2          4.0781    0.1270    1.2534 C.ar      1 <0>        -0.0935
      3 C3          4.9759   -0.8022    0.7759 C.ar      1 <0>        -0.1218
      4 C4          4.5271   -2.0604    0.3873 C.ar      1 <0>         0.0946
      5 C5          3.1576   -2.3652    0.4885 C.ar      1 <0>        -0.0997
      6 C6          2.2649   -1.4079    0.9748 C.ar      1 <0>        -0.0834
      7 C7          3.0128   -3.7420    0.0095 C.2       1 <0>        -0.2025
      8 C8          4.2380   -4.1683   -0.3355 C.2       1 <0>         0.0834
      9 N1          5.1556   -3.1771   -0.1167 N.pl3     1 <0>        -0.5880
     10 H1          6.1071   -3.2503   -0.2904 H         1 <0>         0.4229
     11 C9          1.7315   -4.5304   -0.0786 C.3       1 <0>        -0.0563
     12 C10         1.0267   -4.2122   -1.3988 C.3       1 <0>        -0.0107
     13 N2         -0.1536   -5.0746   -1.5440 N.4       1 <0>        -0.3824
     14 C11        -0.7493   -4.8699   -2.8711 C.3       1 <0>         0.0310
     15 C12        -1.8357   -5.8897   -3.0968 C.ar      1 <0>        -0.1321
     16 C13        -1.5159   -7.2351   -3.1534 C.ar      1 <0>        -0.1109
     17 C14        -2.5042   -8.1743   -3.3600 C.ar      1 <0>        -0.0840
     18 C15        -3.8324   -7.7642   -3.5121 C.ar      1 <0>        -0.0368
     19 C16        -4.1475   -6.4031   -3.4532 C.ar      1 <0>        -0.0979
     20 C17        -3.1487   -5.4765   -3.2408 C.ar      1 <0>        -0.0920
     21 C18        -4.8934   -8.7603   -3.7335 C.2       1 <0>        -0.0338
     22 C19        -6.1727   -8.3613   -3.8797 C.2       1 <0>        -0.1766
     23 C20        -7.2281   -9.3521   -4.0999 C.2       1 <0>         0.5543
     24 O1         -6.9504  -10.5358   -4.1510 O.2       1 <0>        -0.5163
     25 N3         -8.5072   -8.9531   -4.2461 N.am      1 <0>        -0.5903
     26 O2         -9.5278   -9.9113   -4.4591 O.3       1 <0>        -0.3111
     27 C21        -1.1381   -4.7358   -0.5078 C.3       1 <0>         0.0233
     28 C22        -2.1713   -5.8590   -0.3991 C.3       1 <0>        -0.1638
     29 C23        -3.1967   -5.5060    0.6802 C.3       1 <0>        -0.1146
     30 C24        -3.9007   -4.1998    0.3072 C.3       1 <0>        -0.1281
     31 C25        -2.8675   -3.0766    0.1986 C.3       1 <0>        -0.1162
     32 C26        -1.8421   -3.4296   -0.8808 C.3       1 <0>        -0.1432
     33 H2          2.0371    0.5600    1.7312 H         1 <0>         0.1265
     34 H3          4.4284    1.1032    1.5546 H         1 <0>         0.1312
     35 H4          6.0246   -0.5547    0.7032 H         1 <0>         0.1252
     36 H5          1.2128   -1.6386    1.0537 H         1 <0>         0.1172
     37 H6          4.4658   -5.1483   -0.7280 H         1 <0>         0.1726
     38 H7          1.9568   -5.5959   -0.0346 H         1 <0>         0.0894
     39 H8          1.0816   -4.2617    0.7541 H         1 <0>         0.0912
     40 H9          0.7160   -3.1675   -1.4023 H         1 <0>         0.1311
     41 H10         1.7112   -4.3905   -2.2282 H         1 <0>         0.1312
     42 H11        -1.1743   -3.8678   -2.9279 H         1 <0>         0.1422
     43 H12         0.0193   -4.9826   -3.6357 H         1 <0>         0.1395
     44 H13        -0.4896   -7.5502   -3.0357 H         1 <0>         0.1318
     45 H14        -2.2530   -9.2237   -3.4046 H         1 <0>         0.1427
     46 H15        -5.1710   -6.0788   -3.5702 H         1 <0>         0.1404
     47 H16        -3.3910   -4.4252   -3.1907 H         1 <0>         0.1370
     48 H17        -4.6469   -9.8108   -3.7789 H         1 <0>         0.1466
     49 H18        -6.4192   -7.3107   -3.8344 H         1 <0>         0.1365
     50 H19        -8.7286   -8.0096   -4.2054 H         1 <0>         0.4100
     51 H20       -10.4117   -9.5303   -4.5521 H         1 <0>         0.3930
     52 H21        -0.6310   -4.6147    0.4495 H         1 <0>         0.1372
     53 H22        -2.6784   -5.9800   -1.3563 H         1 <0>         0.1106
     54 H23        -1.6698   -6.7895   -0.1334 H         1 <0>         0.0805
     55 H24        -3.9328   -6.3062    0.7576 H         1 <0>         0.0804
     56 H25        -2.6896   -5.3849    1.6375 H         1 <0>         0.0707
     57 H26        -4.4078   -4.3209   -0.6500 H         1 <0>         0.0676
     58 H27        -4.6312   -3.9484    1.0761 H         1 <0>         0.0769
     59 H28        -3.3690   -2.1460   -0.0672 H         1 <0>         0.0829
     60 H29        -2.3604   -2.9555    1.1558 H         1 <0>         0.0740
     61 H30        -1.1060   -2.6294   -0.9582 H         1 <0>         0.0854
     62 H31        -2.3492   -3.5506   -1.8380 H         1 <0>         0.0883
     63 H32         0.1211   -6.0404   -1.4440 H         1 <0>         0.4195
@<TRIPOS>BOND
     1    1    6 ar
     2    1    2 ar
     3    1   33 1
     4    2    3 ar
     5    2   34 1
     6    3    4 ar
     7    3   35 1
     8    4    9 1
     9    4    5 ar
    10    5    6 ar
    11    5    7 1
    12    6   36 1
    13    7    8 2
    14    7   11 1
    15    8    9 1
    16    8   37 1
    17    9   10 1
    18   11   12 1
    19   11   38 1
    20   11   39 1
    21   12   13 1
    22   12   40 1
    23   12   41 1
    24   13   14 1
    25   13   27 1
    26   13   63 1
    27   14   15 1
    28   14   42 1
    29   14   43 1
    30   15   20 ar
    31   15   16 ar
    32   16   17 ar
    33   16   44 1
    34   17   18 ar
    35   17   45 1
    36   18   19 ar
    37   18   21 1
    38   19   20 ar
    39   19   46 1
    40   20   47 1
    41   21   22 2
    42   21   48 1
    43   22   23 1
    44   22   49 1
    45   23   24 2
    46   23   25 am
    47   25   26 1
    48   25   50 1
    49   26   51 1
    50   27   32 1
    51   27   28 1
    52   27   52 1
    53   28   29 1
    54   28   53 1
    55   28   54 1
    56   29   30 1
    57   29   55 1
    58   29   56 1
    59   30   31 1
    60   30   57 1
    61   30   58 1
    62   31   32 1
    63   31   59 1
    64   31   60 1
    65   32   61 1
    66   32   62 1
@<TRIPOS>MOLECULE
CHEMBL1095075
   53    56     0     0     0
SMALL
USER_CHARGES

@<TRIPOS>ATOM
      1 C1          0.1752    1.4311    0.6809 C.ar      1 <0>        -0.1263
      2 C2          1.3628    2.1124    0.4538 C.ar      1 <0>        -0.0967
      3 C3          2.5118    1.4245    0.1254 C.ar      1 <0>        -0.1114
      4 C4          2.4792    0.0407    0.0215 C.ar      1 <0>         0.0548
      5 C5          1.2760   -0.6498    0.2516 C.ar      1 <0>         0.0486
      6 C6          0.1233    0.0697    0.5834 C.ar      1 <0>        -0.0613
      7 N1          1.5338   -1.9697    0.0839 N.2       1 <0>        -0.4733
      8 C7          2.7953   -2.1356   -0.2291 C.2       1 <0>         0.3174
      9 N2          3.4236   -0.9207   -0.2803 N.pl3     1 <0>        -0.4821
     10 C8          4.8344   -0.6843   -0.5967 C.3       1 <0>         0.1030
     11 C9          5.6379   -0.5812    0.7012 C.3       1 <0>         0.0340
     12 N3          7.0524   -0.3441    0.3839 N.3       1 <0>        -0.5318
     13 C10         7.6426   -1.5078   -0.2935 C.3       1 <0>         0.0058
     14 C11         9.0965   -1.1960   -0.6583 C.3       1 <0>         0.0638
     15 O1          9.8136   -0.8377    0.5261 O.3       1 <0>        -0.3827
     16 C12         9.2663    0.2923    1.2108 C.3       1 <0>         0.0634
     17 C13         7.8142   -0.0044    1.5946 C.3       1 <0>         0.0182
     18 C14         3.4433   -3.4401   -0.4877 C.ar      1 <0>        -0.0257
     19 C15         4.8273   -3.5727   -0.3533 C.ar      1 <0>        -0.1112
     20 C16         5.4353   -4.7892   -0.5941 C.ar      1 <0>        -0.1164
     21 C17         4.6816   -5.8827   -0.9696 C.ar      1 <0>        -0.0834
     22 C18         3.2945   -5.7649   -1.1083 C.ar      1 <0>        -0.0742
     23 C19         2.6741   -4.5390   -0.8600 C.ar      1 <0>        -0.0420
     24 C20         2.4907   -6.9316   -1.5088 C.2       1 <0>        -0.0040
     25 C21         3.0912   -8.1156   -1.7425 C.2       1 <0>        -0.2058
     26 C22         2.2917   -9.2759   -2.1409 C.2       1 <0>         0.5600
     27 O2          1.0852   -9.1714   -2.2609 O.2       1 <0>        -0.5218
     28 N4          2.8921  -10.4598   -2.3746 N.am      1 <0>        -0.5934
     29 O3          2.1190  -11.5818   -2.7598 O.3       1 <0>        -0.3152
     30 H1         -0.7160    1.9826    0.9418 H         1 <0>         0.1315
     31 H2          1.3870    3.1891    0.5346 H         1 <0>         0.1318
     32 H3          3.4330    1.9601   -0.0505 H         1 <0>         0.1233
     33 H4         -0.8064   -0.4503    0.7618 H         1 <0>         0.1312
     34 H5          5.2160   -1.5113   -1.1956 H         1 <0>         0.1017
     35 H6          4.9300    0.2452   -1.1581 H         1 <0>         0.1038
     36 H7          5.2563    0.2458    1.3000 H         1 <0>         0.0894
     37 H8          5.5422   -1.5106    1.2625 H         1 <0>         0.0479
     38 H9          7.6113   -2.3707    0.3717 H         1 <0>         0.0492
     39 H10         7.0785   -1.7258   -1.2003 H         1 <0>         0.0877
     40 H11         9.5552   -2.0758   -1.1094 H         1 <0>         0.1016
     41 H12         9.1245   -0.3670   -1.3655 H         1 <0>         0.0628
     42 H13         9.8479    0.4888    2.1115 H         1 <0>         0.1019
     43 H14         9.2993    1.1645    0.5580 H         1 <0>         0.0627
     44 H15         7.3753    0.8750    2.0659 H         1 <0>         0.0901
     45 H16         7.7856   -0.8433    2.2899 H         1 <0>         0.0474
     46 H17         5.4238   -2.7213   -0.0605 H         1 <0>         0.1333
     47 H18         6.5058   -4.8851   -0.4884 H         1 <0>         0.1345
     48 H19         5.1635   -6.8309   -1.1570 H         1 <0>         0.1350
     49 H20         1.6031   -4.4426   -0.9606 H         1 <0>         0.1456
     50 H21         1.4200   -6.8388   -1.6153 H         1 <0>         0.1434
     51 H22         4.1619   -8.2084   -1.6360 H         1 <0>         0.1355
     52 H23         3.8538  -10.5431   -2.2789 H         1 <0>         0.4095
     53 H24         2.6371  -12.3853   -2.9049 H         1 <0>         0.3891
@<TRIPOS>BOND
     1    1    6 ar
     2    1    2 ar
     3    1   30 1
     4    2    3 ar
     5    2   31 1
     6    3    4 ar
     7    3   32 1
     8    4    9 1
     9    4    5 ar
    10    5    6 ar
    11    5    7 1
    12    6   33 1
    13    7    8 2
    14    8    9 1
    15    8   18 1
    16    9   10 1
    17   10   11 1
    18   10   34 1
    19   10   35 1
    20   11   12 1
    21   11   36 1
    22   11   37 1
    23   12   17 1
    24   12   13 1
    25   13   14 1
    26   13   38 1
    27   13   39 1
    28   14   15 1
    29   14   40 1
    30   14   41 1
    31   15   16 1
    32   16   17 1
    33   16   42 1
    34   16   43 1
    35   17   44 1
    36   17   45 1
    37   18   23 ar
    38   18   19 ar
    39   19   20 ar
    40   19   46 1
    41   20   21 ar
    42   20   47 1
    43   21   22 ar
    44   21   48 1
    45   22   23 ar
    46   22   24 1
    47   23   49 1
    48   24   25 2
    49   24   50 1
    50   25   26 1
    51   25   51 1
    52   26   27 2
    53   26   28 am
    54   28   29 1
    55   28   52 1
    56   29   53 1
@<TRIPOS>MOLECULE
CHEMBL1095075__1
   54    57     0     0     0
SMALL
USER_CHARGES

@<TRIPOS>ATOM
      1 C1          0.1767    1.4319    0.6824 C.ar      1 <0>        -0.1195
      2 C2          1.3642    2.1129    0.4539 C.ar      1 <0>        -0.0820
      3 C3          2.5127    1.4245    0.1245 C.ar      1 <0>        -0.1236
      4 C4          2.4796    0.0406    0.0210 C.ar      1 <0>         0.0490
      5 C5          1.2764   -0.6495    0.2525 C.ar      1 <0>         0.0528
      6 C6          0.1242    0.0705    0.5853 C.ar      1 <0>        -0.0517
      7 N1          1.5336   -1.9694    0.0849 N.2       1 <0>        -0.4538
      8 C7          2.7948   -2.1358   -0.2293 C.2       1 <0>         0.3198
      9 N2          3.4234   -0.9211   -0.2815 N.pl3     1 <0>        -0.4919
     10 C8          4.8339   -0.6852   -0.5994 C.3       1 <0>         0.0836
     11 C9          5.6387   -0.5814    0.6977 C.3       1 <0>        -0.0390
     12 N3          7.0530   -0.3449    0.3789 N.4       1 <0>        -0.3814
     13 C10         7.5991   -1.5142   -0.3237 C.3       1 <0>        -0.0604
     14 C11         9.0727   -1.2652   -0.6549 C.3       1 <0>         0.0391
     15 O1          9.7888   -0.9968    0.5538 O.3       1 <0>        -0.3535
     16 C12         9.2787    0.1203    1.2871 C.3       1 <0>         0.0367
     17 C13         7.8055   -0.1262    1.6219 C.3       1 <0>        -0.0439
     18 C14         3.4421   -3.4406   -0.4883 C.ar      1 <0>        -0.0259
     19 C15         4.8260   -3.5740   -0.3538 C.ar      1 <0>        -0.1273
     20 C16         5.4335   -4.7906   -0.5949 C.ar      1 <0>        -0.1140
     21 C17         4.6792   -5.8837   -0.9707 C.ar      1 <0>        -0.0829
     22 C18         3.2922   -5.7652   -1.1094 C.ar      1 <0>        -0.0535
     23 C19         2.6724   -4.5390   -0.8609 C.ar      1 <0>        -0.0411
     24 C20         2.4878   -6.9313   -1.5103 C.2       1 <0>        -0.0233
     25 C21         3.0876   -8.1156   -1.7443 C.2       1 <0>        -0.1856
     26 C22         2.2876   -9.2754   -2.1429 C.2       1 <0>         0.5557
     27 O2          1.0812   -9.1702   -2.2630 O.2       1 <0>        -0.5168
     28 N4          2.8874  -10.4595   -2.3769 N.am      1 <0>        -0.5914
     29 O3          2.1138  -11.5811   -2.7624 O.3       1 <0>        -0.3120
     30 H1         -0.7140    1.9838    0.9440 H         1 <0>         0.1391
     31 H2          1.3889    3.1896    0.5343 H         1 <0>         0.1377
     32 H3          3.4339    1.9597   -0.0525 H         1 <0>         0.1201
     33 H4         -0.8054   -0.4491    0.7648 H         1 <0>         0.1386
     34 H5          5.2148   -1.5127   -1.1981 H         1 <0>         0.1208
     35 H6          4.9292    0.2439   -1.1614 H         1 <0>         0.1150
     36 H7          5.2578    0.2460    1.2963 H         1 <0>         0.1459
     37 H8          5.5433   -1.5105    1.2597 H         1 <0>         0.1414
     38 H9          7.5134   -2.3942    0.3138 H         1 <0>         0.1441
     39 H10         7.0416   -1.6773   -1.2460 H         1 <0>         0.1430
     40 H11         9.4915   -2.1481   -1.1377 H         1 <0>         0.1454
     41 H12         9.1556   -0.4093   -1.3248 H         1 <0>         0.0844
     42 H13         9.8466    0.2401    2.2097 H         1 <0>         0.1452
     43 H14         9.3686    1.0236    0.6836 H         1 <0>         0.0837
     44 H15         7.4012    0.7412    2.1439 H         1 <0>         0.1460
     45 H16         7.7197   -1.0067    2.2586 H         1 <0>         0.1417
     46 H17         5.4229   -2.7229   -0.0608 H         1 <0>         0.1105
     47 H18         6.5039   -4.8871   -0.4891 H         1 <0>         0.1354
     48 H19         5.1606   -6.8321   -1.1584 H         1 <0>         0.1397
     49 H20         1.6015   -4.4420   -0.9615 H         1 <0>         0.1493
     50 H21         1.4171   -6.8379   -1.6168 H         1 <0>         0.1469
     51 H22         4.1583   -8.2090   -1.6377 H         1 <0>         0.1362
     52 H23         3.8490  -10.5434   -2.2812 H         1 <0>         0.4095
     53 H24         2.6315  -12.3848   -2.9077 H         1 <0>         0.3918
     54 H25         7.1333    0.4699   -0.2108 H         1 <0>         0.4261
@<TRIPOS>BOND
     1    1    6 ar
     2    1    2 ar
     3    1   30 1
     4    2    3 ar
     5    2   31 1
     6    3    4 ar
     7    3   32 1
     8    4    9 1
     9    4    5 ar
    10    5    6 ar
    11    5    7 1
    12    6   33 1
    13    7    8 2
    14    8    9 1
    15    8   18 1
    16    9   10 1
    17   10   11 1
    18   10   34 1
    19   10   35 1
    20   11   12 1
    21   11   36 1
    22   11   37 1
    23   12   17 1
    24   12   13 1
    25   12   54 1
    26   13   14 1
    27   13   38 1
    28   13   39 1
    29   14   15 1
    30   14   40 1
    31   14   41 1
    32   15   16 1
    33   16   17 1
    34   16   42 1
    35   16   43 1
    36   17   44 1
    37   17   45 1
    38   18   23 ar
    39   18   19 ar
    40   19   20 ar
    41   19   46 1
    42   20   21 ar
    43   20   47 1
    44   21   22 ar
    45   21   48 1
    46   22   23 ar
    47   22   24 1
    48   23   49 1
    49   24   25 2
    50   24   50 1
    51   25   26 1
    52   25   51 1
    53   26   27 2
    54   26   28 am
    55   28   29 1
    56   28   52 1
    57   29   53 1
@<TRIPOS>MOLECULE
CHEMBL1095076
   53    56     0     0     0
SMALL
USER_CHARGES

@<TRIPOS>ATOM
      1 C1          0.1302    1.4361    0.5046 C.ar      1 <0>        -0.1244
      2 C2          1.3197    2.1195    0.2946 C.ar      1 <0>        -0.0901
      3 C3          2.4855    1.4304    0.0352 C.ar      1 <0>        -0.1239
      4 C4          2.4680    0.0434   -0.0161 C.ar      1 <0>         0.0506
      5 C5          1.2628   -0.6492    0.1966 C.ar      1 <0>         0.0507
      6 C6          0.0929    0.0716    0.4580 C.ar      1 <0>        -0.0546
      7 N1          1.5372   -1.9719    0.0896 N.2       1 <0>        -0.4676
      8 C7          2.8107   -2.1378   -0.1706 C.2       1 <0>         0.3218
      9 N2          3.4306   -0.9198   -0.2459 N.pl3     1 <0>        -0.4890
     10 C8          4.8501   -0.6824   -0.5197 C.3       1 <0>         0.1063
     11 C9          5.6176   -0.6009    0.8013 C.3       1 <0>        -0.1291
     12 C10         5.1550    0.6292    1.5874 C.3       1 <0>        -0.1489
     13 C11         5.9817    0.7490    2.8695 C.3       1 <0>        -0.0052
     14 N3          7.4023    0.8903    2.5285 N.4       1 <0>        -0.5056
     15 C12         7.8711   -0.3168    1.8374 C.3       1 <0>        -0.0054
     16 C13         7.1171   -0.4777    0.5156 C.3       1 <0>        -0.1441
     17 C14         3.4782   -3.4451   -0.3548 C.ar      1 <0>        -0.0295
     18 C15         4.8628   -3.5512   -0.2031 C.ar      1 <0>        -0.1179
     19 C16         5.4891   -4.7701   -0.3744 C.ar      1 <0>        -0.1166
     20 C17         4.7533   -5.8924   -0.6969 C.ar      1 <0>        -0.0842
     21 C18         3.3659   -5.8014   -0.8520 C.ar      1 <0>        -0.0632
     22 C19         2.7270   -4.5727   -0.6739 C.ar      1 <0>        -0.0427
     23 C20         2.5812   -6.9987   -1.1960 C.2       1 <0>        -0.0168
     24 C21         3.1994   -8.1849   -1.3620 C.2       1 <0>        -0.1931
     25 C22         2.4189   -9.3758   -1.7041 C.2       1 <0>         0.5569
     26 O1          1.2121   -9.2944   -1.8385 O.2       1 <0>        -0.5186
     27 N4          3.0370  -10.5619   -1.8701 N.am      1 <0>        -0.5921
     28 O2          2.2823  -11.7134   -2.2009 O.3       1 <0>        -0.3129
     29 H1         -0.7744    1.9888    0.7112 H         1 <0>         0.1352
     30 H2          1.3323    3.1987    0.3344 H         1 <0>         0.1334
     31 H3          3.4082    1.9676   -0.1277 H         1 <0>         0.1181
     32 H4         -0.8384   -0.4499    0.6225 H         1 <0>         0.1348
     33 H5          5.2463   -1.5012   -1.1202 H         1 <0>         0.1117
     34 H6          4.9632    0.2552   -1.0641 H         1 <0>         0.0992
     35 H7          5.4310   -1.5008    1.3873 H         1 <0>         0.1024
     36 H8          5.2943    1.5232    0.9795 H         1 <0>         0.0933
     37 H9          4.1007    0.5226    1.8428 H         1 <0>         0.1167
     38 H10         5.6547    1.6238    3.4316 H         1 <0>         0.1370
     39 H11         5.8414   -0.1453    3.4766 H         1 <0>         0.1312
     40 H12         7.5246    1.6905    1.9260 H         1 <0>         0.4285
     41 H13         8.9390   -0.2289    1.6376 H         1 <0>         0.1384
     42 H14         7.6906   -1.1884    2.4665 H         1 <0>         0.1322
     43 H15         7.4653   -1.3754    0.0048 H         1 <0>         0.1180
     44 H16         7.2972    0.3933   -0.1145 H         1 <0>         0.0966
     45 H17         5.4453   -2.6773    0.0485 H         1 <0>         0.1303
     46 H18         6.5599   -4.8454   -0.2558 H         1 <0>         0.1341
     47 H19         5.2494   -6.8424   -0.8302 H         1 <0>         0.1365
     48 H20         1.6557   -4.4967   -0.7874 H         1 <0>         0.1465
     49 H21         1.5102   -6.9265   -1.3153 H         1 <0>         0.1452
     50 H22         4.2703   -8.2571   -1.2427 H         1 <0>         0.1356
     51 H23         3.9989  -10.6267   -1.7629 H         1 <0>         0.4094
     52 H24         2.8124  -12.5162   -2.2993 H         1 <0>         0.3911
     53 H25         7.9383    1.0227    3.3730 H         1 <0>         0.4340
@<TRIPOS>BOND
     1    1    6 ar
     2    1    2 ar
     3    1   29 1
     4    2    3 ar
     5    2   30 1
     6    3    4 ar
     7    3   31 1
     8    4    9 1
     9    4    5 ar
    10    5    6 ar
    11    5    7 1
    12    6   32 1
    13    7    8 2
    14    8    9 1
    15    8   17 1
    16    9   10 1
    17   10   11 1
    18   10   33 1
    19   10   34 1
    20   11   16 1
    21   11   12 1
    22   11   35 1
    23   12   13 1
    24   12   36 1
    25   12   37 1
    26   13   14 1
    27   13   38 1
    28   13   39 1
    29   14   15 1
    30   14   40 1
    31   14   53 1
    32   15   16 1
    33   15   41 1
    34   15   42 1
    35   16   43 1
    36   16   44 1
    37   17   22 ar
    38   17   18 ar
    39   18   19 ar
    40   18   45 1
    41   19   20 ar
    42   19   46 1
    43   20   21 ar
    44   20   47 1
    45   21   22 ar
    46   21   23 1
    47   22   48 1
    48   23   24 2
    49   23   49 1
    50   24   25 1
    51   24   50 1
    52   25   26 2
    53   25   27 am
    54   27   28 1
    55   27   51 1
    56   28   52 1
@<TRIPOS>MOLECULE
CHEMBL1099057
   56    59     0     0     0
SMALL
USER_CHARGES

@<TRIPOS>ATOM
      1 C1          0.1768    1.4317    0.6834 C.ar      1 <0>        -0.1198
      2 C2          1.3639    2.1128    0.4536 C.ar      1 <0>        -0.0825
      3 C3          2.5122    1.4246    0.1234 C.ar      1 <0>        -0.1232
      4 C4          2.4794    0.0407    0.0204 C.ar      1 <0>         0.0495
      5 C5          1.2766   -0.6496    0.2533 C.ar      1 <0>         0.0525
      6 C6          0.1245    0.0703    0.5869 C.ar      1 <0>        -0.0522
      7 N1          1.5340   -1.9695    0.0859 N.2       1 <0>        -0.4547
      8 C7          2.7948   -2.1357   -0.2294 C.2       1 <0>         0.3196
      9 N2          3.4231   -0.9209   -0.2827 N.pl3     1 <0>        -0.4915
     10 C8          4.8333   -0.6848   -0.6020 C.3       1 <0>         0.0832
     11 C9          5.6392   -0.5803    0.6943 C.3       1 <0>        -0.0392
     12 N3          7.0532   -0.3435    0.3741 N.4       1 <0>        -0.3786
     13 C10         7.5941   -1.5084   -0.3365 C.3       1 <0>        -0.0232
     14 C11         9.0434   -1.2345   -0.7437 C.3       1 <0>        -0.1433
     15 C12         9.8788   -0.9671    0.5116 C.3       1 <0>        -0.1401
     16 C13         9.2619    0.2027    1.2837 C.3       1 <0>        -0.1456
     17 C14         7.8045   -0.1245    1.6159 C.3       1 <0>        -0.0071
     18 C15         3.4422   -3.4405   -0.4885 C.ar      1 <0>        -0.0258
     19 C16         4.8262   -3.5738   -0.3541 C.ar      1 <0>        -0.1265
     20 C17         5.4336   -4.7904   -0.5953 C.ar      1 <0>        -0.1141
     21 C18         4.6794   -5.8835   -0.9712 C.ar      1 <0>        -0.0832
     22 C19         3.2924   -5.7650   -1.1098 C.ar      1 <0>        -0.0544
     23 C20         2.6725   -4.5389   -0.8611 C.ar      1 <0>        -0.0411
     24 C21         2.4881   -6.9312   -1.5107 C.2       1 <0>        -0.0225
     25 C22         3.0880   -8.1154   -1.7448 C.2       1 <0>        -0.1864
     26 C23         2.2880   -9.2753   -2.1435 C.2       1 <0>         0.5558
     27 O1          1.0815   -9.1701   -2.2635 O.2       1 <0>        -0.5169
     28 N4          2.8878  -10.4593   -2.3776 N.am      1 <0>        -0.5915
     29 O2          2.1142  -11.5809   -2.7631 O.3       1 <0>        -0.3121
     30 H1         -0.7138    1.9834    0.9457 H         1 <0>         0.1388
     31 H2          1.3884    3.1896    0.5335 H         1 <0>         0.1375
     32 H3          3.4331    1.9600   -0.0547 H         1 <0>         0.1203
     33 H4         -0.8048   -0.4496    0.7675 H         1 <0>         0.1382
     34 H5          5.2138   -1.5124   -1.2007 H         1 <0>         0.1209
     35 H6          4.9278    0.2440   -1.1645 H         1 <0>         0.1144
     36 H7          5.2587    0.2473    1.2930 H         1 <0>         0.1438
     37 H8          5.5447   -1.5091    1.2568 H         1 <0>         0.1396
     38 H9          7.5594   -2.3803    0.3168 H         1 <0>         0.1332
     39 H10         6.9966   -1.6994   -1.2279 H         1 <0>         0.1302
     40 H11         9.4438   -2.1012   -1.2696 H         1 <0>         0.1155
     41 H12         9.0793   -0.3629   -1.3973 H         1 <0>         0.0902
     42 H13         9.8852   -1.8566    1.1415 H         1 <0>         0.0831
     43 H14        10.8996   -0.7157    0.2234 H         1 <0>         0.0968
     44 H15         9.8185    0.3632    2.2071 H         1 <0>         0.1150
     45 H16         9.3024    1.1041    0.6723 H         1 <0>         0.0894
     46 H17         7.3623    0.7062    2.1659 H         1 <0>         0.1327
     47 H18         7.7653   -1.0259    2.2275 H         1 <0>         0.1307
     48 H19         5.4230   -2.7227   -0.0611 H         1 <0>         0.1122
     49 H20         6.5041   -4.8869   -0.4896 H         1 <0>         0.1348
     50 H21         5.1609   -6.8318   -1.1589 H         1 <0>         0.1392
     51 H22         1.6016   -4.4420   -0.9616 H         1 <0>         0.1492
     52 H23         1.4174   -6.8379   -1.6172 H         1 <0>         0.1468
     53 H24         4.1586   -8.2087   -1.6383 H         1 <0>         0.1360
     54 H25         3.8494  -10.5431   -2.2819 H         1 <0>         0.4094
     55 H26         2.6320  -12.3846   -2.9085 H         1 <0>         0.3917
     56 H27         7.1317    0.4728   -0.2137 H         1 <0>         0.4252
@<TRIPOS>BOND
     1    1    6 ar
     2    1    2 ar
     3    1   30 1
     4    2    3 ar
     5    2   31 1
     6    3    4 ar
     7    3   32 1
     8    4    9 1
     9    4    5 ar
    10    5    6 ar
    11    5    7 1
    12    6   33 1
    13    7    8 2
    14    8    9 1
    15    8   18 1
    16    9   10 1
    17   10   11 1
    18   10   34 1
    19   10   35 1
    20   11   12 1
    21   11   36 1
    22   11   37 1
    23   12   17 1
    24   12   13 1
    25   12   56 1
    26   13   14 1
    27   13   38 1
    28   13   39 1
    29   14   15 1
    30   14   40 1
    31   14   41 1
    32   15   16 1
    33   15   42 1
    34   15   43 1
    35   16   17 1
    36   16   44 1
    37   16   45 1
    38   17   46 1
    39   17   47 1
    40   18   23 ar
    41   18   19 ar
    42   19   20 ar
    43   19   48 1
    44   20   21 ar
    45   20   49 1
    46   21   22 ar
    47   21   50 1
    48   22   23 ar
    49   22   24 1
    50   23   51 1
    51   24   25 2
    52   24   52 1
    53   25   26 1
    54   25   53 1
    55   26   27 2
    56   26   28 am
    57   28   29 1
    58   28   54 1
    59   29   55 1
@<TRIPOS>MOLECULE
CHEMBL1099058
   53    56     0     0     0
SMALL
USER_CHARGES

@<TRIPOS>ATOM
      1 C1          0.1698    1.4288    0.6728 C.ar      1 <0>        -0.1200
      2 C2          1.3581    2.1112    0.4532 C.ar      1 <0>        -0.0829
      3 C3          2.5093    1.4244    0.1302 C.ar      1 <0>        -0.1233
      4 C4          2.4782    0.0407    0.0242 C.ar      1 <0>         0.0493
      5 C5          1.2742   -0.6509    0.2467 C.ar      1 <0>         0.0528
      6 C6          0.1192    0.0675    0.5731 C.ar      1 <0>        -0.0520
      7 N1          1.5337   -1.9703    0.0786 N.2       1 <0>        -0.4555
      8 C7          2.7971   -2.1350   -0.2277 C.2       1 <0>         0.3210
      9 N2          3.4249   -0.9196   -0.2738 N.pl3     1 <0>        -0.4918
     10 C8          4.8372   -0.6819   -0.5821 C.3       1 <0>         0.0842
     11 C9          5.6339   -0.5827    0.7203 C.3       1 <0>        -0.0344
     12 N3          7.0501   -0.3443    0.4111 N.4       1 <0>        -0.3920
     13 C10         7.2273    1.0140   -0.1632 C.3       1 <0>        -0.0128
     14 C11         8.7244    1.3164    0.0973 C.3       1 <0>        -0.1438
     15 C12         8.9679    0.6848    1.4871 C.3       1 <0>        -0.1444
     16 C13         7.8536   -0.3651    1.6526 C.3       1 <0>        -0.0086
     17 C14         3.4472   -3.4387   -0.4846 C.ar      1 <0>        -0.0274
     18 C15         4.8315   -3.5688   -0.3500 C.ar      1 <0>        -0.1222
     19 C16         5.4416   -4.7845   -0.5892 C.ar      1 <0>        -0.1134
     20 C17         4.6898   -5.8799   -0.9631 C.ar      1 <0>        -0.0834
     21 C18         3.3025   -5.7647   -1.1019 C.ar      1 <0>        -0.0554
     22 C19         2.6800   -4.5395   -0.8553 C.ar      1 <0>        -0.0413
     23 C20         2.5006   -6.9333   -1.5008 C.2       1 <0>        -0.0220
     24 C21         3.1031   -8.1166   -1.7329 C.2       1 <0>        -0.1871
     25 C22         2.3056   -9.2788   -2.1296 C.2       1 <0>         0.5560
     26 O1          1.0990   -9.1765   -2.2498 O.2       1 <0>        -0.5170
     27 N4          2.9080  -10.4619   -2.3617 N.am      1 <0>        -0.5916
     28 O2          2.1369  -11.5859   -2.7453 O.3       1 <0>        -0.3122
     29 H1         -0.7232    1.9794    0.9295 H         1 <0>         0.1388
     30 H2          1.3813    3.1878    0.5355 H         1 <0>         0.1373
     31 H3          3.4312    1.9608   -0.0400 H         1 <0>         0.1193
     32 H4         -0.8110   -0.4533    0.7457 H         1 <0>         0.1382
     33 H5          5.2221   -1.5069   -1.1815 H         1 <0>         0.1219
     34 H6          4.9355    0.2493   -1.1400 H         1 <0>         0.1128
     35 H7          5.2490    0.2424    1.3197 H         1 <0>         0.1416
     36 H8          5.5356   -1.5139    1.2782 H         1 <0>         0.1397
     37 H9          7.0160    1.0101   -1.2325 H         1 <0>         0.1375
     38 H10         6.5937    1.7355    0.3526 H         1 <0>         0.1362
     39 H11         9.3509    0.8412   -0.6575 H         1 <0>         0.1004
     40 H12         8.9014    2.3916    0.1258 H         1 <0>         0.1192
     41 H13         9.9466    0.2060    1.5188 H         1 <0>         0.1078
     42 H14         8.8916    1.4434    2.2661 H         1 <0>         0.1056
     43 H15         7.2256   -0.1088    2.5058 H         1 <0>         0.1323
     44 H16         8.2922   -1.3529    1.7945 H         1 <0>         0.1358
     45 H17         5.4265   -2.7160   -0.0584 H         1 <0>         0.1119
     46 H18         6.5123   -4.8785   -0.4834 H         1 <0>         0.1355
     47 H19         5.1733   -6.8275   -1.1493 H         1 <0>         0.1390
     48 H20         1.6088   -4.4451   -0.9560 H         1 <0>         0.1489
     49 H21         1.4298   -6.8425   -1.6074 H         1 <0>         0.1467
     50 H22         4.1740   -8.2074   -1.6263 H         1 <0>         0.1361
     51 H23         3.8698  -10.5435   -2.2659 H         1 <0>         0.4095
     52 H24         2.6563  -12.3887   -2.8894 H         1 <0>         0.3917
     53 H25         7.3881   -1.0427   -0.2339 H         1 <0>         0.4275
@<TRIPOS>BOND
     1    1    6 ar
     2    1    2 ar
     3    1   29 1
     4    2    3 ar
     5    2   30 1
     6    3    4 ar
     7    3   31 1
     8    4    9 1
     9    4    5 ar
    10    5    6 ar
    11    5    7 1
    12    6   32 1
    13    7    8 2
    14    8    9 1
    15    8   17 1
    16    9   10 1
    17   10   11 1
    18   10   33 1
    19   10   34 1
    20   11   12 1
    21   11   35 1
    22   11   36 1
    23   12   16 1
    24   12   13 1
    25   12   53 1
    26   13   14 1
    27   13   37 1
    28   13   38 1
    29   14   15 1
    30   14   39 1
    31   14   40 1
    32   15   16 1
    33   15   41 1
    34   15   42 1
    35   16   43 1
    36   16   44 1
    37   17   22 ar
    38   17   18 ar
    39   18   19 ar
    40   18   45 1
    41   19   20 ar
    42   19   46 1
    43   20   21 ar
    44   20   47 1
    45   21   22 ar
    46   21   23 1
    47   22   48 1
    48   23   24 2
    49   23   49 1
    50   24   25 1
    51   24   50 1
    52   25   26 2
    53   25   27 am
    54   27   28 1
    55   27   51 1
    56   28   52 1
@<TRIPOS>MOLECULE
CHEMBL1094085
   44    47     0     0     0
SMALL
USER_CHARGES

@<TRIPOS>ATOM
      1 C1         -0.0628    1.2922    0.0666 C.ar      1 <0>        -0.1056
      2 C2          1.1004    2.0143   -0.1276 C.ar      1 <0>        -0.1040
      3 C3          2.3200    1.3668   -0.1579 C.ar      1 <0>        -0.1048
      4 C4          2.3773   -0.0108    0.0069 C.ar      1 <0>         0.1148
      5 C5          1.2075   -0.7331    0.2018 C.ar      1 <0>        -0.1107
      6 C6         -0.0090   -0.0798    0.2311 C.ar      1 <0>        -0.1049
      7 N1          3.6124   -0.6703   -0.0238 N.pl3     1 <0>        -0.4436
      8 C7          4.0549   -1.5394   -1.0039 C.ar      1 <0>         0.0571
      9 C8          3.5040   -2.0241   -2.1819 C.ar      1 <0>        -0.1082
     10 C9          4.2233   -2.9060   -2.9608 C.ar      1 <0>        -0.0967
     11 C10         5.4932   -3.3114   -2.5746 C.ar      1 <0>        -0.1243
     12 C11         6.0522   -2.8454   -1.4188 C.ar      1 <0>        -0.0616
     13 C12         5.3417   -1.9501   -0.6124 C.ar      1 <0>         0.0510
     14 N2          5.6213   -1.3297    0.5597 N.2       1 <0>        -0.4708
     15 C13         4.6117   -0.5708    0.9093 C.2       1 <0>         0.3280
     16 C14         4.5569    0.2638    2.1291 C.ar      1 <0>        -0.0322
     17 C15         3.3261    0.7096    2.6172 C.ar      1 <0>        -0.0875
     18 C16         3.2715    1.4887    3.7562 C.ar      1 <0>        -0.1183
     19 C17         4.4309    1.8332    4.4212 C.ar      1 <0>        -0.0814
     20 C18         5.6706    1.3941    3.9441 C.ar      1 <0>        -0.0798
     21 C19         5.7312    0.6019    2.7961 C.ar      1 <0>        -0.0408
     22 C20         6.9072    1.7618    4.6537 C.2       1 <0>        -0.0014
     23 C21         6.8459    2.5225    5.7647 C.2       1 <0>        -0.2088
     24 C22         8.0758    2.8882    6.4704 C.2       1 <0>         0.5604
     25 O1          9.1531    2.5052    6.0538 O.2       1 <0>        -0.5226
     26 N3          8.0145    3.6488    7.5814 N.am      1 <0>        -0.5936
     27 O2          9.2038    4.0024    8.2638 O.3       1 <0>        -0.3155
     28 H1         -1.0149    1.8013    0.0944 H         1 <0>         0.1332
     29 H2          1.0551    3.0857   -0.2562 H         1 <0>         0.1353
     30 H3          3.2280    1.9313   -0.3101 H         1 <0>         0.1296
     31 H4          1.2488   -1.8046    0.3304 H         1 <0>         0.1303
     32 H5         -0.9192   -0.6410    0.3830 H         1 <0>         0.1353
     33 H6          2.5161   -1.7122   -2.4872 H         1 <0>         0.1226
     34 H7          3.7954   -3.2840   -3.8775 H         1 <0>         0.1327
     35 H8          6.0449   -4.0029   -3.1943 H         1 <0>         0.1328
     36 H9          7.0410   -3.1679   -1.1277 H         1 <0>         0.1329
     37 H10         2.4147    0.4444    2.1021 H         1 <0>         0.1317
     38 H11         2.3169    1.8304    4.1282 H         1 <0>         0.1342
     39 H12         4.3810    2.4431    5.3111 H         1 <0>         0.1340
     40 H13         6.6847    0.2562    2.4250 H         1 <0>         0.1450
     41 H14         7.8633    1.4219    4.2839 H         1 <0>         0.1427
     42 H15         5.8898    2.8624    6.1345 H         1 <0>         0.1352
     43 H16         7.1558    3.9541    7.9134 H         1 <0>         0.4094
     44 H17         9.0594    4.5490    9.0483 H         1 <0>         0.3888
@<TRIPOS>BOND
     1    1    6 ar
     2    1    2 ar
     3    1   28 1
     4    2    3 ar
     5    2   29 1
     6    3    4 ar
     7    3   30 1
     8    4    5 ar
     9    4    7 1
    10    5    6 ar
    11    5   31 1
    12    6   32 1
    13    7   15 1
    14    7    8 1
    15    8   13 ar
    16    8    9 ar
    17    9   10 ar
    18    9   33 1
    19   10   11 ar
    20   10   34 1
    21   11   12 ar
    22   11   35 1
    23   12   13 ar
    24   12   36 1
    25   13   14 1
    26   14   15 2
    27   15   16 1
    28   16   21 ar
    29   16   17 ar
    30   17   18 ar
    31   17   37 1
    32   18   19 ar
    33   18   38 1
    34   19   20 ar
    35   19   39 1
    36   20   21 ar
    37   20   22 1
    38   21   40 1
    39   22   23 2
    40   22   41 1
    41   23   24 1
    42   23   42 1
    43   24   25 2
    44   24   26 am
    45   26   27 1
    46   26   43 1
    47   27   44 1
@<TRIPOS>MOLECULE
CHEMBL336674
   48    51     0     0     0
SMALL
USER_CHARGES

@<TRIPOS>ATOM
      1 C1         -0.0164    1.3615    0.0095 C.ar      1 <0>        -0.1305
      2 C2          1.1695    2.0833    0.0021 C.ar      1 <0>        -0.0794
      3 C3          2.3848    1.4354   -0.0134 C.ar      1 <0>        -0.1280
      4 C4          2.4284    0.0453   -0.0210 C.ar      1 <0>         0.1100
      5 C5          1.2225   -0.6837   -0.0129 C.ar      1 <0>        -0.0974
      6 C6          0.0021   -0.0041    0.0020 C.ar      1 <0>        -0.0699
      7 C7          1.6092   -2.0877   -0.0230 C.2       1 <0>        -0.1608
      8 C8          2.9574   -2.1370   -0.0376 C.2       1 <0>         0.0221
      9 N1          3.4602   -0.8691   -0.0355 N.pl3     1 <0>        -0.5697
     10 H1          4.4037   -0.6441   -0.0431 H         1 <0>         0.4223
     11 C9          3.7294   -3.4357   -0.0570 C.3       1 <0>         0.0717
     12 N2          2.8214   -4.5135   -0.4790 N.4       1 <0>        -0.3789
     13 C10         1.6120   -4.5156    0.3548 C.3       1 <0>        -0.0068
     14 C11         0.7316   -3.3132   -0.0158 C.3       1 <0>        -0.0687
     15 C12         3.5061   -5.8064   -0.3461 C.3       1 <0>         0.0439
     16 C13         4.6662   -5.8615   -1.3064 C.ar      1 <0>        -0.1584
     17 C14         4.4765   -6.3483   -2.5880 C.ar      1 <0>        -0.0885
     18 C15         5.5331   -6.4023   -3.4723 C.ar      1 <0>        -0.0907
     19 C16         6.7988   -5.9631   -3.0713 C.ar      1 <0>        -0.0296
     20 C17         6.9823   -5.4722   -1.7749 C.ar      1 <0>        -0.1037
     21 C18         5.9145   -5.4197   -0.9039 C.ar      1 <0>        -0.0961
     22 C19         7.9322   -6.0178   -4.0090 C.2       1 <0>        -0.0363
     23 C20         9.1509   -5.5935   -3.6189 C.2       1 <0>        -0.1740
     24 C21        10.2783   -5.6479   -4.5516 C.2       1 <0>         0.5536
     25 O1         10.1152   -6.0762   -5.6790 O.2       1 <0>        -0.5150
     26 N3         11.4967   -5.2238   -4.1615 N.am      1 <0>        -0.5902
     27 O2         12.5869   -5.2764   -5.0635 O.3       1 <0>        -0.3106
     28 H2         -0.9614    1.8842    0.0259 H         1 <0>         0.1326
     29 H3          1.1388    3.1629    0.0081 H         1 <0>         0.1358
     30 H4          3.3020    2.0056   -0.0200 H         1 <0>         0.1280
     31 H5         -0.9253   -0.5576    0.0080 H         1 <0>         0.1276
     32 H6          4.5581   -3.3585   -0.7608 H         1 <0>         0.1398
     33 H7          4.1119   -3.6491    0.9412 H         1 <0>         0.1437
     34 H8          1.0565   -5.4382    0.1866 H         1 <0>         0.1406
     35 H9          1.8950   -4.4485    1.4053 H         1 <0>         0.1333
     36 H10        -0.0621   -3.1950    0.7220 H         1 <0>         0.1216
     37 H11         0.2985   -3.4634   -1.0047 H         1 <0>         0.1003
     38 H12         3.8730   -5.9200    0.6740 H         1 <0>         0.1397
     39 H13         2.8081   -6.6122   -0.5730 H         1 <0>         0.1449
     40 H14         3.4984   -6.6871   -2.8961 H         1 <0>         0.1380
     41 H15         5.3837   -6.7831   -4.4718 H         1 <0>         0.1440
     42 H16         7.9569   -5.1315   -1.4578 H         1 <0>         0.1400
     43 H17         6.0537   -5.0367    0.0963 H         1 <0>         0.1346
     44 H18         7.7875   -6.3979   -5.0095 H         1 <0>         0.1478
     45 H19         9.2956   -5.2135   -2.6183 H         1 <0>         0.1364
     46 H20        11.6267   -4.8824   -3.2629 H         1 <0>         0.4098
     47 H21        13.4192   -4.9510   -4.6940 H         1 <0>         0.3932
     48 H22         2.5617   -4.3731   -1.4439 H         1 <0>         0.4276
@<TRIPOS>BOND
     1    1    6 ar
     2    1    2 ar
     3    1   28 1
     4    2    3 ar
     5    2   29 1
     6    3    4 ar
     7    3   30 1
     8    4    9 1
     9    4    5 ar
    10    5    6 ar
    11    5    7 1
    12    6   31 1
    13    7   14 1
    14    7    8 2
    15    8    9 1
    16    8   11 1
    17    9   10 1
    18   11   12 1
    19   11   32 1
    20   11   33 1
    21   12   13 1
    22   12   15 1
    23   12   48 1
    24   13   14 1
    25   13   34 1
    26   13   35 1
    27   14   36 1
    28   14   37 1
    29   15   16 1
    30   15   38 1
    31   15   39 1
    32   16   21 ar
    33   16   17 ar
    34   17   18 ar
    35   17   40 1
    36   18   19 ar
    37   18   41 1
    38   19   20 ar
    39   19   22 1
    40   20   21 ar
    41   20   42 1
    42   21   43 1
    43   22   23 2
    44   22   44 1
    45   23   24 1
    46   23   45 1
    47   24   25 2
    48   24   26 am
    49   26   27 1
    50   26   46 1
    51   27   47 1
@<TRIPOS>MOLECULE
CHEMBL336674__1
   47    50     0     0     0
SMALL
USER_CHARGES

@<TRIPOS>ATOM
      1 C1         -0.0164    1.3616    0.0095 C.ar      1 <0>        -0.1453
      2 C2          1.1695    2.0833    0.0021 C.ar      1 <0>        -0.0994
      3 C3          2.3848    1.4354   -0.0134 C.ar      1 <0>        -0.1296
      4 C4          2.4283    0.0454   -0.0210 C.ar      1 <0>         0.0971
      5 C5          1.2225   -0.6835   -0.0130 C.ar      1 <0>        -0.0968
      6 C6          0.0021   -0.0041    0.0020 C.ar      1 <0>        -0.0711
      7 C7          1.6088   -2.0882   -0.0232 C.2       1 <0>        -0.1583
      8 C8          2.9566   -2.1372   -0.0371 C.2       1 <0>         0.0722
      9 N1          3.4598   -0.8692   -0.0353 N.pl3     1 <0>        -0.5857
     10 H1          4.4034   -0.6444   -0.0437 H         1 <0>         0.4133
     11 C9          3.7316   -3.4345   -0.0540 C.3       1 <0>         0.1212
     12 N2          2.8174   -4.5167   -0.4537 N.3       1 <0>        -0.5271
     13 C10         1.5949   -4.5176    0.3620 C.3       1 <0>         0.0547
     14 C11         0.7262   -3.3100   -0.0177 C.3       1 <0>        -0.0399
     15 C12         3.4895   -5.8216   -0.3965 C.3       1 <0>         0.0920
     16 C13         4.5797   -5.8712   -1.4357 C.ar      1 <0>        -0.0648
     17 C14         4.2946   -6.3262   -2.7113 C.ar      1 <0>        -0.0974
     18 C15         5.2868   -6.3750   -3.6676 C.ar      1 <0>        -0.0887
     19 C16         6.5837   -5.9628   -3.3458 C.ar      1 <0>        -0.0800
     20 C17         6.8637   -5.5039   -2.0549 C.ar      1 <0>        -0.0985
     21 C18         5.8595   -5.4562   -1.1112 C.ar      1 <0>        -0.1196
     22 C19         7.6489   -6.0121   -4.3607 C.2       1 <0>        -0.0015
     23 C20         8.8980   -5.6139   -4.0468 C.2       1 <0>        -0.2128
     24 C21         9.9575   -5.6629   -5.0563 C.2       1 <0>         0.5606
     25 O1          9.7105   -6.0632   -6.1787 O.2       1 <0>        -0.5245
     26 N3         11.2063   -5.2648   -4.7425 N.am      1 <0>        -0.5938
     27 O2         12.2309   -5.3123   -5.7187 O.3       1 <0>        -0.3158
     28 H2         -0.9614    1.8843    0.0259 H         1 <0>         0.1226
     29 H3          1.1388    3.1629    0.0081 H         1 <0>         0.1253
     30 H4          3.3020    2.0056   -0.0200 H         1 <0>         0.1189
     31 H5         -0.9252   -0.5577    0.0073 H         1 <0>         0.1210
     32 H6          4.5510   -3.3632   -0.7694 H         1 <0>         0.0927
     33 H7          4.1286   -3.6379    0.9405 H         1 <0>         0.0535
     34 H8          1.0382   -5.4371    0.1813 H         1 <0>         0.0842
     35 H9          1.8620   -4.4557    1.4170 H         1 <0>         0.0409
     36 H10        -0.0720   -3.1851    0.7141 H         1 <0>         0.0767
     37 H11         0.2985   -3.4606   -1.0089 H         1 <0>         0.0793
     38 H12         3.9240   -5.9634    0.5930 H         1 <0>         0.0489
     39 H13         2.7650   -6.6123   -0.5919 H         1 <0>         0.0930
     40 H14         3.2925   -6.6443   -2.9583 H         1 <0>         0.1300
     41 H15         5.0630   -6.7310   -4.6624 H         1 <0>         0.1311
     42 H16         7.8630   -5.1842   -1.7988 H         1 <0>         0.1273
     43 H17         6.0731   -5.0979   -0.1150 H         1 <0>         0.1226
     44 H18         7.4297   -6.3674   -5.3568 H         1 <0>         0.1397
     45 H19         9.1172   -5.2586   -3.0507 H         1 <0>         0.1338
     46 H20        11.4032   -4.9457   -3.8479 H         1 <0>         0.4092
     47 H21        13.0916   -5.0070   -5.4007 H         1 <0>         0.3888
@<TRIPOS>BOND
     1    1    6 ar
     2    1    2 ar
     3    1   28 1
     4    2    3 ar
     5    2   29 1
     6    3    4 ar
     7    3   30 1
     8    4    9 1
     9    4    5 ar
    10    5    6 ar
    11    5    7 1
    12    6   31 1
    13    7   14 1
    14    7    8 2
    15    8    9 1
    16    8   11 1
    17    9   10 1
    18   11   12 1
    19   11   32 1
    20   11   33 1
    21   12   13 1
    22   12   15 1
    23   13   14 1
    24   13   34 1
    25   13   35 1
    26   14   36 1
    27   14   37 1
    28   15   16 1
    29   15   38 1
    30   15   39 1
    31   16   21 ar
    32   16   17 ar
    33   17   18 ar
    34   17   40 1
    35   18   19 ar
    36   18   41 1
    37   19   20 ar
    38   19   22 1
    39   20   21 ar
    40   20   42 1
    41   21   43 1
    42   22   23 2
    43   22   44 1
    44   23   24 1
    45   23   45 1
    46   24   25 2
    47   24   26 am
    48   26   27 1
    49   26   46 1
    50   27   47 1
@<TRIPOS>MOLECULE
CHEMBL1095085
   56    58     0     0     0
SMALL
USER_CHARGES

@<TRIPOS>ATOM
      1 C1          0.6714   -1.2049   -6.7194 C.3       1 <0>        -0.1899
      2 C2          0.1451   -1.1928   -5.2828 C.3       1 <0>        -0.0170
      3 N1          1.0781   -1.9216   -4.4133 N.4       1 <0>        -0.3910
      4 C3          1.1133   -3.3341   -4.8110 C.3       1 <0>        -0.0135
      5 C4          2.1437   -4.0815   -3.9616 C.3       1 <0>        -0.1452
      6 C5          1.7534   -3.9750   -2.4846 C.3       1 <0>        -0.1668
      7 C6          1.6471   -2.4964   -2.1002 C.3       1 <0>         0.1214
      8 H1          1.3156   -2.4123   -1.0653 H         1 <0>         0.1332
      9 C7          0.6352   -1.8078   -3.0185 C.3       1 <0>        -0.0382
     10 N2          2.9571   -1.8573   -2.2477 N.pl3     1 <0>        -0.4646
     11 C8          3.1913   -0.5945   -2.6659 C.2       1 <0>         0.1745
     12 N3          4.4795   -0.3800   -2.6689 N.2       1 <0>        -0.4533
     13 C9          5.1176   -1.4819   -2.2580 C.2       1 <0>         0.0474
     14 C10         4.1806   -2.4285   -1.9805 C.2       1 <0>         0.0240
     15 C11         4.4280   -3.8021   -1.4903 C.ar      1 <0>        -0.0227
     16 C12         3.8393   -4.2371   -0.3005 C.ar      1 <0>        -0.1002
     17 C13         4.0683   -5.5188    0.1599 C.ar      1 <0>        -0.1106
     18 C14         4.8803   -6.3798   -0.5503 C.ar      1 <0>        -0.0896
     19 C15         5.4767   -5.9582   -1.7435 C.ar      1 <0>        -0.0604
     20 C16         5.2435   -4.6654   -2.2167 C.ar      1 <0>        -0.0763
     21 C17         6.3428   -6.8768   -2.5009 C.2       1 <0>        -0.0221
     22 C18         6.5621   -8.1262   -2.0450 C.2       1 <0>        -0.1893
     23 C19         7.4235   -9.0398   -2.7984 C.2       1 <0>         0.5567
     24 O1          7.9414   -8.6711   -3.8361 O.2       1 <0>        -0.5211
     25 N4          7.6428  -10.2890   -2.3425 N.am      1 <0>        -0.5909
     26 O2          8.4758  -11.1725   -3.0710 O.3       1 <0>        -0.3128
     27 C20         6.6096   -1.6440   -2.1213 C.3       1 <0>        -0.0815
     28 C21         2.1366    0.4053   -3.0647 C.3       1 <0>        -0.0940
     29 H2          1.6493   -0.7244   -6.7521 H         1 <0>         0.0813
     30 H3          0.7609   -2.2348   -7.0649 H         1 <0>         0.0821
     31 H4         -0.0209   -0.6641   -7.3646 H         1 <0>         0.1112
     32 H5          0.0556   -0.1629   -4.9373 H         1 <0>         0.1338
     33 H6         -0.8328   -1.6733   -5.2501 H         1 <0>         0.1355
     34 H7          0.1291   -3.7779   -4.6613 H         1 <0>         0.1341
     35 H8          1.3881   -3.4081   -5.8632 H         1 <0>         0.1358
     36 H9          2.1670   -5.1304   -4.2572 H         1 <0>         0.1198
     37 H10         3.1284   -3.6387   -4.1108 H         1 <0>         0.0879
     38 H11         0.7918   -4.4630   -2.3256 H         1 <0>         0.1044
     39 H12         2.5142   -4.4574   -1.8709 H         1 <0>         0.1225
     40 H13         0.5570   -0.7549   -2.7474 H         1 <0>         0.1562
     41 H14        -0.3388   -2.2841   -2.9071 H         1 <0>         0.1543
     42 H15         3.2033   -3.5689    0.2611 H         1 <0>         0.1242
     43 H16         3.6101   -5.8490    1.0805 H         1 <0>         0.1358
     44 H17         5.0557   -7.3806   -0.1842 H         1 <0>         0.1355
     45 H18         5.6971   -4.3354   -3.1396 H         1 <0>         0.1348
     46 H19         6.8024   -6.5496   -3.4218 H         1 <0>         0.1424
     47 H20         6.1025   -8.4534   -1.1241 H         1 <0>         0.1364
     48 H21         7.2300  -10.5829   -1.5154 H         1 <0>         0.4103
     49 H22         8.5731  -12.0452   -2.6659 H         1 <0>         0.3924
     50 H23         6.9163   -1.3519   -1.1169 H         1 <0>         0.0782
     51 H24         6.8794   -2.6856   -2.2951 H         1 <0>         0.0754
     52 H25         7.1123   -1.0115   -2.8530 H         1 <0>         0.0798
     53 H26         1.6085    0.7504   -2.1758 H         1 <0>         0.1001
     54 H27         2.6090    1.2541   -3.5591 H         1 <0>         0.1138
     55 H28         1.4294   -0.0655   -3.7476 H         1 <0>         0.0536
     56 H29         2.0014   -1.5253   -4.5053 H         1 <0>         0.4224
@<TRIPOS>BOND
     1    1    2 1
     2    1   29 1
     3    1   30 1
     4    1   31 1
     5    2    3 1
     6    2   32 1
     7    2   33 1
     8    3    9 1
     9    3    4 1
    10    3   56 1
    11    4    5 1
    12    4   34 1
    13    4   35 1
    14    5    6 1
    15    5   36 1
    16    5   37 1
    17    6    7 1
    18    6   38 1
    19    6   39 1
    20    7    8 1
    21    7    9 1
    22    7   10 1
    23    9   40 1
    24    9   41 1
    25   10   14 1
    26   10   11 1
    27   11   12 2
    28   11   28 1
    29   12   13 1
    30   13   14 2
    31   13   27 1
    32   14   15 1
    33   15   20 ar
    34   15   16 ar
    35   16   17 ar
    36   16   42 1
    37   17   18 ar
    38   17   43 1
    39   18   19 ar
    40   18   44 1
    41   19   20 ar
    42   19   21 1
    43   20   45 1
    44   21   22 2
    45   21   46 1
    46   22   23 1
    47   22   47 1
    48   23   24 2
    49   23   25 am
    50   25   26 1
    51   25   48 1
    52   26   49 1
    53   27   50 1
    54   27   51 1
    55   27   52 1
    56   28   53 1
    57   28   54 1
    58   28   55 1
@<TRIPOS>MOLECULE
CHEMBL1095085__1
   56    58     0     0     0
SMALL
USER_CHARGES

@<TRIPOS>ATOM
      1 C1          5.3184   -1.0012    4.0579 C.3       1 <0>        -0.1531
      2 C2          4.4142   -1.1171    2.8292 C.3       1 <0>         0.0417
      3 N1          3.2003   -1.8649    3.1832 N.3       1 <0>        -0.5477
      4 C3          3.5201   -3.2578    3.5208 C.3       1 <0>         0.0458
      5 C4          2.2590   -3.9648    4.0228 C.3       1 <0>        -0.1182
      6 C5          1.1851   -3.9179    2.9324 C.3       1 <0>        -0.1540
      7 C6          0.9055   -2.4580    2.5649 C.3       1 <0>         0.1347
      8 H1          0.1726   -2.4196    1.7589 H         1 <0>         0.1238
      9 C7          2.2058   -1.7947    2.1051 C.3       1 <0>         0.0061
     10 N2          0.3821   -1.7505    3.7360 N.pl3     1 <0>        -0.3816
     11 C8          0.6551   -0.4765    4.0922 C.cat     1 <0>         0.3410
     12 N3          0.0074   -0.1945    5.1906 N.pl3     1 <0>        -0.4798
     13 C9         -0.6991   -1.2618    5.5802 C.2       1 <0>         0.0487
     14 C10        -0.4852   -2.2568    4.6774 C.2       1 <0>         0.0904
     15 C11        -1.0682   -3.6161    4.7034 C.ar      1 <0>        -0.0489
     16 C12        -1.7977   -4.0857    3.6086 C.ar      1 <0>        -0.0860
     17 C13        -2.3433   -5.3543    3.6298 C.ar      1 <0>        -0.1088
     18 C14        -2.1731   -6.1678    4.7317 C.ar      1 <0>        -0.0767
     19 C15        -1.4450   -5.7111    5.8355 C.ar      1 <0>        -0.0577
     20 C16        -0.8860   -4.4318    5.8168 C.ar      1 <0>        -0.0645
     21 C17        -1.2637   -6.5791    7.0108 C.2       1 <0>        -0.0270
     22 C18        -1.7995   -7.8159    7.0245 C.2       1 <0>        -0.1831
     23 C19        -1.6191   -8.6792    8.1934 C.2       1 <0>         0.5560
     24 O1         -0.9854   -8.2800    9.1526 O.2       1 <0>        -0.5198
     25 N4         -2.1550   -9.9158    8.2070 N.am      1 <0>        -0.5902
     26 O2         -1.9805  -10.7505    9.3374 O.3       1 <0>        -0.3121
     27 C20        -1.5803   -1.3451    6.7999 C.3       1 <0>        -0.1007
     28 C21         1.5606    0.4668    3.3432 C.3       1 <0>        -0.1426
     29 H2          5.5933   -1.9983    4.4020 H         1 <0>         0.0597
     30 H3          6.2191   -0.4464    3.7952 H         1 <0>         0.0693
     31 H4          4.7870   -0.4765    4.8519 H         1 <0>         0.0619
     32 H5          4.1392   -0.1201    2.4851 H         1 <0>         0.0818
     33 H6          4.9455   -1.6418    2.0352 H         1 <0>         0.0490
     34 H7          3.8948   -3.7696    2.6344 H         1 <0>         0.0485
     35 H8          4.2818   -3.2769    4.3003 H         1 <0>         0.0909
     36 H9          2.4932   -5.0029    4.2586 H         1 <0>         0.0850
     37 H10         1.8915   -3.4619    4.9174 H         1 <0>         0.0669
     38 H11         1.5371   -4.4544    2.0512 H         1 <0>         0.1001
     39 H12         0.2707   -4.3822    3.3015 H         1 <0>         0.1002
     40 H13         2.0129   -0.7512    1.8563 H         1 <0>         0.1100
     41 H14         2.5866   -2.3133    1.2253 H         1 <0>         0.0805
     42 H15        -1.9357   -3.4547    2.7431 H         1 <0>         0.1284
     43 H16        -2.9062   -5.7113    2.7801 H         1 <0>         0.1411
     44 H17        -2.6031   -7.1584    4.7420 H         1 <0>         0.1397
     45 H18        -0.3188   -4.0750    6.6637 H         1 <0>         0.1381
     46 H19        -0.7012   -6.2249    7.8621 H         1 <0>         0.1442
     47 H20        -2.3619   -8.1701    6.1732 H         1 <0>         0.1372
     48 H21        -2.6601  -10.2339    7.4425 H         1 <0>         0.4106
     49 H22        -2.4004  -11.6177    9.2546 H         1 <0>         0.3930
     50 H23        -2.5931   -1.0387    6.5381 H         1 <0>         0.1003
     51 H24        -1.5948   -2.3709    7.1683 H         1 <0>         0.1031
     52 H25        -1.1904   -0.6860    7.5755 H         1 <0>         0.0925
     53 H26         1.0730    0.7833    2.4212 H         1 <0>         0.1144
     54 H27         1.7683    1.3395    3.9624 H         1 <0>         0.1084
     55 H28         2.4956   -0.0399    3.1043 H         1 <0>         0.1509
     56 H29         0.0349    0.6577    5.6532 H         1 <0>         0.4587
@<TRIPOS>BOND
     1    1    2 1
     2    1   29 1
     3    1   30 1
     4    1   31 1
     5    2    3 1
     6    2   32 1
     7    2   33 1
     8    3    9 1
     9    3    4 1
    10    4    5 1
    11    4   34 1
    12    4   35 1
    13    5    6 1
    14    5   36 1
    15    5   37 1
    16    6    7 1
    17    6   38 1
    18    6   39 1
    19    7    8 1
    20    7    9 1
    21    7   10 1
    22    9   40 1
    23    9   41 1
    24   10   14 1
    25   10   11 1
    26   11   12 2
    27   11   28 1
    28   12   13 1
    29   12   56 1
    30   13   14 2
    31   13   27 1
    32   14   15 1
    33   15   20 ar
    34   15   16 ar
    35   16   17 ar
    36   16   42 1
    37   17   18 ar
    38   17   43 1
    39   18   19 ar
    40   18   44 1
    41   19   20 ar
    42   19   21 1
    43   20   45 1
    44   21   22 2
    45   21   46 1
    46   22   23 1
    47   22   47 1
    48   23   24 2
    49   23   25 am
    50   25   26 1
    51   25   48 1
    52   26   49 1
    53   27   50 1
    54   27   51 1
    55   27   52 1
    56   28   53 1
    57   28   54 1
    58   28   55 1
@<TRIPOS>MOLECULE
CHEMBL1095085__2
   57    59     0     0     0
SMALL
USER_CHARGES

@<TRIPOS>ATOM
      1 C1          0.6715   -1.2048   -6.7194 C.3       1 <0>        -0.1922
      2 C2          0.1451   -1.1927   -5.2829 C.3       1 <0>        -0.0208
      3 N1          1.0781   -1.9216   -4.4133 N.4       1 <0>        -0.3965
      4 C3          1.1134   -3.3341   -4.8110 C.3       1 <0>        -0.0199
      5 C4          2.1437   -4.0815   -3.9617 C.3       1 <0>        -0.1485
      6 C5          1.7534   -3.9750   -2.4847 C.3       1 <0>        -0.1728
      7 C6          1.6471   -2.4964   -2.1003 C.3       1 <0>         0.1146
      8 H1          1.3156   -2.4124   -1.0653 H         1 <0>         0.1655
      9 C7          0.6352   -1.8078   -3.0186 C.3       1 <0>        -0.0483
     10 N2          2.9571   -1.8573   -2.2477 N.pl3     1 <0>        -0.4134
     11 C8          3.1913   -0.5945   -2.6659 C.cat     1 <0>         0.2656
     12 N3          4.4795   -0.3800   -2.6689 N.pl3     1 <0>        -0.4527
     13 C9          5.1176   -1.4819   -2.2580 C.2       1 <0>         0.0731
     14 C10         4.1805   -2.4285   -1.9805 C.2       1 <0>         0.1138
     15 C11         4.4280   -3.8021   -1.4903 C.ar      1 <0>        -0.0736
     16 C12         3.8393   -4.2371   -0.3006 C.ar      1 <0>        -0.0893
     17 C13         4.0683   -5.5189    0.1599 C.ar      1 <0>        -0.1021
     18 C14         4.8802   -6.3798   -0.5504 C.ar      1 <0>        -0.0687
     19 C15         5.4767   -5.9582   -1.7435 C.ar      1 <0>        -0.0450
     20 C16         5.2435   -4.6654   -2.2167 C.ar      1 <0>        -0.0677
     21 C17         6.3428   -6.8768   -2.5010 C.2       1 <0>        -0.0467
     22 C18         6.5621   -8.1262   -2.0451 C.2       1 <0>        -0.1628
     23 C19         7.4235   -9.0398   -2.7984 C.2       1 <0>         0.5522
     24 O1          7.9414   -8.6711   -3.8361 O.2       1 <0>        -0.5176
     25 N4          7.6428  -10.2890   -2.3426 N.am      1 <0>        -0.5873
     26 O2          8.4758  -11.1725   -3.0711 O.3       1 <0>        -0.3092
     27 C20         6.6096   -1.6440   -2.1213 C.3       1 <0>        -0.1116
     28 C21         2.1366    0.4053   -3.0647 C.3       1 <0>        -0.1374
     29 H2          1.6493   -0.7244   -6.7521 H         1 <0>         0.0791
     30 H3          0.7610   -2.2348   -7.0649 H         1 <0>         0.0866
     31 H4         -0.0208   -0.6640   -7.3646 H         1 <0>         0.1188
     32 H5          0.0556   -0.1628   -4.9374 H         1 <0>         0.1368
     33 H6         -0.8328   -1.6732   -5.2502 H         1 <0>         0.1458
     34 H7          0.1291   -3.7779   -4.6614 H         1 <0>         0.1458
     35 H8          1.3881   -3.4081   -5.8632 H         1 <0>         0.1452
     36 H9          2.1670   -5.1304   -4.2573 H         1 <0>         0.1339
     37 H10         3.1284   -3.6386   -4.1108 H         1 <0>         0.0814
     38 H11         0.7918   -4.4630   -2.3257 H         1 <0>         0.1274
     39 H12         2.5142   -4.4574   -1.8710 H         1 <0>         0.1304
     40 H13         0.5570   -0.7549   -2.7474 H         1 <0>         0.1612
     41 H14        -0.3388   -2.2841   -2.9071 H         1 <0>         0.1766
     42 H15         3.2033   -3.5689    0.2611 H         1 <0>         0.1308
     43 H16         3.6101   -5.8490    1.0804 H         1 <0>         0.1470
     44 H17         5.0557   -7.3806   -0.1843 H         1 <0>         0.1455
     45 H18         5.6971   -4.3354   -3.1396 H         1 <0>         0.1400
     46 H19         6.8024   -6.5495   -3.4219 H         1 <0>         0.1463
     47 H20         6.1025   -8.4534   -1.1242 H         1 <0>         0.1388
     48 H21         7.2300  -10.5829   -1.5155 H         1 <0>         0.4115
     49 H22         8.5731  -12.0452   -2.6660 H         1 <0>         0.3965
     50 H23         6.9163   -1.3519   -1.1169 H         1 <0>         0.1122
     51 H24         6.8794   -2.6856   -2.2951 H         1 <0>         0.1119
     52 H25         7.1123   -1.0115   -2.8529 H         1 <0>         0.1015
     53 H26         1.6085    0.7504   -2.1758 H         1 <0>         0.1429
     54 H27         2.6090    1.2541   -3.5591 H         1 <0>         0.1372
     55 H28         1.4294   -0.0654   -3.7476 H         1 <0>         0.0919
     56 H29         2.0015   -1.5253   -4.5054 H         1 <0>         0.4080
     57 H30         4.9079    0.4503   -2.9294 H         1 <0>         0.4686
@<TRIPOS>BOND
     1    1    2 1
     2    1   29 1
     3    1   30 1
     4    1   31 1
     5    2    3 1
     6    2   32 1
     7    2   33 1
     8    3    9 1
     9    3    4 1
    10    3   56 1
    11    4    5 1
    12    4   34 1
    13    4   35 1
    14    5    6 1
    15    5   36 1
    16    5   37 1
    17    6    7 1
    18    6   38 1
    19    6   39 1
    20    7    8 1
    21    7    9 1
    22    7   10 1
    23    9   40 1
    24    9   41 1
    25   10   14 1
    26   10   11 1
    27   11   12 2
    28   11   28 1
    29   12   13 1
    30   12   57 1
    31   13   14 2
    32   13   27 1
    33   14   15 1
    34   15   20 ar
    35   15   16 ar
    36   16   17 ar
    37   16   42 1
    38   17   18 ar
    39   17   43 1
    40   18   19 ar
    41   18   44 1
    42   19   20 ar
    43   19   21 1
    44   20   45 1
    45   21   22 2
    46   21   46 1
    47   22   23 1
    48   22   47 1
    49   23   24 2
    50   23   25 am
    51   25   26 1
    52   25   48 1
    53   26   49 1
    54   27   50 1
    55   27   51 1
    56   27   52 1
    57   28   53 1
    58   28   54 1
    59   28   55 1
@<TRIPOS>MOLECULE
CHEMBL275380
   50    52     0     0     0
SMALL
USER_CHARGES

@<TRIPOS>ATOM
      1 C1         -0.0167    1.3791    0.0096 C.ar      1 <0>        -0.1133
      2 C2          1.1686    2.0923    0.0021 C.ar      1 <0>        -0.1183
      3 C3          2.3774    1.4268   -0.0135 C.ar      1 <0>        -0.1057
      4 C4          2.4025    0.0330   -0.0212 C.ar      1 <0>        -0.0568
      5 C5          1.2049   -0.6804   -0.0131 C.ar      1 <0>        -0.1060
      6 C6          0.0021   -0.0041    0.0020 C.ar      1 <0>        -0.1186
      7 C7          3.6981   -0.6879   -0.0385 C.ar      1 <0>        -0.0148
      8 C8          4.8948    0.0291   -0.0411 C.ar      1 <0>        -0.1196
      9 C9          6.0982   -0.6392   -0.0571 C.ar      1 <0>        -0.0537
     10 C10         6.1208   -2.0360   -0.0702 C.ar      1 <0>        -0.1384
     11 C11         4.9218   -2.7531   -0.0671 C.ar      1 <0>        -0.0815
     12 C12         3.7195   -2.0828   -0.0462 C.ar      1 <0>        -0.1197
     13 C13         7.4115   -2.7542   -0.0879 C.2       1 <0>         0.5588
     14 O1          8.4546   -2.1298   -0.0911 O.2       1 <0>        -0.5348
     15 N1          7.4328   -4.1018   -0.1005 N.am      1 <0>        -0.7265
     16 C14         8.7129   -4.8140   -0.1181 C.3       1 <0>         0.1235
     17 C15         8.4570   -6.3225   -0.1298 C.3       1 <0>        -0.1032
     18 C16         7.7819   -6.7355    1.1796 C.3       1 <0>        -0.1156
     19 C17         7.5261   -8.2439    1.1678 C.3       1 <0>        -0.1003
     20 C18         8.8565   -8.9857    1.0239 C.3       1 <0>        -0.0925
     21 C19         9.5316   -8.5727   -0.2856 C.3       1 <0>        -0.1123
     22 C20         9.7874   -7.0643   -0.2738 C.3       1 <0>        -0.1098
     23 C21         8.6045  -10.4714    1.0123 C.2       1 <0>         0.5267
     24 O2          7.4723  -10.8953    1.1096 O.2       1 <0>        -0.5175
     25 N2          9.6373  -11.3292    0.8938 N.am      1 <0>        -0.5976
     26 O3          9.4006  -12.7252    0.8829 O.3       1 <0>        -0.3199
     27 H1         -0.9603    1.9042    0.0260 H         1 <0>         0.1246
     28 H2          1.1479    3.1721    0.0082 H         1 <0>         0.1263
     29 H3          3.3022    1.9846   -0.0200 H         1 <0>         0.1272
     30 H4          1.2183   -1.7603   -0.0194 H         1 <0>         0.1267
     31 H5         -0.9264   -0.5557    0.0083 H         1 <0>         0.1261
     32 H6          4.8770    1.1089   -0.0310 H         1 <0>         0.1338
     33 H7          7.0245   -0.0839   -0.0599 H         1 <0>         0.1393
     34 H8          4.9381   -3.8329   -0.0772 H         1 <0>         0.1275
     35 H9          2.7926   -2.6369   -0.0396 H         1 <0>         0.1329
     36 H10         6.6005   -4.6000   -0.0980 H         1 <0>         0.4002
     37 H11         9.2726   -4.5335   -1.0103 H         1 <0>         0.0712
     38 H12         9.2878   -4.5499    0.7695 H         1 <0>         0.0715
     39 H13         7.8080   -6.5744   -0.9685 H         1 <0>         0.0815
     40 H14         8.4310   -6.4836    2.0182 H         1 <0>         0.0699
     41 H15         6.8341   -6.2070    1.2821 H         1 <0>         0.0686
     42 H16         7.0451   -8.5381    2.1007 H         1 <0>         0.0753
     43 H17         6.8770   -8.4958    0.3292 H         1 <0>         0.0743
     44 H18         9.5056   -8.7338    1.8625 H         1 <0>         0.1044
     45 H19        10.4794   -9.1011   -0.3881 H         1 <0>         0.0701
     46 H20         8.8825   -8.8246   -1.1242 H         1 <0>         0.0739
     47 H21        10.2684   -6.7700   -1.2066 H         1 <0>         0.0745
     48 H22        10.4365   -6.8123    0.5649 H         1 <0>         0.0721
     49 H23        10.5428  -10.9902    0.8160 H         1 <0>         0.4075
     50 H24        10.2018  -13.2593    0.7941 H         1 <0>         0.3879
@<TRIPOS>BOND
     1    1    6 ar
     2    1    2 ar
     3    1   27 1
     4    2    3 ar
     5    2   28 1
     6    3    4 ar
     7    3   29 1
     8    4    5 ar
     9    4    7 1
    10    5    6 ar
    11    5   30 1
    12    6   31 1
    13    7   12 ar
    14    7    8 ar
    15    8    9 ar
    16    8   32 1
    17    9   10 ar
    18    9   33 1
    19   10   11 ar
    20   10   13 1
    21   11   12 ar
    22   11   34 1
    23   12   35 1
    24   13   14 2
    25   13   15 am
    26   15   16 1
    27   15   36 1
    28   16   17 1
    29   16   37 1
    30   16   38 1
    31   17   22 1
    32   17   18 1
    33   17   39 1
    34   18   19 1
    35   18   40 1
    36   18   41 1
    37   19   20 1
    38   19   42 1
    39   19   43 1
    40   20   21 1
    41   20   23 1
    42   20   44 1
    43   21   22 1
    44   21   45 1
    45   21   46 1
    46   22   47 1
    47   22   48 1
    48   23   24 2
    49   23   25 am
    50   25   26 1
    51   25   49 1
    52   26   50 1
@<TRIPOS>MOLECULE
CHEMBL178779
   37    38     0     0     0
SMALL
USER_CHARGES

@<TRIPOS>ATOM
      1 C1         -0.0165    1.3660    0.0096 C.ar      1 <0>        -0.1068
      2 C2          1.1565    2.1072    0.0023 C.ar      1 <0>        -0.1032
      3 C3          2.3728    1.4498   -0.0128 C.ar      1 <0>        -0.0598
      4 C4          2.4012    0.0775   -0.0204 C.ar      1 <0>        -0.1815
      5 C5          1.2274   -0.7100   -0.0134 C.ar      1 <0>         0.0999
      6 C6          0.0021   -0.0041    0.0020 C.ar      1 <0>        -0.0697
      7 N1          1.4197   -2.0468   -0.0223 N.2       1 <0>        -0.5452
      8 C7          2.6157   -2.5875   -0.0366 C.2       1 <0>         0.3567
      9 S1          3.6823   -1.1534   -0.0391 S.3       1 <0>         0.0973
     10 N2          2.9629   -3.9286   -0.0467 N.am      1 <0>        -0.6132
     11 C8          4.2617   -4.2884   -0.0611 C.2       1 <0>         0.5149
     12 O1          5.1263   -3.4382   -0.0652 O.2       1 <0>        -0.4910
     13 C9          4.6393   -5.7473   -0.0720 C.3       1 <0>        -0.1321
     14 C10         6.1635   -5.8794   -0.0874 C.3       1 <0>        -0.1082
     15 C11         6.5470   -7.3605   -0.0986 C.3       1 <0>        -0.1195
     16 C12         8.0712   -7.4927   -0.1140 C.3       1 <0>        -0.1155
     17 C13         8.4546   -8.9738   -0.1251 C.3       1 <0>        -0.1046
     18 C14         9.9788   -9.1059   -0.1405 C.3       1 <0>        -0.0664
     19 S2         10.4334  -10.8620   -0.1537 S.3       1 <0>        -0.2572
     20 H1         -0.9658    1.8808    0.0259 H         1 <0>         0.1343
     21 H2          1.1198    3.1866    0.0081 H         1 <0>         0.1383
     22 H3          3.2946    2.0125   -0.0189 H         1 <0>         0.1331
     23 H4         -0.9293   -0.5509    0.0083 H         1 <0>         0.1319
     24 H5          2.2712   -4.6087   -0.0434 H         1 <0>         0.4289
     25 H6          4.2416   -6.2323    0.8194 H         1 <0>         0.1068
     26 H7          4.2244   -6.2234   -0.9604 H         1 <0>         0.1068
     27 H8          6.5613   -5.3944   -0.9789 H         1 <0>         0.0744
     28 H9          6.5785   -5.4033    0.8010 H         1 <0>         0.0744
     29 H10         6.1492   -7.8455    0.7929 H         1 <0>         0.0673
     30 H11         6.1320   -7.8366   -0.9870 H         1 <0>         0.0673
     31 H12         8.4689   -7.0077   -1.0054 H         1 <0>         0.0665
     32 H13         8.4861   -7.0166    0.7744 H         1 <0>         0.0665
     33 H14         8.0569   -9.4588    0.7663 H         1 <0>         0.0758
     34 H15         8.0396   -9.4499   -1.0135 H         1 <0>         0.0758
     35 H16        10.3765   -8.6210   -1.0320 H         1 <0>         0.0833
     36 H17        10.3938   -8.6299    0.7479 H         1 <0>         0.0833
     37 H18        11.7783  -10.8499   -0.1667 H         1 <0>         0.0904
@<TRIPOS>BOND
     1    1    6 ar
     2    1    2 ar
     3    1   20 1
     4    2    3 ar
     5    2   21 1
     6    3    4 ar
     7    3   22 1
     8    4    9 1
     9    4    5 ar
    10    5    6 ar
    11    5    7 1
    12    6   23 1
    13    7    8 2
    14    8    9 1
    15    8   10 1
    16   10   11 am
    17   10   24 1
    18   11   12 2
    19   11   13 1
    20   13   14 1
    21   13   25 1
    22   13   26 1
    23   14   15 1
    24   14   27 1
    25   14   28 1
    26   15   16 1
    27   15   29 1
    28   15   30 1
    29   16   17 1
    30   16   31 1
    31   16   32 1
    32   17   18 1
    33   17   33 1
    34   17   34 1
    35   18   19 1
    36   18   35 1
    37   18   36 1
    38   19   37 1
@<TRIPOS>MOLECULE
CHEMBL516600
   50    53     0     0     0
SMALL
USER_CHARGES

@<TRIPOS>ATOM
      1 C1         -0.0167    1.3781    0.0096 C.ar      1 <0>        -0.1195
      2 C2          1.1709    2.0855    0.0021 C.ar      1 <0>        -0.1200
      3 C3          2.3773    1.4107   -0.0130 C.ar      1 <0>        -0.1033
      4 C4          2.3960    0.0285   -0.0201 C.ar      1 <0>        -0.0794
      5 C5          1.2084   -0.6789   -0.0117 C.ar      1 <0>        -0.1161
      6 C6          0.0021   -0.0041    0.0020 C.ar      1 <0>        -0.1174
      7 C7          3.7112   -0.7071   -0.0376 C.3       1 <0>        -0.0903
      8 C8          4.1714   -0.9633    1.3989 C.3       1 <0>         0.1581
      9 H1          3.3876   -1.4885    1.9447 H         1 <0>         0.1195
     10 C9          5.4244   -1.8010    1.3852 C.2       1 <0>         0.5134
     11 O1          5.3368   -3.0107    1.3965 O.2       1 <0>        -0.5191
     12 N1          6.6398   -1.2220    1.3601 N.am      1 <0>        -0.6540
     13 C10         6.7684    0.1717    1.3969 C.ar      1 <0>         0.1009
     14 C11         7.9720    0.7808    1.0813 C.ar      1 <0>        -0.1174
     15 C12         8.0795    2.1587    1.1288 C.ar      1 <0>        -0.1269
     16 C13         6.9920    2.9327    1.4899 C.ar      1 <0>        -0.1017
     17 C14         5.7854    2.3332    1.8051 C.ar      1 <0>        -0.1451
     18 C15         5.6706    0.9554    1.7569 C.ar      1 <0>         0.1718
     19 N2          4.4567    0.3189    2.0601 N.pl3     1 <0>        -0.6228
     20 C16         3.5052    0.9106    3.0039 C.3       1 <0>         0.1723
     21 C17         3.8093    0.4219    4.3966 C.ar      1 <0>        -0.0818
     22 C18         3.2115   -0.7340    4.8667 C.ar      1 <0>        -0.1094
     23 C19         3.4856   -1.1869    6.1407 C.ar      1 <0>        -0.0534
     24 C20         4.3680   -0.4762    6.9559 C.ar      1 <0>        -0.1219
     25 C21         4.9675    0.6891    6.4755 C.ar      1 <0>        -0.0881
     26 C22         4.6892    1.1279    5.1975 C.ar      1 <0>        -0.1052
     27 C23         4.6659   -0.9555    8.3224 C.2       1 <0>         0.5710
     28 O2          4.1419   -1.9704    8.7383 O.2       1 <0>        -0.5134
     29 N3          5.5184   -0.2670    9.1071 N.am      1 <0>        -0.5935
     30 O3          5.8037   -0.7259   10.4159 O.3       1 <0>        -0.3123
     31 H2         -0.9591    1.9053    0.0259 H         1 <0>         0.1208
     32 H3          1.1563    3.1654    0.0076 H         1 <0>         0.1212
     33 H4          3.3051    1.9634   -0.0196 H         1 <0>         0.1205
     34 H5          1.2231   -1.7588   -0.0176 H         1 <0>         0.1221
     35 H6         -0.9258   -0.5567    0.0082 H         1 <0>         0.1221
     36 H7          3.5884   -1.6586   -0.5549 H         1 <0>         0.0897
     37 H8          4.4573   -0.1052   -0.5563 H         1 <0>         0.0814
     38 H9          7.4346   -1.7763    1.3164 H         1 <0>         0.4117
     39 H10         8.8243    0.1808    0.7985 H         1 <0>         0.1279
     40 H11         9.0182    2.6329    0.8828 H         1 <0>         0.1264
     41 H12         7.0847    4.0081    1.5263 H         1 <0>         0.1263
     42 H13         4.9367    2.9384    2.0876 H         1 <0>         0.1290
     43 H14         3.5908    1.9968    2.9732 H         1 <0>         0.0911
     44 H15         2.4917    0.6181    2.7294 H         1 <0>         0.0906
     45 H16         2.5287   -1.2828    4.2351 H         1 <0>         0.1307
     46 H17         3.0181   -2.0891    6.5066 H         1 <0>         0.1401
     47 H18         5.6512    1.2435    7.1013 H         1 <0>         0.1255
     48 H19         5.1559    2.0270    4.8230 H         1 <0>         0.1309
     49 H20         5.9365    0.5430    8.7752 H         1 <0>         0.4075
     50 H21         6.4254   -0.1670   10.9019 H         1 <0>         0.3897
@<TRIPOS>BOND
     1    1    6 ar
     2    1    2 ar
     3    1   31 1
     4    2    3 ar
     5    2   32 1
     6    3    4 ar
     7    3   33 1
     8    4    5 ar
     9    4    7 1
    10    5    6 ar
    11    5   34 1
    12    6   35 1
    13    7    8 1
    14    7   36 1
    15    7   37 1
    16    8    9 1
    17    8   19 1
    18    8   10 1
    19   10   11 2
    20   10   12 am
    21   12   13 1
    22   12   38 1
    23   13   18 ar
    24   13   14 ar
    25   14   15 ar
    26   14   39 1
    27   15   16 ar
    28   15   40 1
    29   16   17 ar
    30   16   41 1
    31   17   18 ar
    32   17   42 1
    33   18   19 1
    34   19   20 1
    35   20   21 1
    36   20   43 1
    37   20   44 1
    38   21   26 ar
    39   21   22 ar
    40   22   23 ar
    41   22   45 1
    42   23   24 ar
    43   23   46 1
    44   24   25 ar
    45   24   27 1
    46   25   26 ar
    47   25   47 1
    48   26   48 1
    49   27   28 2
    50   27   29 am
    51   29   30 1
    52   29   49 1
    53   30   50 1
@<TRIPOS>MOLECULE
CHEMBL142931
   49    51     0     0     0
SMALL
USER_CHARGES

@<TRIPOS>ATOM
      1 C1         -0.0184    1.5028    0.0103 C.3       1 <0>        -0.0812
      2 C2          0.0021   -0.0041    0.0020 C.2       1 <0>         0.2803
      3 N1          0.0076   -0.7435   -1.0685 N.2       1 <0>        -0.4720
      4 C3          0.0269   -2.0550   -0.7173 C.ar      1 <0>         0.0507
      5 C4          0.0396   -3.2476   -1.4455 C.ar      1 <0>        -0.0561
      6 C5          0.0583   -4.4456   -0.7893 C.ar      1 <0>        -0.1200
      7 C6          0.0643   -4.4931    0.5976 C.ar      1 <0>        -0.0873
      8 C7          0.0520   -3.3294    1.3365 C.ar      1 <0>        -0.1213
      9 C8          0.0334   -2.1025    0.6870 C.ar      1 <0>         0.0419
     10 N2          0.0233   -0.7893    1.1127 N.pl3     1 <0>        -0.4990
     11 C9          0.0306   -0.3271    2.5028 C.3       1 <0>         0.0930
     12 C10        -1.4091   -0.1859    3.0010 C.3       1 <0>        -0.0326
     13 N3         -1.4018    0.2776    4.3949 N.4       1 <0>        -0.5047
     14 C11        -2.7841    0.4131    4.8732 C.3       1 <0>         0.0472
     15 C12        -2.7766    0.8886    6.3032 C.ar      1 <0>        -0.1651
     16 C13        -2.7481   -0.0334    7.3350 C.ar      1 <0>        -0.0886
     17 C14        -2.7415    0.3938    8.6461 C.ar      1 <0>        -0.0930
     18 C15        -2.7632    1.7625    8.9317 C.ar      1 <0>        -0.0257
     19 C16        -2.7915    2.6878    7.8836 C.ar      1 <0>        -0.1045
     20 C17        -2.7925    2.2450    6.5777 C.ar      1 <0>        -0.0886
     21 C18        -2.7568    2.2270   10.3286 C.2       1 <0>        -0.0390
     22 C19        -2.7778    3.5473   10.6000 C.2       1 <0>        -0.1711
     23 C20        -2.7714    4.0092   11.9895 C.2       1 <0>         0.5534
     24 O1         -2.7472    3.2013   12.8992 O.2       1 <0>        -0.5149
     25 N4         -2.7924    5.3292   12.2609 N.am      1 <0>        -0.5898
     26 O2         -2.7862    5.7760   13.6045 O.3       1 <0>        -0.3105
     27 H1          1.0042    1.8801    0.0026 H         1 <0>         0.0951
     28 H2         -0.5455    1.8639   -0.8728 H         1 <0>         0.1049
     29 H3         -0.5286    1.8543    0.9071 H         1 <0>         0.0720
     30 H4          0.0344   -3.2223   -2.5252 H         1 <0>         0.1363
     31 H5          0.0681   -5.3652   -1.3557 H         1 <0>         0.1375
     32 H6          0.0783   -5.4482    1.1015 H         1 <0>         0.1363
     33 H7          0.0570   -3.3718    2.4157 H         1 <0>         0.1195
     34 H8          0.5605   -1.0498    3.1233 H         1 <0>         0.1122
     35 H9          0.5319    0.6391    2.5619 H         1 <0>         0.1158
     36 H10        -1.9390    0.5368    2.3805 H         1 <0>         0.1404
     37 H11        -1.9104   -1.1520    2.9419 H         1 <0>         0.1403
     38 H12        -0.9112   -0.3915    4.9692 H         1 <0>         0.4303
     39 H13        -3.3140    1.1358    4.2527 H         1 <0>         0.1409
     40 H14        -3.2854   -0.5530    4.8141 H         1 <0>         0.1408
     41 H15        -2.7314   -1.0901    7.1128 H         1 <0>         0.1367
     42 H16        -2.7200   -0.3268    9.4502 H         1 <0>         0.1440
     43 H17        -2.8087    3.7465    8.0963 H         1 <0>         0.1409
     44 H18        -2.8099    2.9584    5.7671 H         1 <0>         0.1361
     45 H19        -2.7353    1.5099   11.1359 H         1 <0>         0.1481
     46 H20        -2.7993    4.2643    9.7926 H         1 <0>         0.1371
     47 H21        -2.8117    5.9732   11.5357 H         1 <0>         0.4101
     48 H22        -2.8026    6.7382   13.6992 H         1 <0>         0.3935
     49 H23        -0.9378    1.1719    4.4495 H         1 <0>         0.4297
@<TRIPOS>BOND
     1    1    2 1
     2    1   27 1
     3    1   28 1
     4    1   29 1
     5    2   10 1
     6    2    3 2
     7    3    4 1
     8    4    9 ar
     9    4    5 ar
    10    5    6 ar
    11    5   30 1
    12    6    7 ar
    13    6   31 1
    14    7    8 ar
    15    7   32 1
    16    8    9 ar
    17    8   33 1
    18    9   10 1
    19   10   11 1
    20   11   12 1
    21   11   34 1
    22   11   35 1
    23   12   13 1
    24   12   36 1
    25   12   37 1
    26   13   14 1
    27   13   38 1
    28   13   49 1
    29   14   15 1
    30   14   39 1
    31   14   40 1
    32   15   20 ar
    33   15   16 ar
    34   16   17 ar
    35   16   41 1
    36   17   18 ar
    37   17   42 1
    38   18   19 ar
    39   18   21 1
    40   19   20 ar
    41   19   43 1
    42   20   44 1
    43   21   22 2
    44   21   45 1
    45   22   23 1
    46   22   46 1
    47   23   24 2
    48   23   25 am
    49   25   26 1
    50   25   47 1
    51   26   48 1
@<TRIPOS>MOLECULE
CHEMBL96051
   42    44     0     0     0
SMALL
USER_CHARGES

@<TRIPOS>ATOM
      1 C1         -0.0168    1.3857    0.0097 C.ar      1 <0>        -0.1387
      2 C2          1.1363    2.1169    0.0026 C.ar      1 <0>        -0.0486
      3 C3          2.3822    1.4660   -0.0128 C.ar      1 <0>        -0.0764
      4 C4          3.5968    2.1738   -0.0211 C.ar      1 <0>        -0.0486
      5 C5          4.7823    1.4966   -0.0369 C.ar      1 <0>        -0.1388
      6 C6          4.8276    0.1074   -0.0447 C.ar      1 <0>        -0.0052
      7 C7          3.6516   -0.6280   -0.0370 C.ar      1 <0>        -0.1619
      8 C8          2.4148    0.0559   -0.0206 C.ar      1 <0>         0.0076
      9 C9          1.2107   -0.6844   -0.0131 C.ar      1 <0>        -0.1619
     10 C10         0.0021   -0.0041    0.0020 C.ar      1 <0>        -0.0052
     11 C11         1.2851   -2.1528   -0.0221 C.2       1 <0>         0.5707
     12 O1          0.2620   -2.8102   -0.0163 O.2       1 <0>        -0.4899
     13 N1          2.4799   -2.7737   -0.0372 N.am      1 <0>        -0.5600
     14 C12         3.6448   -2.0983   -0.0457 C.2       1 <0>         0.5706
     15 O2          4.6971   -2.7078   -0.0602 O.2       1 <0>        -0.4899
     16 C13         2.5136   -4.2383   -0.0458 C.3       1 <0>         0.0954
     17 C14         2.5114   -4.7400   -1.4912 C.3       1 <0>        -0.1324
     18 C15         2.5466   -6.2696   -1.5002 C.3       1 <0>        -0.1139
     19 C16         2.5443   -6.7713   -2.9455 C.3       1 <0>        -0.1052
     20 C17         2.5795   -8.3009   -2.9545 C.3       1 <0>        -0.1262
     21 C18         2.5773   -8.7951   -4.3782 C.2       1 <0>         0.5212
     22 O3          2.5502   -8.0020   -5.2953 O.2       1 <0>        -0.5187
     23 N2          2.6054  -10.1184   -4.6322 N.am      1 <0>        -0.6001
     24 O4          2.6033  -10.5827   -5.9699 O.3       1 <0>        -0.3207
     25 H1         -0.9665    1.8997    0.0261 H         1 <0>         0.1404
     26 H2          1.0912    3.1960    0.0084 H         1 <0>         0.1417
     27 H3          3.5922    3.2538   -0.0153 H         1 <0>         0.1417
     28 H4          5.7074    2.0539   -0.0438 H         1 <0>         0.1404
     29 H5          5.7806   -0.4005   -0.0572 H         1 <0>         0.1464
     30 H6         -0.9265   -0.5555    0.0079 H         1 <0>         0.1464
     31 H7          3.4167   -4.5839    0.4573 H         1 <0>         0.0986
     32 H8          1.6373   -4.6250    0.4744 H         1 <0>         0.0987
     33 H9          1.6083   -4.3945   -1.9943 H         1 <0>         0.0700
     34 H10         3.3877   -4.3534   -2.0114 H         1 <0>         0.0700
     35 H11         3.4496   -6.6152   -0.9970 H         1 <0>         0.0692
     36 H12         1.6702   -6.6563   -0.9800 H         1 <0>         0.0692
     37 H13         1.6412   -6.4258   -3.4487 H         1 <0>         0.0738
     38 H14         3.4206   -6.3847   -3.4658 H         1 <0>         0.0738
     39 H15         3.4826   -8.6465   -2.4514 H         1 <0>         0.1003
     40 H16         1.7032   -8.6876   -2.4343 H         1 <0>         0.1003
     41 H17         2.6271  -10.7527   -3.8987 H         1 <0>         0.4082
     42 H18         2.6248  -11.5460   -6.0519 H         1 <0>         0.3875
@<TRIPOS>BOND
     1    1   10 ar
     2    1    2 ar
     3    1   25 1
     4    2    3 ar
     5    2   26 1
     6    3    8 ar
     7    3    4 ar
     8    4    5 ar
     9    4   27 1
    10    5    6 ar
    11    5   28 1
    12    6    7 ar
    13    6   29 1
    14    7   14 1
    15    7    8 ar
    16    8    9 ar
    17    9   10 ar
    18    9   11 1
    19   10   30 1
    20   11   12 2
    21   11   13 am
    22   13   14 am
    23   13   16 1
    24   14   15 2
    25   16   17 1
    26   16   31 1
    27   16   32 1
    28   17   18 1
    29   17   33 1
    30   17   34 1
    31   18   19 1
    32   18   35 1
    33   18   36 1
    34   19   20 1
    35   19   37 1
    36   19   38 1
    37   20   21 1
    38   20   39 1
    39   20   40 1
    40   21   22 2
    41   21   23 am
    42   23   24 1
    43   23   41 1
    44   24   42 1
@<TRIPOS>MOLECULE
CHEMBL214049
   41    42     0     0     0
SMALL
USER_CHARGES

@<TRIPOS>ATOM
      1 C1         -0.0167    1.3781    0.0096 C.ar      1 <0>        -0.1223
      2 C2          1.1709    2.0855    0.0021 C.ar      1 <0>        -0.1174
      3 C3          2.3773    1.4107   -0.0130 C.ar      1 <0>        -0.1128
      4 C4          2.3960    0.0285   -0.0201 C.ar      1 <0>        -0.0836
      5 C5          1.2084   -0.6789   -0.0117 C.ar      1 <0>        -0.1169
      6 C6          0.0021   -0.0041    0.0020 C.ar      1 <0>        -0.1189
      7 C7          3.7112   -0.7071   -0.0376 C.3       1 <0>        -0.0933
      8 C8          4.1714   -0.9633    1.3989 C.3       1 <0>         0.1204
      9 N1          5.4498   -1.6784    1.3820 N.am      1 <0>        -0.6136
     10 C9          5.4664   -3.1420    1.3684 C.3       1 <0>         0.1116
     11 C10         6.5861   -3.6483    0.4615 C.3       1 <0>        -0.1189
     12 C11         7.8827   -2.9635    0.8050 C.2       1 <0>        -0.0894
     13 C12         7.8820   -1.7022    1.2248 C.2       1 <0>        -0.1660
     14 C13         6.6052   -0.9867    1.3733 C.2       1 <0>         0.5533
     15 O1          6.5938    0.2236    1.4916 O.2       1 <0>        -0.5297
     16 C14         9.1818   -1.0087    1.5420 C.3       1 <0>        -0.0503
     17 C15         9.6490   -0.2168    0.3192 C.3       1 <0>        -0.1200
     18 C16        10.9489    0.4767    0.6364 C.2       1 <0>         0.5251
     19 O2         11.4520    0.3500    1.7327 O.2       1 <0>        -0.5189
     20 N2         11.5522    1.2377   -0.2980 N.am      1 <0>        -0.5992
     21 O3         12.7736    1.8893    0.0001 O.3       1 <0>        -0.3197
     22 H1         -0.9591    1.9053    0.0259 H         1 <0>         0.1217
     23 H2          1.1563    3.1654    0.0076 H         1 <0>         0.1226
     24 H3          3.3051    1.9634   -0.0196 H         1 <0>         0.1227
     25 H4          1.2231   -1.7588   -0.0176 H         1 <0>         0.1207
     26 H5         -0.9258   -0.5567    0.0082 H         1 <0>         0.1221
     27 H6          3.5884   -1.6586   -0.5549 H         1 <0>         0.0731
     28 H7          4.4573   -0.1052   -0.5563 H         1 <0>         0.0755
     29 H8          4.2941   -0.0118    1.9163 H         1 <0>         0.0897
     30 H9          3.4252   -1.5652    1.9176 H         1 <0>         0.0801
     31 H10         5.6275   -3.5108    2.3814 H         1 <0>         0.0704
     32 H11         4.5089   -3.5106    1.0002 H         1 <0>         0.0888
     33 H12         6.6997   -4.7242    0.5941 H         1 <0>         0.0987
     34 H13         6.3316   -3.4395   -0.5776 H         1 <0>         0.0899
     35 H14         8.8160   -3.4986    0.7097 H         1 <0>         0.1319
     36 H15         9.0354   -0.3286    2.3811 H         1 <0>         0.0877
     37 H16         9.9355   -1.7515    1.8036 H         1 <0>         0.0855
     38 H17         9.7955   -0.8969   -0.5199 H         1 <0>         0.0979
     39 H18         8.8954    0.5260    0.0576 H         1 <0>         0.1057
     40 H19        11.1499    1.3391   -1.1748 H         1 <0>         0.4082
     41 H20        13.1296    2.4116   -0.7318 H         1 <0>         0.3875
@<TRIPOS>BOND
     1    1    6 ar
     2    1    2 ar
     3    1   22 1
     4    2    3 ar
     5    2   23 1
     6    3    4 ar
     7    3   24 1
     8    4    5 ar
     9    4    7 1
    10    5    6 ar
    11    5   25 1
    12    6   26 1
    13    7    8 1
    14    7   27 1
    15    7   28 1
    16    8    9 1
    17    8   29 1
    18    8   30 1
    19    9   14 am
    20    9   10 1
    21   10   11 1
    22   10   31 1
    23   10   32 1
    24   11   12 1
    25   11   33 1
    26   11   34 1
    27   12   13 2
    28   12   35 1
    29   13   14 1
    30   13   16 1
    31   14   15 2
    32   16   17 1
    33   16   36 1
    34   16   37 1
    35   17   18 1
    36   17   38 1
    37   17   39 1
    38   18   19 2
    39   18   20 am
    40   20   21 1
    41   20   40 1
    42   21   41 1
@<TRIPOS>MOLECULE
CHEMBL402341
   19    20     0     0     0
SMALL
USER_CHARGES

@<TRIPOS>ATOM
      1 C1         -0.0169    1.3920    0.0097 C.ar      1 <0>        -0.0597
      2 C2          1.1681    2.0954    0.0022 C.ar      1 <0>        -0.1448
      3 C3          2.3803    1.4173   -0.0135 C.ar      1 <0>         0.1459
      4 C4          2.4033    0.0284   -0.0212 C.ar      1 <0>        -0.1452
      5 C5          1.2225   -0.6820   -0.0137 C.ar      1 <0>        -0.0525
      6 C6          0.0021   -0.0041    0.0020 C.ar      1 <0>        -0.0660
      7 C7         -1.2665   -0.7622    0.0101 C.2       1 <0>         0.0801
      8 C8         -1.3827   -2.1186    0.0093 C.2       1 <0>        -0.2300
      9 C9         -2.5090   -2.9216    0.0159 C.2       1 <0>         0.1317
     10 S1         -2.5226   -4.6335    0.0140 S.2       1 <0>        -0.3352
     11 S2         -3.9525   -1.8574    0.0273 S.3       1 <0>         0.0233
     12 S3         -2.9122   -0.0509    0.0302 S.3       1 <0>         0.0089
     13 O1          3.5461    2.1140   -0.0218 O.3       1 <0>        -0.4952
     14 H1         -0.9589    1.9199    0.0260 H         1 <0>         0.1357
     15 H2          1.1543    3.1753    0.0081 H         1 <0>         0.1430
     16 H3          3.3477   -0.4953   -0.0334 H         1 <0>         0.1441
     17 H4          1.2412   -1.7619   -0.0204 H         1 <0>         0.1413
     18 H5         -0.4447   -2.6537    0.0021 H         1 <0>         0.1737
     19 H6          3.8926    2.3113    0.8591 H         1 <0>         0.4009
@<TRIPOS>BOND
     1    1    6 ar
     2    1    2 ar
     3    1   14 1
     4    2    3 ar
     5    2   15 1
     6    3    4 ar
     7    3   13 1
     8    4    5 ar
     9    4   16 1
    10    5    6 ar
    11    5   17 1
    12    6    7 1
    13    7   12 1
    14    7    8 2
    15    8    9 1
    16    8   18 1
    17    9   10 2
    18    9   11 1
    19   11   12 1
    20   13   19 1
@<TRIPOS>MOLECULE
CHEMBL1096432
   61    64     0     0     0
SMALL
USER_CHARGES

@<TRIPOS>ATOM
      1 C1         -0.4057    1.1085    0.9227 C.3       1 <0>        -0.1017
      2 C2         -0.2645   -0.3519    0.5788 C.2       1 <0>         0.0550
      3 C3         -0.1899   -0.8727   -0.6784 C.2       1 <0>         0.1040
      4 N1         -0.0675   -2.2365   -0.5349 N.pl3     1 <0>        -0.3948
      5 C4         -0.0721   -2.4961    0.8050 C.cat     1 <0>         0.3637
      6 N2         -0.1853   -1.3566    1.4528 N.pl3     1 <0>        -0.4686
      7 C5          0.0377   -3.8337    1.4250 C.ar      1 <0>        -0.0897
      8 C6         -0.5519   -4.9410    0.8097 C.ar      1 <0>        -0.0738
      9 C7         -0.4515   -6.1916    1.3866 C.ar      1 <0>        -0.1017
     10 C8          0.2318   -6.3585    2.5743 C.ar      1 <0>        -0.0587
     11 C9          0.8273   -5.2592    3.2021 C.ar      1 <0>        -0.0533
     12 C10         0.7339   -3.9934    2.6205 C.ar      1 <0>        -0.0558
     13 C11         1.5552   -5.4376    4.4694 C.2       1 <0>        -0.0347
     14 C12         1.6484   -6.6614    5.0266 C.2       1 <0>        -0.1736
     15 C13         2.3723   -6.8388    6.2871 C.2       1 <0>         0.5550
     16 O1          2.8897   -5.8813    6.8316 O.2       1 <0>        -0.5181
     17 N3          2.4656   -8.0625    6.8442 N.am      1 <0>        -0.5891
     18 O2          3.1656   -8.2341    8.0630 O.3       1 <0>        -0.3110
     19 C14         0.0456   -3.2209   -1.6140 C.3       1 <0>         0.0869
     20 C15        -1.3511   -3.5800   -2.1251 C.3       1 <0>         0.0335
     21 N4         -1.2478   -4.6636   -3.1117 N.3       1 <0>        -0.5300
     22 C16        -0.5460   -4.2098   -4.3211 C.3       1 <0>         0.0099
     23 C17        -0.4082   -5.3830   -5.2951 C.3       1 <0>         0.0623
     24 O3         -1.7059   -5.9084   -5.5872 O.3       1 <0>        -0.3784
     25 C18        -2.4174   -6.3604   -4.4318 C.3       1 <0>         0.0622
     26 C19        -2.5755   -5.1971   -3.4491 C.3       1 <0>         0.0181
     27 C20        -0.2328   -0.1194   -1.9495 C.ar      1 <0>        -0.0658
     28 C21         0.8025   -0.2495   -2.8768 C.ar      1 <0>        -0.0928
     29 C22         0.7560    0.4560   -4.0614 C.ar      1 <0>        -0.1104
     30 C23        -0.3138    1.2910   -4.3314 C.ar      1 <0>        -0.0846
     31 C24        -1.3430    1.4247   -3.4164 C.ar      1 <0>        -0.1104
     32 C25        -1.3117    0.7206   -2.2305 C.ar      1 <0>        -0.0829
     33 H1          0.5834    1.5555    1.0225 H         1 <0>         0.1036
     34 H2         -0.9558    1.6167    0.1307 H         1 <0>         0.1060
     35 H3         -0.9468    1.2096    1.8635 H         1 <0>         0.0946
     36 H4         -1.0881   -4.8184   -0.1198 H         1 <0>         0.1417
     37 H5         -0.9101   -7.0433    0.9063 H         1 <0>         0.1499
     38 H6          0.3064   -7.3394    3.0200 H         1 <0>         0.1468
     39 H7          1.1952   -3.1415    3.0978 H         1 <0>         0.1405
     40 H8          2.0143   -4.5878    4.9527 H         1 <0>         0.1468
     41 H9          1.1893   -7.5112    4.5434 H         1 <0>         0.1388
     42 H10         2.0532   -8.8257    6.4101 H         1 <0>         0.4111
     43 H11         3.1785   -9.1461    8.3842 H         1 <0>         0.3939
     44 H12         0.6339   -2.8001   -2.4295 H         1 <0>         0.1226
     45 H13         0.5365   -4.1182   -1.2373 H         1 <0>         0.1315
     46 H14        -1.9707   -3.9068   -1.2900 H         1 <0>         0.0905
     47 H15        -1.8031   -2.7051   -2.5924 H         1 <0>         0.0593
     48 H16        -1.1153   -3.4094   -4.7936 H         1 <0>         0.0529
     49 H17         0.4442   -3.8427   -4.0512 H         1 <0>         0.0854
     50 H18         0.0606   -5.0378   -6.2166 H         1 <0>         0.1045
     51 H19         0.2063   -6.1613   -4.8428 H         1 <0>         0.0642
     52 H20        -3.4018   -6.7221   -4.7290 H         1 <0>         0.1058
     53 H21        -1.8613   -7.1672   -3.9544 H         1 <0>         0.0646
     54 H22        -3.0668   -5.5507   -2.5426 H         1 <0>         0.0913
     55 H23        -3.1773   -4.4125   -3.9077 H         1 <0>         0.0518
     56 H24         1.6382   -0.9006   -2.6671 H         1 <0>         0.1252
     57 H25         1.5565    0.3566   -4.7795 H         1 <0>         0.1373
     58 H26        -0.3453    1.8410   -5.2602 H         1 <0>         0.1367
     59 H27        -2.1748    2.0787   -3.6329 H         1 <0>         0.1386
     60 H28        -2.1181    0.8222   -1.5193 H         1 <0>         0.1320
     61 H29        -0.2100   -1.2618    2.4178 H         1 <0>         0.4612
@<TRIPOS>BOND
     1    1    2 1
     2    1   33 1
     3    1   34 1
     4    1   35 1
     5    2    6 1
     6    2    3 2
     7    3    4 1
     8    3   27 1
     9    4    5 1
    10    4   19 1
    11    5    6 2
    12    5    7 1
    13    6   61 1
    14    7   12 ar
    15    7    8 ar
    16    8    9 ar
    17    8   36 1
    18    9   10 ar
    19    9   37 1
    20   10   11 ar
    21   10   38 1
    22   11   12 ar
    23   11   13 1
    24   12   39 1
    25   13   14 2
    26   13   40 1
    27   14   15 1
    28   14   41 1
    29   15   16 2
    30   15   17 am
    31   17   18 1
    32   17   42 1
    33   18   43 1
    34   19   20 1
    35   19   44 1
    36   19   45 1
    37   20   21 1
    38   20   46 1
    39   20   47 1
    40   21   26 1
    41   21   22 1
    42   22   23 1
    43   22   48 1
    44   22   49 1
    45   23   24 1
    46   23   50 1
    47   23   51 1
    48   24   25 1
    49   25   26 1
    50   25   52 1
    51   25   53 1
    52   26   54 1
    53   26   55 1
    54   27   32 ar
    55   27   28 ar
    56   28   29 ar
    57   28   56 1
    58   29   30 ar
    59   29   57 1
    60   30   31 ar
    61   30   58 1
    62   31   32 ar
    63   31   59 1
    64   32   60 1
@<TRIPOS>MOLECULE
CHEMBL1096432__1
   60    63     0     0     0
SMALL
USER_CHARGES

@<TRIPOS>ATOM
      1 C1         -0.3533    1.2084    0.9029 C.3       1 <0>        -0.0719
      2 C2         -0.2509   -0.2319    0.4715 C.2       1 <0>         0.0351
      3 C3          0.0180   -0.6703   -0.7906 C.2       1 <0>         0.0159
      4 N1          0.0189   -2.0462   -0.7395 N.pl3     1 <0>        -0.4410
      5 C4         -0.2496   -2.3950    0.5524 C.2       1 <0>         0.2501
      6 N2         -0.4022   -1.2968    1.2605 N.2       1 <0>        -0.4651
      7 C5         -0.3467   -3.7762    1.0706 C.ar      1 <0>        -0.0138
      8 C6         -0.5702   -4.8394    0.1919 C.ar      1 <0>        -0.1135
      9 C7         -0.6620   -6.1306    0.6730 C.ar      1 <0>        -0.1137
     10 C8         -0.5334   -6.3818    2.0242 C.ar      1 <0>        -0.0903
     11 C9         -0.3094   -5.3274    2.9161 C.ar      1 <0>        -0.0762
     12 C10        -0.2100   -4.0207    2.4347 C.ar      1 <0>        -0.0488
     13 C11        -0.1733   -5.5957    4.3573 C.2       1 <0>        -0.0012
     14 C12        -0.2645   -6.8588    4.8193 C.2       1 <0>        -0.2096
     15 C13        -0.1291   -7.1256    6.2527 C.2       1 <0>         0.5604
     16 O1          0.0657   -6.2071    7.0269 O.2       1 <0>        -0.5229
     17 N3         -0.2203   -8.3885    6.7146 N.am      1 <0>        -0.5937
     18 O2         -0.0894   -8.6466    8.1008 O.3       1 <0>        -0.3157
     19 C14         0.2612   -2.9608   -1.8580 C.3       1 <0>         0.0941
     20 C15        -1.0499   -3.2104   -2.6060 C.3       1 <0>         0.0372
     21 N4         -0.8107   -4.1425   -3.7159 N.3       1 <0>        -0.5317
     22 C16         0.0562   -3.5354   -4.7362 C.3       1 <0>         0.0122
     23 C17         0.3276   -4.5587   -5.8421 C.3       1 <0>         0.0640
     24 O3         -0.9169   -5.0067   -6.3860 O.3       1 <0>        -0.3830
     25 C18        -1.7858   -5.6040   -5.4197 C.3       1 <0>         0.0640
     26 C19        -2.0786   -4.5913   -4.3096 C.3       1 <0>         0.0180
     27 C20         0.2607    0.1687   -1.9832 C.ar      1 <0>        -0.0146
     28 C21         1.4344    0.0132   -2.7226 C.ar      1 <0>        -0.1099
     29 C22         1.6545    0.7991   -3.8348 C.ar      1 <0>        -0.1149
     30 C23         0.7149    1.7397   -4.2180 C.ar      1 <0>        -0.1128
     31 C24        -0.4504    1.8992   -3.4893 C.ar      1 <0>        -0.1144
     32 C25        -0.6855    1.1159   -2.3783 C.ar      1 <0>        -0.0970
     33 H1          0.6286    1.5653    1.2135 H         1 <0>         0.0711
     34 H2         -0.7127    1.8125    0.0698 H         1 <0>         0.0704
     35 H3         -1.0500    1.2891    1.7373 H         1 <0>         0.0744
     36 H4         -0.6719   -4.6508   -0.8666 H         1 <0>         0.1395
     37 H5         -0.8355   -6.9479   -0.0113 H         1 <0>         0.1333
     38 H6         -0.6062   -7.3940    2.3936 H         1 <0>         0.1320
     39 H7         -0.0328   -3.2029    3.1175 H         1 <0>         0.1427
     40 H8         -0.0004   -4.7806    5.0444 H         1 <0>         0.1420
     41 H9         -0.4374   -7.6739    4.1322 H         1 <0>         0.1352
     42 H10        -0.3756   -9.1206    6.0976 H         1 <0>         0.4094
     43 H11        -0.1692   -9.5811    8.3361 H         1 <0>         0.3887
     44 H12         0.9890   -2.5182   -2.5382 H         1 <0>         0.0953
     45 H13         0.6479   -3.9060   -1.4772 H         1 <0>         0.1128
     46 H14        -1.7822   -3.6398   -1.9222 H         1 <0>         0.0877
     47 H15        -1.4293   -2.2671   -2.9990 H         1 <0>         0.0496
     48 H16        -0.4387   -2.6623   -5.1617 H         1 <0>         0.0481
     49 H17         0.9991   -3.2337   -4.2801 H         1 <0>         0.0861
     50 H18         0.9228   -4.0952   -6.6288 H         1 <0>         0.1004
     51 H19         0.8701   -5.4080   -5.4269 H         1 <0>         0.0620
     52 H20        -2.7190   -5.8965   -5.9010 H         1 <0>         0.1012
     53 H21        -1.3047   -6.4837   -4.9922 H         1 <0>         0.0624
     54 H22        -2.6940   -5.0604   -3.5419 H         1 <0>         0.0894
     55 H23        -2.6076   -3.7351   -4.7282 H         1 <0>         0.0469
     56 H24         2.1688   -0.7204   -2.4243 H         1 <0>         0.1186
     57 H25         2.5624    0.6801   -4.4075 H         1 <0>         0.1260
     58 H26         0.8921    2.3524   -5.0895 H         1 <0>         0.1253
     59 H27        -1.1794    2.6358   -3.7933 H         1 <0>         0.1276
     60 H28        -1.5977    1.2380   -1.8132 H         1 <0>         0.1265
@<TRIPOS>BOND
     1    1    2 1
     2    1   33 1
     3    1   34 1
     4    1   35 1
     5    2    6 1
     6    2    3 2
     7    3    4 1
     8    3   27 1
     9    4    5 1
    10    4   19 1
    11    5    6 2
    12    5    7 1
    13    7   12 ar
    14    7    8 ar
    15    8    9 ar
    16    8   36 1
    17    9   10 ar
    18    9   37 1
    19   10   11 ar
    20   10   38 1
    21   11   12 ar
    22   11   13 1
    23   12   39 1
    24   13   14 2
    25   13   40 1
    26   14   15 1
    27   14   41 1
    28   15   16 2
    29   15   17 am
    30   17   18 1
    31   17   42 1
    32   18   43 1
    33   19   20 1
    34   19   44 1
    35   19   45 1
    36   20   21 1
    37   20   46 1
    38   20   47 1
    39   21   26 1
    40   21   22 1
    41   22   23 1
    42   22   48 1
    43   22   49 1
    44   23   24 1
    45   23   50 1
    46   23   51 1
    47   24   25 1
    48   25   26 1
    49   25   52 1
    50   25   53 1
    51   26   54 1
    52   26   55 1
    53   27   32 ar
    54   27   28 ar
    55   28   29 ar
    56   28   56 1
    57   29   30 ar
    58   29   57 1
    59   30   31 ar
    60   30   58 1
    61   31   32 ar
    62   31   59 1
    63   32   60 1
@<TRIPOS>MOLECULE
CHEMBL1096034
   51    53     0     0     0
SMALL
USER_CHARGES

@<TRIPOS>ATOM
      1 C1          0.2220    1.5173   -0.0656 C.3       1 <0>        -0.1024
      2 C2          0.1088    0.0146   -0.0498 C.2       1 <0>         0.0513
      3 C3          0.0323   -0.7942   -1.1411 C.2       1 <0>         0.0955
      4 N1         -0.0584   -2.0831   -0.6667 N.pl3     1 <0>        -0.3985
      5 C4         -0.0341   -2.0124    0.6819 C.cat     1 <0>         0.3144
      6 N2          0.0713   -0.7609    1.0399 N.pl3     1 <0>        -0.4740
      7 C5         -0.1097   -3.1881    1.6216 C.3       1 <0>        -0.1147
      8 C6         -0.1622   -3.3020   -1.4727 C.3       1 <0>         0.0918
      9 C7         -1.6298   -3.5609   -1.8192 C.3       1 <0>        -0.0909
     10 C8         -1.7477   -4.8665   -2.5625 C.ar      1 <0>        -0.1036
     11 C9         -1.6530   -4.8877   -3.9415 C.ar      1 <0>        -0.1088
     12 C10        -1.7612   -6.0853   -4.6233 C.ar      1 <0>        -0.1135
     13 C11        -1.9636   -7.2617   -3.9263 C.ar      1 <0>        -0.1070
     14 C12        -2.0574   -7.2406   -2.5473 C.ar      1 <0>        -0.1140
     15 C13        -1.9449   -6.0436   -1.8651 C.ar      1 <0>        -0.1119
     16 C14         0.0444   -0.3715   -2.5587 C.ar      1 <0>        -0.0587
     17 C15         0.9756   -0.9192   -3.4443 C.ar      1 <0>        -0.0843
     18 C16         0.9895   -0.5267   -4.7683 C.ar      1 <0>        -0.1075
     19 C17         0.0846    0.4089   -5.2274 C.ar      1 <0>        -0.0742
     20 C18        -0.8535    0.9664   -4.3521 C.ar      1 <0>        -0.0582
     21 C19        -0.8760    0.5685   -3.0139 C.ar      1 <0>        -0.0620
     22 C20        -1.8184    1.9648   -4.8420 C.2       1 <0>        -0.0281
     23 C21        -1.7987    2.3429   -6.1357 C.2       1 <0>        -0.1820
     24 C22        -2.7584    3.3359   -6.6229 C.2       1 <0>         0.5559
     25 O1         -3.5737    3.8197   -5.8598 O.2       1 <0>        -0.5198
     26 N3         -2.7387    3.7140   -7.9163 N.am      1 <0>        -0.5900
     27 O2         -3.6667    4.6742   -8.3875 O.3       1 <0>        -0.3120
     28 H1          1.2739    1.8021   -0.0888 H         1 <0>         0.1025
     29 H2         -0.2804    1.9103   -0.9494 H         1 <0>         0.1051
     30 H3         -0.2454    1.9263    0.8301 H         1 <0>         0.0943
     31 H4          0.8967   -3.5490    1.8337 H         1 <0>         0.1228
     32 H5         -0.5888   -2.8803    2.5510 H         1 <0>         0.1192
     33 H6         -0.6918   -3.9856    1.1596 H         1 <0>         0.1153
     34 H7          0.4120   -3.1803   -2.3912 H         1 <0>         0.1227
     35 H8          0.2320   -4.1463   -0.9070 H         1 <0>         0.1229
     36 H9         -2.2163   -3.6108   -0.9018 H         1 <0>         0.0860
     37 H10        -2.0035   -2.7510   -2.4457 H         1 <0>         0.0896
     38 H11        -1.4948   -3.9686   -4.4861 H         1 <0>         0.1226
     39 H12        -1.6879   -6.1018   -5.7007 H         1 <0>         0.1283
     40 H13        -2.0488   -8.1973   -4.4590 H         1 <0>         0.1287
     41 H14        -2.2159   -8.1597   -2.0027 H         1 <0>         0.1286
     42 H15        -2.0145   -6.0275   -0.7874 H         1 <0>         0.1223
     43 H16         1.6871   -1.6515   -3.0923 H         1 <0>         0.1283
     44 H17         1.7123   -0.9537   -5.4478 H         1 <0>         0.1416
     45 H18         0.1010    0.7113   -6.2641 H         1 <0>         0.1404
     46 H19        -1.6008    0.9916   -2.3342 H         1 <0>         0.1389
     47 H20        -2.5419    2.3941   -4.1648 H         1 <0>         0.1446
     48 H21        -1.0752    1.9136   -6.8128 H         1 <0>         0.1374
     49 H22        -2.0889    3.3284   -8.5245 H         1 <0>         0.4107
     50 H23        -3.5753    4.8813   -9.3276 H         1 <0>         0.3931
     51 H24         0.1132   -0.4423    1.9551 H         1 <0>         0.4614
@<TRIPOS>BOND
     1    1    2 1
     2    1   28 1
     3    1   29 1
     4    1   30 1
     5    2    6 1
     6    2    3 2
     7    3    4 1
     8    3   16 1
     9    4    5 1
    10    4    8 1
    11    5    6 2
    12    5    7 1
    13    6   51 1
    14    7   31 1
    15    7   32 1
    16    7   33 1
    17    8    9 1
    18    8   34 1
    19    8   35 1
    20    9   10 1
    21    9   36 1
    22    9   37 1
    23   10   15 ar
    24   10   11 ar
    25   11   12 ar
    26   11   38 1
    27   12   13 ar
    28   12   39 1
    29   13   14 ar
    30   13   40 1
    31   14   15 ar
    32   14   41 1
    33   15   42 1
    34   16   21 ar
    35   16   17 ar
    36   17   18 ar
    37   17   43 1
    38   18   19 ar
    39   18   44 1
    40   19   20 ar
    41   19   45 1
    42   20   21 ar
    43   20   22 1
    44   21   46 1
    45   22   23 2
    46   22   47 1
    47   23   24 1
    48   23   48 1
    49   24   25 2
    50   24   26 am
    51   26   27 1
    52   26   49 1
    53   27   50 1
@<TRIPOS>MOLECULE
CHEMBL419758
   41    42     0     0     0
SMALL
USER_CHARGES

@<TRIPOS>ATOM
      1 C1         -0.0167    1.3791    0.0096 C.ar      1 <0>        -0.1141
      2 C2          1.1686    2.0922    0.0021 C.ar      1 <0>        -0.1235
      3 C3          2.3774    1.4265   -0.0135 C.ar      1 <0>        -0.0870
      4 C4          2.4024    0.0329   -0.0212 C.ar      1 <0>        -0.0261
      5 C5          1.2049   -0.6804   -0.0131 C.ar      1 <0>        -0.1041
      6 C6          0.0021   -0.0041    0.0020 C.ar      1 <0>        -0.1205
      7 C7          3.6983   -0.6882   -0.0385 C.2       1 <0>         0.1179
      8 C8          3.7272   -2.0550   -0.0513 C.2       1 <0>        -0.2401
      9 S1          5.4910   -2.3488   -0.0683 S.3       1 <0>         0.1179
     10 C9          6.0025   -0.6362   -0.0568 C.2       1 <0>         0.3153
     11 N1          4.8385   -0.0140   -0.0471 N.2       1 <0>        -0.5321
     12 N2          7.2851   -0.1016   -0.0623 N.am      1 <0>        -0.6117
     13 C10         8.3560   -0.9197   -0.0791 C.2       1 <0>         0.5136
     14 O1          8.2003   -2.1225   -0.0893 O.2       1 <0>        -0.4952
     15 C11         9.7471   -0.3400   -0.0851 C.3       1 <0>        -0.1321
     16 C12        10.7726   -1.4752   -0.1045 C.3       1 <0>        -0.1078
     17 C13        12.1849   -0.8867   -0.1106 C.3       1 <0>        -0.1195
     18 C14        13.2104   -2.0219   -0.1300 C.3       1 <0>        -0.1154
     19 C15        14.6227   -1.4333   -0.1360 C.3       1 <0>        -0.1047
     20 C16        15.6482   -2.5686   -0.1554 C.3       1 <0>        -0.0664
     21 S2         17.3226   -1.8707   -0.1627 S.3       1 <0>        -0.2572
     22 H1         -0.9603    1.9042    0.0260 H         1 <0>         0.1235
     23 H2          1.1480    3.1720    0.0081 H         1 <0>         0.1246
     24 H3          3.3022    1.9843   -0.0200 H         1 <0>         0.1310
     25 H4          1.2184   -1.7603   -0.0191 H         1 <0>         0.1249
     26 H5         -0.9264   -0.5557    0.0079 H         1 <0>         0.1261
     27 H6          2.9106   -2.7618   -0.0511 H         1 <0>         0.1991
     28 H7          7.4097    0.8603   -0.0541 H         1 <0>         0.4278
     29 H8          9.8774    0.2826   -0.9702 H         1 <0>         0.1059
     30 H9          9.8922    0.2655    0.8096 H         1 <0>         0.1059
     31 H10        10.6423   -2.0978    0.7807 H         1 <0>         0.0741
     32 H11        10.6275   -2.0807   -0.9991 H         1 <0>         0.0741
     33 H12        12.3152   -0.2641   -0.9957 H         1 <0>         0.0672
     34 H13        12.3300   -0.2812    0.7841 H         1 <0>         0.0672
     35 H14        13.0801   -2.6445    0.7552 H         1 <0>         0.0665
     36 H15        13.0653   -2.6274   -1.0246 H         1 <0>         0.0665
     37 H16        14.7530   -0.8108   -1.0212 H         1 <0>         0.0757
     38 H17        14.7678   -0.8278    0.7586 H         1 <0>         0.0757
     39 H18        15.5179   -3.1911    0.7297 H         1 <0>         0.0833
     40 H19        15.5031   -3.1741   -1.0501 H         1 <0>         0.0833
     41 H20        18.1249   -2.9501   -0.1797 H         1 <0>         0.0904
@<TRIPOS>BOND
     1    1    6 ar
     2    1    2 ar
     3    1   22 1
     4    2    3 ar
     5    2   23 1
     6    3    4 ar
     7    3   24 1
     8    4    5 ar
     9    4    7 1
    10    5    6 ar
    11    5   25 1
    12    6   26 1
    13    7   11 1
    14    7    8 2
    15    8    9 1
    16    8   27 1
    17    9   10 1
    18   10   11 2
    19   10   12 1
    20   12   13 am
    21   12   28 1
    22   13   14 2
    23   13   15 1
    24   15   16 1
    25   15   29 1
    26   15   30 1
    27   16   17 1
    28   16   31 1
    29   16   32 1
    30   17   18 1
    31   17   33 1
    32   17   34 1
    33   18   19 1
    34   18   35 1
    35   18   36 1
    36   19   20 1
    37   19   37 1
    38   19   38 1
    39   20   21 1
    40   20   39 1
    41   20   40 1
    42   21   41 1
@<TRIPOS>MOLECULE
CHEMBL487107
   62    64     0     0     0
SMALL
USER_CHARGES

@<TRIPOS>ATOM
      1 C1          0.5558    0.6961   -0.8416 C.ar      1 <0>        -0.0896
      2 C2          1.4214    1.7480   -0.6180 C.ar      1 <0>        -0.1436
      3 C3          2.7162    1.5009   -0.1614 C.ar      1 <0>         0.0012
      4 C4          3.1316    0.1901    0.0675 C.ar      1 <0>        -0.1203
      5 C5          2.2555   -0.8596   -0.1599 C.ar      1 <0>         0.1560
      6 C6          0.9674   -0.6035   -0.6148 C.ar      1 <0>        -0.1110
      7 N1          2.6681   -2.1773    0.0681 N.am      1 <0>        -0.6777
      8 C7          1.7935   -3.0839    0.5473 C.2       1 <0>         0.5140
      9 O1          0.6288   -2.7816    0.6992 O.2       1 <0>        -0.5161
     10 C8          2.2627   -4.4733    0.8943 C.3       1 <0>        -0.1403
     11 C9          1.0813   -5.2961    1.4121 C.3       1 <0>        -0.1054
     12 C10         1.5577   -6.7067    1.7645 C.3       1 <0>        -0.1209
     13 C11         0.3763   -7.5296    2.2823 C.3       1 <0>        -0.1197
     14 C12         0.8527   -8.9402    2.6346 C.3       1 <0>        -0.1063
     15 C13        -0.3286   -9.7630    3.1525 C.3       1 <0>        -0.1272
     16 C14         0.1406  -11.1524    3.4995 C.2       1 <0>         0.5211
     17 O2          1.3053  -11.4547    3.3476 O.2       1 <0>        -0.5194
     18 N2         -0.7340  -12.0590    3.9787 N.am      1 <0>        -0.6001
     19 O3         -0.2931  -13.3645    4.3048 O.3       1 <0>        -0.3207
     20 C15         3.6463    2.6271    0.0787 C.2       1 <0>         0.0174
     21 C16         4.7600    2.6227    0.8708 C.2       1 <0>        -0.0265
     22 N3          5.2865    3.8469    0.7872 N.2       1 <0>        -0.2666
     23 N4          4.5641    4.5675    0.0054 N.2       1 <0>        -0.0604
     24 N5          3.5726    3.8849   -0.4504 N.pl3     1 <0>        -0.2799
     25 C17         2.5435    4.3720   -1.3723 C.3       1 <0>         0.0734
     26 C18         1.4542    5.0999   -0.5821 C.3       1 <0>         0.1378
     27 C19         0.3711    5.5579   -1.5246 C.ar      1 <0>        -0.1198
     28 C20         0.5494    6.7035   -2.2779 C.ar      1 <0>        -0.0920
     29 C21        -0.4436    7.1242   -3.1425 C.ar      1 <0>        -0.1054
     30 C22        -1.6155    6.3996   -3.2543 C.ar      1 <0>        -0.0821
     31 C23        -1.7941    5.2533   -2.5013 C.ar      1 <0>        -0.0868
     32 C24        -0.7978    4.8298   -1.6400 C.ar      1 <0>        -0.0774
     33 Br1        -3.3973    4.2621   -2.6534 Br        1 <0>        -0.0396
     34 O4          2.0214    6.2330    0.0784 O.3       1 <0>        -0.5330
     35 H1         -0.4477    0.8897   -1.1908 H         1 <0>         0.1335
     36 H2          1.0963    2.7622   -0.7968 H         1 <0>         0.1233
     37 H3          4.1331   -0.0069    0.4207 H         1 <0>         0.1349
     38 H4          0.2860   -1.4226   -0.7911 H         1 <0>         0.1442
     39 H5          3.5835   -2.4381   -0.1188 H         1 <0>         0.4140
     40 H6          2.6756   -4.9500    0.0052 H         1 <0>         0.0987
     41 H7          3.0309   -4.4154    1.6654 H         1 <0>         0.0993
     42 H8          0.6685   -4.8194    2.3012 H         1 <0>         0.0715
     43 H9          0.3131   -5.3541    0.6410 H         1 <0>         0.0713
     44 H10         1.9706   -7.1834    0.8754 H         1 <0>         0.0653
     45 H11         2.3259   -6.6488    2.5356 H         1 <0>         0.0655
     46 H12        -0.0365   -7.0529    3.1714 H         1 <0>         0.0655
     47 H13        -0.3919   -7.5875    1.5112 H         1 <0>         0.0653
     48 H14         1.2656   -9.4169    1.7456 H         1 <0>         0.0729
     49 H15         1.6209   -8.8822    3.4058 H         1 <0>         0.0730
     50 H16        -0.7415   -9.2863    4.0415 H         1 <0>         0.0995
     51 H17        -1.0968   -9.8210    2.3814 H         1 <0>         0.0994
     52 H18        -1.6655  -11.8172    4.1002 H         1 <0>         0.4082
     53 H19        -0.9914  -13.9431    4.6405 H         1 <0>         0.3878
     54 H20         5.1390    1.7935    1.4498 H         1 <0>         0.1921
     55 H21         2.9934    5.0593   -2.0887 H         1 <0>         0.1156
     56 H22         2.1040    3.5285   -1.9048 H         1 <0>         0.1237
     57 H23         1.0288    4.4228    0.1586 H         1 <0>         0.1188
     58 H24         1.4647    7.2701   -2.1905 H         1 <0>         0.1314
     59 H25        -0.3040    8.0193   -3.7304 H         1 <0>         0.1384
     60 H26        -2.3917    6.7287   -3.9293 H         1 <0>         0.1376
     61 H27        -0.9353    3.9327   -1.0545 H         1 <0>         0.1360
     62 H28         2.4193    6.8792   -0.5209 H         1 <0>         0.3801
@<TRIPOS>BOND
     1    1    6 ar
     2    1    2 ar
     3    1   35 1
     4    2    3 ar
     5    2   36 1
     6    3    4 ar
     7    3   20 1
     8    4    5 ar
     9    4   37 1
    10    5    6 ar
    11    5    7 1
    12    6   38 1
    13    7    8 am
    14    7   39 1
    15    8    9 2
    16    8   10 1
    17   10   11 1
    18   10   40 1
    19   10   41 1
    20   11   12 1
    21   11   42 1
    22   11   43 1
    23   12   13 1
    24   12   44 1
    25   12   45 1
    26   13   14 1
    27   13   46 1
    28   13   47 1
    29   14   15 1
    30   14   48 1
    31   14   49 1
    32   15   16 1
    33   15   50 1
    34   15   51 1
    35   16   17 2
    36   16   18 am
    37   18   19 1
    38   18   52 1
    39   19   53 1
    40   20   24 1
    41   20   21 2
    42   21   22 1
    43   21   54 1
    44   22   23 2
    45   23   24 1
    46   24   25 1
    47   25   26 1
    48   25   55 1
    49   25   56 1
    50   26   27 1
    51   26   34 1
    52   26   57 1
    53   27   32 ar
    54   27   28 ar
    55   28   29 ar
    56   28   58 1
    57   29   30 ar
    58   29   59 1
    59   30   31 ar
    60   30   60 1
    61   31   32 ar
    62   31   33 1
    63   32   61 1
    64   34   62 1
@<TRIPOS>MOLECULE
CHEMBL487107__1
   62    64     0     0     0
SMALL
USER_CHARGES

@<TRIPOS>ATOM
      1 C1          0.3736    1.5944    0.1166 C.ar      1 <0>        -0.0917
      2 C2          1.4430    2.4605    0.2262 C.ar      1 <0>        -0.1448
      3 C3          2.6523    2.0121    0.7577 C.ar      1 <0>         0.0083
      4 C4          2.7762    0.6886    1.1770 C.ar      1 <0>        -0.1155
      5 C5          1.6971   -0.1739    1.0631 C.ar      1 <0>         0.1577
      6 C6          0.4963    0.2821    0.5322 C.ar      1 <0>        -0.1131
      7 N1          1.8167   -1.5037    1.4823 N.am      1 <0>        -0.6771
      8 C7          0.7607   -2.1342    2.0334 C.2       1 <0>         0.5148
      9 O1         -0.3135   -1.5747    2.0982 O.2       1 <0>        -0.5169
     10 C8          0.9146   -3.5342    2.5693 C.3       1 <0>        -0.1410
     11 C9         -0.4234   -4.0135    3.1357 C.3       1 <0>        -0.1050
     12 C10        -0.2672   -5.4350    3.6797 C.3       1 <0>        -0.1211
     13 C11        -1.6052   -5.9142    4.2461 C.3       1 <0>        -0.1196
     14 C12        -1.4490   -7.3357    4.7901 C.3       1 <0>        -0.1064
     15 C13        -2.7870   -7.8149    5.3565 C.3       1 <0>        -0.1271
     16 C14        -2.6331   -9.2150    5.8924 C.2       1 <0>         0.5210
     17 O2         -1.5590   -9.7744    5.8277 O.2       1 <0>        -0.5193
     18 N2         -3.6891   -9.8455    6.4435 N.am      1 <0>        -0.6002
     19 O3         -3.5445  -11.1610    6.9471 O.3       1 <0>        -0.3207
     20 C15         3.8004    2.9389    0.8757 C.2       1 <0>         0.0310
     21 C16         5.1230    2.6395    0.7059 C.2       1 <0>        -0.0301
     22 N3          5.7952    3.7755    0.9072 N.2       1 <0>        -0.2641
     23 N4          4.9648    4.7174    1.1822 N.2       1 <0>        -0.0756
     24 N5          3.7571    4.2724    1.1713 N.pl3     1 <0>        -0.2803
     25 C17         2.5481    5.0572    1.4330 C.3       1 <0>         0.0738
     26 C18         2.1994    4.9760    2.9206 C.3       1 <0>         0.1402
     27 C19         1.0295    5.8800    3.2124 C.ar      1 <0>        -0.1174
     28 C20        -0.2615    5.4216    3.0261 C.ar      1 <0>        -0.0918
     29 C21        -1.3349    6.2503    3.2936 C.ar      1 <0>        -0.1066
     30 C22        -1.1180    7.5379    3.7476 C.ar      1 <0>        -0.0829
     31 C23         0.1732    7.9967    3.9345 C.ar      1 <0>        -0.0877
     32 C24         1.2472    7.1651    3.6716 C.ar      1 <0>        -0.0753
     33 Br1         0.4706    9.7581    4.5548 Br        1 <0>        -0.0407
     34 O4          1.8568    3.6300    3.2567 O.3       1 <0>        -0.5363
     35 H1         -0.5632    1.9446   -0.2910 H         1 <0>         0.1331
     36 H2          1.3435    3.4853   -0.1000 H         1 <0>         0.1233
     37 H3          3.7103    0.3360    1.5890 H         1 <0>         0.1339
     38 H4         -0.3437   -0.3911    0.4445 H         1 <0>         0.1443
     39 H5          2.6597   -1.9717    1.3761 H         1 <0>         0.4143
     40 H6          1.2274   -4.1991    1.7642 H         1 <0>         0.0989
     41 H7          1.6664   -3.5406    3.3585 H         1 <0>         0.0992
     42 H8         -0.7362   -3.3487    3.9408 H         1 <0>         0.0713
     43 H9         -1.1752   -4.0071    2.3465 H         1 <0>         0.0712
     44 H10         0.0456   -6.0998    2.8746 H         1 <0>         0.0654
     45 H11         0.4846   -5.4413    4.4689 H         1 <0>         0.0654
     46 H12        -1.9180   -5.2494    5.0512 H         1 <0>         0.0653
     47 H13        -2.3570   -5.9079    3.4569 H         1 <0>         0.0653
     48 H14        -1.1362   -8.0005    3.9850 H         1 <0>         0.0730
     49 H15        -0.6972   -7.3420    5.5794 H         1 <0>         0.0730
     50 H16        -3.0998   -7.1501    6.1616 H         1 <0>         0.0994
     51 H17        -3.5388   -7.8086    4.5673 H         1 <0>         0.0994
     52 H18        -4.5482   -9.3981    6.4953 H         1 <0>         0.4082
     53 H19        -4.3557  -11.5298    7.3227 H         1 <0>         0.3878
     54 H20         5.5416    1.6752    0.4582 H         1 <0>         0.1923
     55 H21         2.7231    6.0971    1.1571 H         1 <0>         0.1231
     56 H22         1.7219    4.6591    0.8439 H         1 <0>         0.1158
     57 H23         3.0586    5.2909    3.5128 H         1 <0>         0.1228
     58 H24        -0.4313    4.4158    2.6712 H         1 <0>         0.1287
     59 H25        -2.3432    5.8919    3.1477 H         1 <0>         0.1377
     60 H26        -1.9568    8.1855    3.9559 H         1 <0>         0.1371
     61 H27         2.2556    7.5217    3.8210 H         1 <0>         0.1375
     62 H28         1.1410    3.2609    2.7214 H         1 <0>         0.3745
@<TRIPOS>BOND
     1    1    6 ar
     2    1    2 ar
     3    1   35 1
     4    2    3 ar
     5    2   36 1
     6    3    4 ar
     7    3   20 1
     8    4    5 ar
     9    4   37 1
    10    5    6 ar
    11    5    7 1
    12    6   38 1
    13    7    8 am
    14    7   39 1
    15    8    9 2
    16    8   10 1
    17   10   11 1
    18   10   40 1
    19   10   41 1
    20   11   12 1
    21   11   42 1
    22   11   43 1
    23   12   13 1
    24   12   44 1
    25   12   45 1
    26   13   14 1
    27   13   46 1
    28   13   47 1
    29   14   15 1
    30   14   48 1
    31   14   49 1
    32   15   16 1
    33   15   50 1
    34   15   51 1
    35   16   17 2
    36   16   18 am
    37   18   19 1
    38   18   52 1
    39   19   53 1
    40   20   24 1
    41   20   21 2
    42   21   22 1
    43   21   54 1
    44   22   23 2
    45   23   24 1
    46   24   25 1
    47   25   26 1
    48   25   55 1
    49   25   56 1
    50   26   27 1
    51   26   34 1
    52   26   57 1
    53   27   32 ar
    54   27   28 ar
    55   28   29 ar
    56   28   58 1
    57   29   30 ar
    58   29   59 1
    59   30   31 ar
    60   30   60 1
    61   31   32 ar
    62   31   33 1
    63   32   61 1
    64   34   62 1
@<TRIPOS>MOLECULE
CHEMBL317734
   74    76     0     0     0
SMALL
USER_CHARGES

@<TRIPOS>ATOM
      1 C1          0.7222   -0.3746   -1.2567 C.3       1 <0>        -0.1467
      2 C2          0.0159    0.0008    0.0476 C.3       1 <0>        -0.1071
      3 C3          0.0096    1.5228    0.2044 C.3       1 <0>        -0.1454
      4 C4         -1.4243   -0.5145    0.0143 C.3       1 <0>        -0.0981
      5 C5         -1.4185   -2.0444    0.0033 C.3       1 <0>        -0.1144
      6 H1         -0.7598   -2.4198   -0.7798 H         1 <0>         0.1255
      7 C6         -1.0046   -2.5875    1.3563 C.2       1 <0>         0.5394
      8 O1          0.0649   -2.3950    1.8936 O.2       1 <0>        -0.4608
      9 N1         -2.0096   -3.3142    1.8645 N.am      1 <0>        -0.5537
     10 C7         -3.0968   -3.3812    1.0807 C.2       1 <0>         0.5437
     11 O2         -4.1177   -3.9812    1.3403 O.2       1 <0>        -0.4734
     12 C8         -2.8405   -2.5900   -0.1775 C.3       1 <0>        -0.0920
     13 C9         -3.8501   -1.4458   -0.3345 C.3       1 <0>        -0.1204
     14 C10        -4.0663   -1.3448   -1.8670 C.3       1 <0>        -0.1210
     15 C11        -4.0273   -2.8266   -2.3192 C.3       1 <0>        -0.1222
     16 C12        -2.9402   -3.4670   -1.4274 C.3       1 <0>        -0.1023
     17 C13        -1.9278   -3.9805    3.1667 C.3       1 <0>         0.1176
     18 H2         -2.8610   -4.5077    3.3643 H         1 <0>         0.1300
     19 C14        -0.7696   -4.9801    3.1562 C.3       1 <0>        -0.0910
     20 C15        -1.0616   -6.0769    2.1648 C.ar      1 <0>        -0.0879
     21 C16        -1.7400   -7.2115    2.5692 C.ar      1 <0>        -0.1107
     22 C17        -2.0079   -8.2176    1.6599 C.ar      1 <0>        -0.1141
     23 C18        -1.5979   -8.0889    0.3460 C.ar      1 <0>        -0.1167
     24 C19        -0.9203   -6.9539   -0.0586 C.ar      1 <0>        -0.1156
     25 C20        -0.6562   -5.9460    0.8498 C.ar      1 <0>        -0.1119
     26 C21        -1.6940   -2.9522    4.2433 C.2       1 <0>         0.5107
     27 O3         -1.6046   -1.7784    3.9515 O.2       1 <0>        -0.5150
     28 N2         -1.5844   -3.3370    5.5303 N.am      1 <0>        -0.7261
     29 C22        -1.3572   -2.3373    6.5768 C.3       1 <0>         0.1202
     30 C23        -1.2717   -3.0331    7.9368 C.3       1 <0>        -0.1325
     31 C24        -1.0344   -1.9892    9.0298 C.3       1 <0>        -0.1163
     32 C25        -0.9489   -2.6850   10.3897 C.3       1 <0>        -0.1053
     33 C26        -0.7116   -1.6410   11.4828 C.3       1 <0>        -0.1273
     34 C27        -0.6274   -2.3263   12.8223 C.2       1 <0>         0.5213
     35 O4         -0.7456   -3.5312   12.8955 O.2       1 <0>        -0.5194
     36 N3         -0.4208   -1.6004   13.9389 N.am      1 <0>        -0.5999
     37 O5         -0.3417   -2.2444   15.1975 O.3       1 <0>        -0.3203
     38 H3          1.7482   -0.0075   -1.2330 H         1 <0>         0.0554
     39 H4          0.7267   -1.4588   -1.3684 H         1 <0>         0.0522
     40 H5          0.1948    0.0751   -2.0979 H         1 <0>         0.0545
     41 H6          0.5434   -0.4489    0.8888 H         1 <0>         0.0874
     42 H7         -0.4394    1.9771   -0.6788 H         1 <0>         0.0536
     43 H8         -0.5693    1.7947    1.0870 H         1 <0>         0.0538
     44 H9          1.0330    1.8807    0.3167 H         1 <0>         0.0552
     45 H10        -1.9577   -0.1595    0.8961 H         1 <0>         0.0735
     46 H11        -1.9211   -0.1466   -0.8834 H         1 <0>         0.0872
     47 H12        -4.7859   -1.6900    0.1683 H         1 <0>         0.0781
     48 H13        -3.4372   -0.5154    0.0554 H         1 <0>         0.0934
     49 H14        -5.0349   -0.8982   -2.0915 H         1 <0>         0.0740
     50 H15        -3.2611   -0.7775   -2.3337 H         1 <0>         0.0732
     51 H16        -4.9920   -3.3036   -2.1466 H         1 <0>         0.0711
     52 H17        -3.7484   -2.8972   -3.3706 H         1 <0>         0.0726
     53 H18        -1.9851   -3.4808   -1.9525 H         1 <0>         0.0792
     54 H19        -3.2313   -4.4806   -1.1516 H         1 <0>         0.0745
     55 H20         0.1496   -4.4683    2.8713 H         1 <0>         0.0986
     56 H21        -0.6524   -5.4109    4.1506 H         1 <0>         0.0948
     57 H22        -2.0603   -7.3120    3.5957 H         1 <0>         0.1231
     58 H23        -2.5373   -9.1043    1.9760 H         1 <0>         0.1242
     59 H24        -1.8066   -8.8752   -0.3643 H         1 <0>         0.1232
     60 H25        -0.5997   -6.8536   -1.0850 H         1 <0>         0.1230
     61 H26        -0.1301   -5.0576    0.5328 H         1 <0>         0.1132
     62 H27        -1.6559   -4.2758    5.7636 H         1 <0>         0.4018
     63 H28        -0.4239   -1.8101    6.3792 H         1 <0>         0.0707
     64 H29        -2.1823   -1.6251    6.5843 H         1 <0>         0.0690
     65 H30        -2.2050   -3.5604    8.1344 H         1 <0>         0.0725
     66 H31        -0.4466   -3.7453    7.9293 H         1 <0>         0.0729
     67 H32        -0.1011   -1.4619    8.8322 H         1 <0>         0.0692
     68 H33        -1.8595   -1.2770    9.0373 H         1 <0>         0.0688
     69 H34        -1.8822   -3.2123   10.5874 H         1 <0>         0.0742
     70 H35        -0.1238   -3.3972   10.3823 H         1 <0>         0.0744
     71 H36         0.2217   -1.1137   11.2851 H         1 <0>         0.1003
     72 H37        -1.5368   -0.9288   11.4902 H         1 <0>         0.1001
     73 H38        -0.3263   -0.6368   13.8803 H         1 <0>         0.4084
     74 H39        -0.1919   -1.6419   15.9388 H         1 <0>         0.3880
@<TRIPOS>BOND
     1    1    2 1
     2    1   38 1
     3    1   39 1
     4    1   40 1
     5    2    3 1
     6    2    4 1
     7    2   41 1
     8    3   42 1
     9    3   43 1
    10    3   44 1
    11    4    5 1
    12    4   45 1
    13    4   46 1
    14    5    6 1
    15    5   12 1
    16    5    7 1
    17    7    8 2
    18    7    9 am
    19    9   10 am
    20    9   17 1
    21   10   11 2
    22   10   12 1
    23   12   16 1
    24   12   13 1
    25   13   14 1
    26   13   47 1
    27   13   48 1
    28   14   15 1
    29   14   49 1
    30   14   50 1
    31   15   16 1
    32   15   51 1
    33   15   52 1
    34   16   53 1
    35   16   54 1
    36   17   18 1
    37   17   19 1
    38   17   26 1
    39   19   20 1
    40   19   55 1
    41   19   56 1
    42   20   25 ar
    43   20   21 ar
    44   21   22 ar
    45   21   57 1
    46   22   23 ar
    47   22   58 1
    48   23   24 ar
    49   23   59 1
    50   24   25 ar
    51   24   60 1
    52   25   61 1
    53   26   27 2
    54   26   28 am
    55   28   29 1
    56   28   62 1
    57   29   30 1
    58   29   63 1
    59   29   64 1
    60   30   31 1
    61   30   65 1
    62   30   66 1
    63   31   32 1
    64   31   67 1
    65   31   68 1
    66   32   33 1
    67   32   69 1
    68   32   70 1
    69   33   34 1
    70   33   71 1
    71   33   72 1
    72   34   35 2
    73   34   36 am
    74   36   37 1
    75   36   73 1
    76   37   74 1
@<TRIPOS>MOLECULE
CHEMBL342474
   46    47     0     0     0
SMALL
USER_CHARGES

@<TRIPOS>ATOM
      1 C1         -0.0167    1.3781    0.0096 C.ar      1 <0>        -0.1128
      2 C2          1.1709    2.0855    0.0021 C.ar      1 <0>        -0.1154
      3 C3          2.3773    1.4107   -0.0130 C.ar      1 <0>        -0.1155
      4 C4          2.3960    0.0285   -0.0201 C.ar      1 <0>        -0.1020
      5 C5          1.2084   -0.6789   -0.0117 C.ar      1 <0>        -0.1156
      6 C6          0.0021   -0.0041    0.0020 C.ar      1 <0>        -0.1155
      7 C7          3.7112   -0.7071   -0.0376 C.3       1 <0>        -0.0727
      8 C8          4.1714   -0.9633    1.3989 C.3       1 <0>        -0.1453
      9 C9          5.5066   -1.7102    1.3812 C.3       1 <0>        -0.0109
     10 N1          5.9484   -1.9561    2.7604 N.4       1 <0>        -0.5094
     11 C10         7.2304   -2.6732    2.7434 C.3       1 <0>         0.0457
     12 C11         7.6836   -2.9255    4.1583 C.ar      1 <0>        -0.1630
     13 C12         8.4722   -1.9903    4.8057 C.ar      1 <0>        -0.0899
     14 C13         8.8913   -2.2141    6.1001 C.ar      1 <0>        -0.0929
     15 C14         8.5172   -3.3895    6.7589 C.ar      1 <0>        -0.0285
     16 C15         7.7200   -4.3293    6.0982 C.ar      1 <0>        -0.1042
     17 C16         7.3045   -4.0886    4.8055 C.ar      1 <0>        -0.0900
     18 C17         8.9607   -3.6364    8.1407 C.2       1 <0>        -0.0372
     19 C18         8.5981   -4.7707    8.7725 C.2       1 <0>        -0.1732
     20 C19         9.0393   -5.0163   10.1469 C.2       1 <0>         0.5537
     21 O1          9.7334   -4.1964   10.7189 O.2       1 <0>        -0.5155
     22 N2          8.6767   -6.1503   10.7786 N.am      1 <0>        -0.5900
     23 O2          9.1034   -6.3878   12.1078 O.3       1 <0>        -0.3107
     24 H1         -0.9591    1.9053    0.0259 H         1 <0>         0.1267
     25 H2          1.1563    3.1654    0.0076 H         1 <0>         0.1263
     26 H3          3.3051    1.9634   -0.0196 H         1 <0>         0.1216
     27 H4          1.2231   -1.7588   -0.0176 H         1 <0>         0.1214
     28 H5         -0.9258   -0.5567    0.0082 H         1 <0>         0.1262
     29 H6          3.5884   -1.6586   -0.5549 H         1 <0>         0.0831
     30 H7          4.4573   -0.1052   -0.5563 H         1 <0>         0.0832
     31 H8          4.2941   -0.0118    1.9163 H         1 <0>         0.0890
     32 H9          3.4252   -1.5652    1.9176 H         1 <0>         0.0888
     33 H10         5.3838   -2.6617    0.8639 H         1 <0>         0.1334
     34 H11         6.2527   -1.1082    0.8625 H         1 <0>         0.1336
     35 H12         6.0621   -1.0753    3.2393 H         1 <0>         0.4280
     36 H13         7.1076   -3.6247    2.2261 H         1 <0>         0.1389
     37 H14         7.9765   -2.0713    2.2247 H         1 <0>         0.1392
     38 H15         8.7602   -1.0830    4.2955 H         1 <0>         0.1365
     39 H16         9.5071   -1.4837    6.6038 H         1 <0>         0.1434
     40 H17         7.4273   -5.2396    6.6003 H         1 <0>         0.1402
     41 H18         6.6852   -4.8115    4.2954 H         1 <0>         0.1356
     42 H19         9.5767   -2.9088    8.6482 H         1 <0>         0.1477
     43 H20         7.9821   -5.4982    8.2649 H         1 <0>         0.1369
     44 H21         8.1235   -6.8037   10.3227 H         1 <0>         0.4101
     45 H22         8.7938   -7.2265   12.4763 H         1 <0>         0.3933
     46 H23         5.2577   -2.5133    3.2406 H         1 <0>         0.4276
@<TRIPOS>BOND
     1    1    6 ar
     2    1    2 ar
     3    1   24 1
     4    2    3 ar
     5    2   25 1
     6    3    4 ar
     7    3   26 1
     8    4    5 ar
     9    4    7 1
    10    5    6 ar
    11    5   27 1
    12    6   28 1
    13    7    8 1
    14    7   29 1
    15    7   30 1
    16    8    9 1
    17    8   31 1
    18    8   32 1
    19    9   10 1
    20    9   33 1
    21    9   34 1
    22   10   11 1
    23   10   35 1
    24   10   46 1
    25   11   12 1
    26   11   36 1
    27   11   37 1
    28   12   17 ar
    29   12   13 ar
    30   13   14 ar
    31   13   38 1
    32   14   15 ar
    33   14   39 1
    34   15   16 ar
    35   15   18 1
    36   16   17 ar
    37   16   40 1
    38   17   41 1
    39   18   19 2
    40   18   42 1
    41   19   20 1
    42   19   43 1
    43   20   21 2
    44   20   22 am
    45   22   23 1
    46   22   44 1
    47   23   45 1
@<TRIPOS>MOLECULE
CHEMBL156887
   33    35     0     0     0
SMALL
USER_CHARGES

@<TRIPOS>ATOM
      1 C1         -0.0164    1.3570    0.0095 C.ar      1 <0>        -0.1153
      2 C2          1.1684    2.0899    0.0021 C.ar      1 <0>        -0.1107
      3 C3          2.3786    1.4647   -0.0128 C.ar      1 <0>        -0.1147
      4 C4          2.4364    0.0638   -0.0209 C.ar      1 <0>        -0.0350
      5 C5          1.2330   -0.6830   -0.0134 C.ar      1 <0>        -0.0523
      6 C6          0.0021   -0.0041    0.0020 C.ar      1 <0>        -0.1047
      7 C7          1.2894   -2.0872   -0.0210 C.ar      1 <0>        -0.0972
      8 C8          2.4947   -2.7221   -0.0355 C.ar      1 <0>        -0.1173
      9 C9          3.6852   -2.0048   -0.0425 C.ar      1 <0>        -0.0952
     10 C10         3.6757   -0.6203   -0.0359 C.ar      1 <0>        -0.0495
     11 C11         4.9476    0.1364   -0.0444 C.ar      1 <0>        -0.0114
     12 C12         5.1389    1.1696   -0.9642 C.ar      1 <0>        -0.1136
     13 C13         6.3213    1.8735   -0.9726 C.ar      1 <0>        -0.0510
     14 C14         7.3306    1.5545   -0.0601 C.ar      1 <0>        -0.1257
     15 C15         7.1384    0.5208    0.8604 C.ar      1 <0>        -0.0839
     16 C16         5.9537   -0.1793    0.8711 C.ar      1 <0>        -0.1111
     17 C17         8.5999    2.3093   -0.0690 C.2       1 <0>         0.5716
     18 O1          8.7670    3.2083   -0.8701 O.2       1 <0>        -0.5138
     19 N1          9.5731    2.0014    0.8112 N.am      1 <0>        -0.5937
     20 O2         10.7902    2.7251    0.8027 O.3       1 <0>        -0.3125
     21 H1         -0.9632    1.8763    0.0259 H         1 <0>         0.1250
     22 H2          1.1268    3.1691    0.0080 H         1 <0>         0.1251
     23 H3          3.2892    2.0453   -0.0188 H         1 <0>         0.1315
     24 H4         -0.9241   -0.5595    0.0082 H         1 <0>         0.1290
     25 H5          0.3761   -2.6637   -0.0151 H         1 <0>         0.1292
     26 H6          2.5257   -3.8017   -0.0412 H         1 <0>         0.1278
     27 H7          4.6272   -2.5329   -0.0537 H         1 <0>         0.1275
     28 H8          4.3588    1.4160   -1.6693 H         1 <0>         0.1374
     29 H9          6.4694    2.6721   -1.6844 H         1 <0>         0.1433
     30 H10         7.9180    0.2738    1.5658 H         1 <0>         0.1285
     31 H11         5.8035   -0.9755    1.5851 H         1 <0>         0.1349
     32 H12         9.4398    1.2841    1.4504 H         1 <0>         0.4078
     33 H13        11.4264    2.4324    1.4695 H         1 <0>         0.3899
@<TRIPOS>BOND
     1    1    6 ar
     2    1    2 ar
     3    1   21 1
     4    2    3 ar
     5    2   22 1
     6    3    4 ar
     7    3   23 1
     8    4   10 ar
     9    4    5 ar
    10    5    6 ar
    11    5    7 ar
    12    6   24 1
    13    7    8 ar
    14    7   25 1
    15    8    9 ar
    16    8   26 1
    17    9   10 ar
    18    9   27 1
    19   10   11 1
    20   11   16 ar
    21   11   12 ar
    22   12   13 ar
    23   12   28 1
    24   13   14 ar
    25   13   29 1
    26   14   15 ar
    27   14   17 1
    28   15   16 ar
    29   15   30 1
    30   16   31 1
    31   17   18 2
    32   17   19 am
    33   19   20 1
    34   19   32 1
    35   20   33 1
@<TRIPOS>MOLECULE
CHEMBL140530
   44    46     0     0     0
SMALL
USER_CHARGES

@<TRIPOS>ATOM
      1 C1         -0.0165    1.3620    0.0095 C.ar      1 <0>        -0.1202
      2 C2          1.1697    2.0834    0.0021 C.ar      1 <0>        -0.0902
      3 C3          2.3856    1.4362   -0.0134 C.ar      1 <0>        -0.1153
      4 C4          2.4281    0.0456   -0.0212 C.ar      1 <0>         0.0925
      5 C5          1.2234   -0.6807   -0.0132 C.ar      1 <0>        -0.0966
      6 C6          0.0021   -0.0041    0.0020 C.ar      1 <0>        -0.0935
      7 C7          1.6036   -2.0953   -0.0245 C.2       1 <0>        -0.2687
      8 C8          2.9451   -2.1410   -0.0380 C.2       1 <0>         0.1247
      9 N1          3.4551   -0.8713   -0.0363 N.pl3     1 <0>        -0.5786
     10 H1          4.3995   -0.6501   -0.0442 H         1 <0>         0.4283
     11 C9          0.6664   -3.2754   -0.0210 C.3       1 <0>         0.0856
     12 N2          0.1596   -3.5022   -1.3811 N.4       1 <0>        -0.5093
     13 C10        -0.7539   -4.6526   -1.3777 C.3       1 <0>         0.0439
     14 C11        -1.2739   -4.8852   -2.7729 C.ar      1 <0>        -0.1594
     15 C12        -2.4321   -4.2529   -3.1903 C.ar      1 <0>        -0.0901
     16 C13        -2.9144   -4.4610   -4.4652 C.ar      1 <0>        -0.0925
     17 C14        -2.2298   -5.3132   -5.3373 C.ar      1 <0>        -0.0310
     18 C15        -1.0601   -5.9481   -4.9083 C.ar      1 <0>        -0.1042
     19 C16        -0.5876   -5.7257   -3.6321 C.ar      1 <0>        -0.0908
     20 C17        -2.7383   -5.5412   -6.6999 C.2       1 <0>        -0.0352
     21 C18        -2.0756   -6.3634   -7.5378 C.2       1 <0>        -0.1755
     22 C19        -2.5813   -6.5902   -8.8931 C.2       1 <0>         0.5541
     23 O1         -3.5998   -6.0364   -9.2631 O.2       1 <0>        -0.5158
     24 N3         -1.9188   -7.4123   -9.7308 N.am      1 <0>        -0.5903
     25 O2         -2.4078   -7.6316  -11.0415 O.3       1 <0>        -0.3110
     26 H2         -0.9613    1.8849    0.0259 H         1 <0>         0.1316
     27 H3          1.1388    3.1630    0.0081 H         1 <0>         0.1355
     28 H4          3.3028    2.0064   -0.0198 H         1 <0>         0.1294
     29 H5         -0.9246   -0.5587    0.0082 H         1 <0>         0.1212
     30 H6          3.5346   -3.0459   -0.0490 H         1 <0>         0.1818
     31 H7          1.2002   -4.1623    0.3203 H         1 <0>         0.1351
     32 H8         -0.1692   -3.0739    0.6492 H         1 <0>         0.1349
     33 H9         -0.3346   -2.6812   -1.6971 H         1 <0>         0.4265
     34 H10        -0.2201   -5.5395   -1.0363 H         1 <0>         0.1387
     35 H11        -1.5896   -4.4510   -0.7075 H         1 <0>         0.1387
     36 H12        -2.9596   -3.5950   -2.5156 H         1 <0>         0.1366
     37 H13        -3.8187   -3.9674   -4.7893 H         1 <0>         0.1428
     38 H14        -0.5261   -6.6079   -5.5760 H         1 <0>         0.1394
     39 H15         0.3180   -6.2119   -3.3007 H         1 <0>         0.1354
     40 H16        -3.6421   -5.0497   -7.0282 H         1 <0>         0.1473
     41 H17        -1.1717   -6.8549   -7.2094 H         1 <0>         0.1367
     42 H18        -1.1069   -7.8537   -9.4359 H         1 <0>         0.4100
     43 H19        -1.8661   -8.2357  -11.5674 H         1 <0>         0.3930
     44 H20         0.9331   -3.6888   -2.0015 H         1 <0>         0.4247
@<TRIPOS>BOND
     1    1    6 ar
     2    1    2 ar
     3    1   26 1
     4    2    3 ar
     5    2   27 1
     6    3    4 ar
     7    3   28 1
     8    4    9 1
     9    4    5 ar
    10    5    6 ar
    11    5    7 1
    12    6   29 1
    13    7    8 2
    14    7   11 1
    15    8    9 1
    16    8   30 1
    17    9   10 1
    18   11   12 1
    19   11   31 1
    20   11   32 1
    21   12   13 1
    22   12   33 1
    23   12   44 1
    24   13   14 1
    25   13   34 1
    26   13   35 1
    27   14   19 ar
    28   14   15 ar
    29   15   16 ar
    30   15   36 1
    31   16   17 ar
    32   16   37 1
    33   17   18 ar
    34   17   20 1
    35   18   19 ar
    36   18   38 1
    37   19   39 1
    38   20   21 2
    39   20   40 1
    40   21   22 1
    41   21   41 1
    42   22   23 2
    43   22   24 am
    44   24   25 1
    45   24   42 1
    46   25   43 1
@<TRIPOS>MOLECULE
CHEMBL594544
   50    52     0     0     0
SMALL
USER_CHARGES

@<TRIPOS>ATOM
      1 C1         -0.3880   -4.6831    4.0755 C.ar      1 <0>        -0.0806
      2 C2         -0.3637   -5.5534    5.1452 C.ar      1 <0>        -0.1521
      3 C3         -1.3988   -6.4559    5.3310 C.ar      1 <0>         0.0979
      4 C4         -2.4633   -6.4889    4.4444 C.ar      1 <0>        -0.1502
      5 C5         -2.4974   -5.6230    3.3714 C.ar      1 <0>        -0.0841
      6 C6         -1.4577   -4.7122    3.1797 C.ar      1 <0>        -0.0648
      7 C7         -1.4892   -3.7816    2.0319 C.2       1 <0>        -0.1206
      8 C8         -2.5065   -3.8112    1.1822 C.2       1 <0>        -0.1188
      9 C9         -2.5387   -2.8623    0.0119 C.3       1 <0>         0.1155
     10 C10        -3.7868   -1.9821    0.1031 C.3       1 <0>         0.0875
     11 O1         -4.9493   -2.8100    0.1745 O.3       1 <0>        -0.5544
     12 N1         -2.5713   -3.6300   -1.2401 N.3       1 <0>        -0.5198
     13 C11        -1.5179   -4.6537   -1.2575 C.3       1 <0>         0.0407
     14 C12        -1.6979   -5.5462   -2.4902 C.3       1 <0>         0.1270
     15 N2         -1.7516   -4.6887   -3.6840 N.pl3     1 <0>        -0.5698
     16 C13        -2.6890   -3.5553   -3.6851 C.3       1 <0>         0.1290
     17 C14        -2.4700   -2.7413   -2.4054 C.3       1 <0>         0.0376
     18 C15        -0.9446   -4.9410   -4.7738 C.ar      1 <0>         0.5856
     19 N3         -0.1165   -5.9769   -4.7359 N.ar      1 <0>        -0.5690
     20 C16         0.6714   -6.2522   -5.7580 C.ar      1 <0>         0.2676
     21 C17         0.6237   -5.4322   -6.8929 C.ar      1 <0>        -0.3101
     22 C18        -0.2647   -4.3488   -6.8919 C.ar      1 <0>         0.2349
     23 N4         -1.0230   -4.1440   -5.8315 N.ar      1 <0>        -0.5713
     24 C19         1.4870   -5.7021   -8.0588 C.2       1 <0>         0.5925
     25 O2          2.2527   -6.6465   -8.0426 O.2       1 <0>        -0.5175
     26 N5          1.4269   -4.9019   -9.1416 N.am      1 <0>        -0.5955
     27 O3          2.2553   -5.1609  -10.2603 O.3       1 <0>        -0.3109
     28 F1         -1.3698   -7.3068    6.3799 F         1 <0>        -0.1387
     29 H1          0.4171   -3.9774    3.9339 H         1 <0>         0.1339
     30 H2          0.4636   -5.5317    5.8391 H         1 <0>         0.1371
     31 H3         -3.2675   -7.1942    4.5937 H         1 <0>         0.1375
     32 H4         -3.3272   -5.6500    2.6806 H         1 <0>         0.1370
     33 H5         -0.6835   -3.0775    1.8853 H         1 <0>         0.1179
     34 H6         -3.3122   -4.5153    1.3288 H         1 <0>         0.1290
     35 H7         -1.6485   -2.2335    0.0294 H         1 <0>         0.0587
     36 H8         -3.7283   -1.3601    0.9963 H         1 <0>         0.0512
     37 H9         -3.8477   -1.3455   -0.7796 H         1 <0>         0.0491
     38 H10        -5.7796   -2.3179    0.2344 H         1 <0>         0.3768
     39 H11        -0.5417   -4.1705   -1.2978 H         1 <0>         0.0383
     40 H12        -1.5865   -5.2615   -0.3553 H         1 <0>         0.0962
     41 H13        -0.8558   -6.2335   -2.5707 H         1 <0>         0.1057
     42 H14        -2.6269   -6.1095   -2.4019 H         1 <0>         0.0803
     43 H15        -2.5021   -2.9264   -4.5555 H         1 <0>         0.1045
     44 H16        -3.7132   -3.9272   -3.7116 H         1 <0>         0.0804
     45 H17        -3.2289   -1.9620   -2.3356 H         1 <0>         0.0927
     46 H18        -1.4805   -2.2847   -2.4296 H         1 <0>         0.0387
     47 H19         1.3433   -7.0970   -5.7200 H         1 <0>         0.1837
     48 H20        -0.3309   -3.6935   -7.7478 H         1 <0>         0.1683
     49 H21         0.8161   -4.1484   -9.1545 H         1 <0>         0.4055
     50 H22         2.1415   -4.5339  -10.9876 H         1 <0>         0.3899
@<TRIPOS>BOND
     1    1    6 ar
     2    1    2 ar
     3    1   29 1
     4    2    3 ar
     5    2   30 1
     6    3    4 ar
     7    3   28 1
     8    4    5 ar
     9    4   31 1
    10    5    6 ar
    11    5   32 1
    12    6    7 1
    13    7    8 2
    14    7   33 1
    15    8    9 1
    16    8   34 1
    17    9   10 1
    18    9   12 1
    19    9   35 1
    20   10   11 1
    21   10   36 1
    22   10   37 1
    23   11   38 1
    24   12   17 1
    25   12   13 1
    26   13   14 1
    27   13   39 1
    28   13   40 1
    29   14   15 1
    30   14   41 1
    31   14   42 1
    32   15   16 1
    33   15   18 1
    34   16   17 1
    35   16   43 1
    36   16   44 1
    37   17   45 1
    38   17   46 1
    39   18   23 ar
    40   18   19 ar
    41   19   20 ar
    42   20   21 ar
    43   20   47 1
    44   21   22 ar
    45   21   24 1
    46   22   23 ar
    47   22   48 1
    48   24   25 2
    49   24   26 am
    50   26   27 1
    51   26   49 1
    52   27   50 1
@<TRIPOS>MOLECULE
CHEMBL594544__1
   50    52     0     0     0
SMALL
USER_CHARGES

@<TRIPOS>ATOM
      1 C1         -1.3107    1.9261    0.1385 C.ar      1 <0>        -0.0807
      2 C2         -0.3698    2.9329    0.1973 C.ar      1 <0>        -0.1521
      3 C3          0.9792    2.6213    0.2554 C.ar      1 <0>         0.0978
      4 C4          1.3904    1.2980    0.2552 C.ar      1 <0>        -0.1502
      5 C5          0.4577    0.2835    0.1967 C.ar      1 <0>        -0.0841
      6 C6         -0.9020    0.5917    0.1381 C.ar      1 <0>        -0.0646
      7 C7         -1.9059   -0.4912    0.0758 C.2       1 <0>        -0.1211
      8 C8         -1.5151   -1.7581    0.0755 C.2       1 <0>        -0.1176
      9 C9         -2.5387   -2.8623    0.0119 C.3       1 <0>         0.1152
     10 C10        -2.2242   -3.7818   -1.1699 C.3       1 <0>         0.0865
     11 O1         -0.8886   -4.2749   -1.0476 O.3       1 <0>        -0.5547
     12 N1         -2.5007   -3.6376    1.2591 N.3       1 <0>        -0.5194
     13 C11        -3.5564   -4.6589    1.2765 C.3       1 <0>         0.0375
     14 C12        -3.3715   -5.5591    2.5027 C.3       1 <0>         0.1283
     15 N2         -3.3089   -4.7090    3.7013 N.pl3     1 <0>        -0.5698
     16 C13        -2.3688   -3.5778    3.7037 C.3       1 <0>         0.1277
     17 C14        -2.5932   -2.7556    2.4302 C.3       1 <0>         0.0401
     18 C15        -4.1102   -4.9659    4.7941 C.ar      1 <0>         0.5857
     19 N3         -4.9410   -5.9996    4.7548 N.ar      1 <0>        -0.5698
     20 C16        -5.7237   -6.2792    5.7798 C.ar      1 <0>         0.2674
     21 C17        -5.6676   -5.4661    6.9193 C.ar      1 <0>        -0.3102
     22 C18        -4.7766   -4.3849    6.9197 C.ar      1 <0>         0.2351
     23 N4         -4.0239   -4.1755    5.8561 N.ar      1 <0>        -0.5708
     24 C19        -6.5248   -5.7410    8.0885 C.2       1 <0>         0.5927
     25 O2         -7.2928   -6.6835    8.0710 O.2       1 <0>        -0.5178
     26 N5         -6.4565   -4.9474    9.1757 N.am      1 <0>        -0.5954
     27 O3         -7.2791   -5.2112   10.2976 O.3       1 <0>        -0.3110
     28 F1          1.8968    3.6113    0.3119 F         1 <0>        -0.1388
     29 H1         -2.3620    2.1699    0.0974 H         1 <0>         0.1339
     30 H2         -0.6850    3.9659    0.1977 H         1 <0>         0.1370
     31 H3          2.4430    1.0606    0.3006 H         1 <0>         0.1375
     32 H4          0.7792   -0.7475    0.1959 H         1 <0>         0.1371
     33 H5         -2.9578   -0.2506    0.0304 H         1 <0>         0.1178
     34 H6         -0.4632   -1.9988    0.1208 H         1 <0>         0.1293
     35 H7         -3.5312   -2.4308   -0.1175 H         1 <0>         0.0586
     36 H8         -2.9218   -4.6194   -1.1742 H         1 <0>         0.0497
     37 H9         -2.3215   -3.2231   -2.1008 H         1 <0>         0.0515
     38 H10        -0.6203   -4.8659   -1.7644 H         1 <0>         0.3771
     39 H11        -4.5312   -4.1736    1.3252 H         1 <0>         0.0389
     40 H12        -3.4945   -5.2614    0.3702 H         1 <0>         0.0935
     41 H13        -4.2148   -6.2450    2.5839 H         1 <0>         0.1057
     42 H14        -2.4444   -6.1241    2.4057 H         1 <0>         0.0808
     43 H15        -2.5492   -2.9538    4.5790 H         1 <0>         0.1044
     44 H16        -1.3454   -3.9524    3.7222 H         1 <0>         0.0799
     45 H17        -1.8328   -1.9778    2.3608 H         1 <0>         0.0960
     46 H18        -3.5814   -2.2968    2.4629 H         1 <0>         0.0378
     47 H19        -6.3979   -7.1221    5.7406 H         1 <0>         0.1837
     48 H20        -4.7039   -3.7349    7.7791 H         1 <0>         0.1684
     49 H21        -5.8438   -4.1955    9.1896 H         1 <0>         0.4056
     50 H22        -7.1596   -4.5888   11.0280 H         1 <0>         0.3900
@<TRIPOS>BOND
     1    1    6 ar
     2    1    2 ar
     3    1   29 1
     4    2    3 ar
     5    2   30 1
     6    3    4 ar
     7    3   28 1
     8    4    5 ar
     9    4   31 1
    10    5    6 ar
    11    5   32 1
    12    6    7 1
    13    7    8 2
    14    7   33 1
    15    8    9 1
    16    8   34 1
    17    9   10 1
    18    9   12 1
    19    9   35 1
    20   10   11 1
    21   10   36 1
    22   10   37 1
    23   11   38 1
    24   12   17 1
    25   12   13 1
    26   13   14 1
    27   13   39 1
    28   13   40 1
    29   14   15 1
    30   14   41 1
    31   14   42 1
    32   15   16 1
    33   15   18 1
    34   16   17 1
    35   16   43 1
    36   16   44 1
    37   17   45 1
    38   17   46 1
    39   18   23 ar
    40   18   19 ar
    41   19   20 ar
    42   20   21 ar
    43   20   47 1
    44   21   22 ar
    45   21   24 1
    46   22   23 ar
    47   22   48 1
    48   24   25 2
    49   24   26 am
    50   26   27 1
    51   26   49 1
    52   27   50 1
@<TRIPOS>MOLECULE
CHEMBL357231
   61    64     0     0     0
SMALL
USER_CHARGES

@<TRIPOS>ATOM
      1 C1          2.7106   -0.2167    1.4380 C.ar      1 <0>        -0.1321
      2 C2          4.0682    0.0670    1.3756 C.ar      1 <0>        -0.0934
      3 C3          4.9628   -0.8762    0.9199 C.ar      1 <0>        -0.1213
      4 C4          4.5039   -2.1265    0.5181 C.ar      1 <0>         0.0946
      5 C5          3.1274   -2.4091    0.5837 C.ar      1 <0>        -0.0998
      6 C6          2.2382   -1.4380    1.0484 C.ar      1 <0>        -0.0843
      7 C7          2.9727   -3.7829    0.0992 C.2       1 <0>        -0.2039
      8 C8          4.1993   -4.2287   -0.2150 C.2       1 <0>         0.0846
      9 N1          5.1268   -3.2527    0.0287 N.pl3     1 <0>        -0.5876
     10 H1          6.0812   -3.3411   -0.1207 H         1 <0>         0.4232
     11 C9          1.6815   -4.5503   -0.0229 C.3       1 <0>        -0.0562
     12 C10         1.0160   -4.2194   -1.3603 C.3       1 <0>        -0.0112
     13 N2         -0.1751   -5.0610   -1.5361 N.4       1 <0>        -0.3808
     14 C11        -0.7325   -4.8465   -2.8782 C.3       1 <0>         0.0306
     15 C12        -1.8296   -5.8480   -3.1324 C.ar      1 <0>        -0.1386
     16 C13        -1.5275   -7.1967   -3.2035 C.ar      1 <0>        -0.1109
     17 C14        -2.5258   -8.1191   -3.4362 C.ar      1 <0>        -0.0861
     18 C15        -3.8461   -7.6886   -3.6001 C.ar      1 <0>        -0.0355
     19 C16        -4.1432   -6.3242   -3.5265 C.ar      1 <0>        -0.0957
     20 C17        -3.1347   -5.4145   -3.2880 C.ar      1 <0>        -0.0870
     21 C18        -4.9176   -8.6667   -3.8494 C.2       1 <0>        -0.0353
     22 C19        -6.1892   -8.2479   -4.0069 C.2       1 <0>        -0.1749
     23 C20        -7.2551   -9.2209   -4.2549 C.2       1 <0>         0.5543
     24 O1         -6.9929  -10.4075   -4.3188 O.2       1 <0>        -0.5167
     25 N3         -8.5264   -8.8022   -4.4124 N.am      1 <0>        -0.5899
     26 O2         -9.5571   -9.7430   -4.6522 O.3       1 <0>        -0.3113
     27 C21        -1.1801   -4.7045   -0.5257 C.3       1 <0>         0.0219
     28 C22        -2.2265   -5.8188   -0.4283 C.3       1 <0>        -0.2043
     29 C23        -3.3114   -5.4037    0.5688 C.3       1 <0>         0.0659
     30 O3         -3.8954   -4.1689    0.1487 O.3       1 <0>        -0.3667
     31 C24        -2.9731   -3.0792    0.0850 C.3       1 <0>         0.0634
     32 C25        -1.8746   -3.4010   -0.9316 C.3       1 <0>        -0.1839
     33 H2          2.0230    0.5325    1.8016 H         1 <0>         0.1268
     34 H3          4.4265    1.0370    1.6871 H         1 <0>         0.1315
     35 H4          6.0170   -0.6456    0.8744 H         1 <0>         0.1256
     36 H5          1.1808   -1.6517    1.1000 H         1 <0>         0.1166
     37 H6          4.4211   -5.2119   -0.6030 H         1 <0>         0.1728
     38 H7          1.8882   -5.6194    0.0254 H         1 <0>         0.0900
     39 H8          1.0148   -4.2719    0.7933 H         1 <0>         0.0902
     40 H9          0.7237   -3.1694   -1.3707 H         1 <0>         0.1310
     41 H10         1.7181   -4.4092   -2.1722 H         1 <0>         0.1328
     42 H11        -1.1389   -3.8374   -2.9458 H         1 <0>         0.1426
     43 H12         0.0538   -4.9722   -3.6225 H         1 <0>         0.1408
     44 H13        -0.5073   -7.5276   -3.0767 H         1 <0>         0.1320
     45 H14        -2.2884   -9.1712   -3.4921 H         1 <0>         0.1429
     46 H15        -5.1605   -5.9841   -3.6524 H         1 <0>         0.1414
     47 H16        -3.3633   -4.3608   -3.2264 H         1 <0>         0.1375
     48 H17        -4.6849   -9.7199   -3.9061 H         1 <0>         0.1467
     49 H18        -6.4219   -7.1948   -3.9502 H         1 <0>         0.1372
     50 H19        -8.7354   -7.8563   -4.3614 H         1 <0>         0.4104
     51 H20       -10.4344   -9.3486   -4.7516 H         1 <0>         0.3931
     52 H21        -0.6943   -4.5731    0.4412 H         1 <0>         0.1393
     53 H22        -2.6757   -5.9833   -1.4078 H         1 <0>         0.1213
     54 H23        -1.7497   -6.7374   -0.0864 H         1 <0>         0.0943
     55 H24        -4.0812   -6.1743    0.6102 H         1 <0>         0.1120
     56 H25        -2.8684   -5.2787    1.5569 H         1 <0>         0.0619
     57 H26        -3.4992   -2.1753   -0.2221 H         1 <0>         0.1145
     58 H27        -2.5257   -2.9238    1.0667 H         1 <0>         0.0645
     59 H28        -1.1461   -2.5903   -0.9495 H         1 <0>         0.0985
     60 H29        -2.3167   -3.5166   -1.9212 H         1 <0>         0.1000
     61 H30         0.0800   -6.0314   -1.4289 H         1 <0>         0.4206
@<TRIPOS>BOND
     1    1    6 ar
     2    1    2 ar
     3    1   33 1
     4    2    3 ar
     5    2   34 1
     6    3    4 ar
     7    3   35 1
     8    4    9 1
     9    4    5 ar
    10    5    6 ar
    11    5    7 1
    12    6   36 1
    13    7    8 2
    14    7   11 1
    15    8    9 1
    16    8   37 1
    17    9   10 1
    18   11   12 1
    19   11   38 1
    20   11   39 1
    21   12   13 1
    22   12   40 1
    23   12   41 1
    24   13   14 1
    25   13   27 1
    26   13   61 1
    27   14   15 1
    28   14   42 1
    29   14   43 1
    30   15   20 ar
    31   15   16 ar
    32   16   17 ar
    33   16   44 1
    34   17   18 ar
    35   17   45 1
    36   18   19 ar
    37   18   21 1
    38   19   20 ar
    39   19   46 1
    40   20   47 1
    41   21   22 2
    42   21   48 1
    43   22   23 1
    44   22   49 1
    45   23   24 2
    46   23   25 am
    47   25   26 1
    48   25   50 1
    49   26   51 1
    50   27   32 1
    51   27   28 1
    52   27   52 1
    53   28   29 1
    54   28   53 1
    55   28   54 1
    56   29   30 1
    57   29   55 1
    58   29   56 1
    59   30   31 1
    60   31   32 1
    61   31   57 1
    62   31   58 1
    63   32   59 1
    64   32   60 1
@<TRIPOS>MOLECULE
CHEMBL481802
   37    39     0     0     0
SMALL
USER_CHARGES

@<TRIPOS>ATOM
      1 C1          3.9547   -4.1714    2.2727 C.ar      1 <0>        -0.1259
      2 C2          4.8456   -3.9521    1.2381 C.ar      1 <0>        -0.1029
      3 C3          4.7557   -2.8014    0.4749 C.ar      1 <0>        -0.1433
      4 C4          3.7711   -1.8698    0.7515 C.ar      1 <0>         0.1680
      5 C5          2.8728   -2.0873    1.7978 C.ar      1 <0>         0.1015
      6 C6          2.9688   -3.2435    2.5550 C.ar      1 <0>        -0.1182
      7 N1          1.8888   -1.1303    2.0734 N.am      1 <0>        -0.6558
      8 C7          1.6099   -0.1562    1.1865 C.2       1 <0>         0.5072
      9 O1          0.7842    0.6881    1.4634 O.2       1 <0>        -0.5225
     10 C8          2.3122   -0.1026   -0.1461 C.3       1 <0>         0.1186
     11 N2          3.6501   -0.6972   -0.0073 N.pl3     1 <0>        -0.6345
     12 C9          4.8195   -0.0837   -0.6416 C.3       1 <0>         0.1696
     13 C10         5.5184    0.8097    0.3506 C.ar      1 <0>        -0.0838
     14 C11         5.1182    2.1264    0.4930 C.ar      1 <0>        -0.1087
     15 C12         5.7537    2.9496    1.3995 C.ar      1 <0>        -0.0541
     16 C13         6.8026    2.4513    2.1739 C.ar      1 <0>        -0.1214
     17 C14         7.2014    1.1219    2.0253 C.ar      1 <0>        -0.0881
     18 C15         6.5536    0.3079    1.1192 C.ar      1 <0>        -0.1055
     19 C16         7.4886    3.3278    3.1470 C.2       1 <0>         0.5708
     20 O2          7.1394    4.4852    3.2739 O.2       1 <0>        -0.5133
     21 N3          8.5010    2.8436    3.8933 N.am      1 <0>        -0.5934
     22 O3          9.1580    3.6832    4.8253 O.3       1 <0>        -0.3122
     23 H1          4.0263   -5.0745    2.8607 H         1 <0>         0.1273
     24 H2          5.6139   -4.6807    1.0255 H         1 <0>         0.1273
     25 H3          5.4516   -2.6310   -0.3332 H         1 <0>         0.1296
     26 H4          2.2755   -3.4196    3.3641 H         1 <0>         0.1286
     27 H5          1.4026   -1.1695    2.9119 H         1 <0>         0.4117
     28 H6          1.7384   -0.6640   -0.8835 H         1 <0>         0.0957
     29 H7          2.4056    0.9347   -0.4676 H         1 <0>         0.1157
     30 H8          5.5043   -0.8642   -0.9732 H         1 <0>         0.0910
     31 H9          4.4991    0.5072   -1.4998 H         1 <0>         0.0939
     32 H10         4.3067    2.5109   -0.1071 H         1 <0>         0.1316
     33 H11         5.4406    3.9773    1.5094 H         1 <0>         0.1404
     34 H12         8.0123    0.7303    2.6215 H         1 <0>         0.1260
     35 H13         6.8583   -0.7221    1.0064 H         1 <0>         0.1316
     36 H14         8.7797    1.9201    3.7919 H         1 <0>         0.4077
     37 H15         9.8702    3.2475    5.3133 H         1 <0>         0.3899
@<TRIPOS>BOND
     1    1    6 ar
     2    1    2 ar
     3    1   23 1
     4    2    3 ar
     5    2   24 1
     6    3    4 ar
     7    3   25 1
     8    4   11 1
     9    4    5 ar
    10    5    6 ar
    11    5    7 1
    12    6   26 1
    13    7    8 am
    14    7   27 1
    15    8    9 2
    16    8   10 1
    17   10   11 1
    18   10   28 1
    19   10   29 1
    20   11   12 1
    21   12   13 1
    22   12   30 1
    23   12   31 1
    24   13   18 ar
    25   13   14 ar
    26   14   15 ar
    27   14   32 1
    28   15   16 ar
    29   15   33 1
    30   16   17 ar
    31   16   19 1
    32   17   18 ar
    33   17   34 1
    34   18   35 1
    35   19   20 2
    36   19   21 am
    37   21   22 1
    38   21   36 1
    39   22   37 1
@<TRIPOS>MOLECULE
CHEMBL55234
   37    37     0     0     0
SMALL
USER_CHARGES

@<TRIPOS>ATOM
      1 C1         -0.0163    1.3503    0.0095 C.2       1 <0>        -0.2112
      2 C2          1.3086    1.7974   -0.0008 C.2       1 <0>        -0.1023
      3 C3          2.1137    0.6782   -0.0145 C.2       1 <0>        -0.0630
      4 N1          1.2903   -0.4250   -0.0125 N.pl3     1 <0>        -0.5422
      5 H1          1.5833   -1.3496   -0.0203 H         1 <0>         0.4147
      6 C4          0.0021   -0.0041    0.0020 C.2       1 <0>         0.0252
      7 C5          3.5803    0.6653   -0.0293 C.2       1 <0>         0.5886
      8 O1          4.1980    1.7138   -0.0302 O.2       1 <0>        -0.5256
      9 N2          4.2438   -0.5078   -0.0418 N.am      1 <0>        -0.7345
     10 C6          5.7087   -0.5206   -0.0566 C.3       1 <0>         0.1177
     11 C7          6.2059   -1.9675   -0.0689 C.3       1 <0>        -0.1311
     12 C8          7.7358   -1.9809   -0.0843 C.3       1 <0>        -0.1182
     13 C9          8.2330   -3.4278   -0.0966 C.3       1 <0>        -0.1181
     14 C10         9.7629   -3.4413   -0.1120 C.3       1 <0>        -0.1075
     15 C11        10.2601   -4.8882   -0.1242 C.3       1 <0>        -0.1263
     16 C12        11.7670   -4.9014   -0.1395 C.2       1 <0>         0.5205
     17 O2         12.3826   -3.8564   -0.1404 O.2       1 <0>        -0.5181
     18 N3         12.4305   -6.0745   -0.1520 N.am      1 <0>        -0.6003
     19 O3         13.8464   -6.0869   -0.1663 O.3       1 <0>        -0.3203
     20 H2         -0.8977    1.9742    0.0252 H         1 <0>         0.1456
     21 H3          1.6390    2.8256    0.0013 H         1 <0>         0.1487
     22 H4         -0.8678   -0.6441    0.0069 H         1 <0>         0.1727
     23 H5          3.7515   -1.3435   -0.0411 H         1 <0>         0.3935
     24 H6          6.0676   -0.0055   -0.9477 H         1 <0>         0.0715
     25 H7          6.0855   -0.0145    0.8322 H         1 <0>         0.0715
     26 H8          5.8470   -2.4826    0.8222 H         1 <0>         0.0692
     27 H9          5.8291   -2.4737   -0.9576 H         1 <0>         0.0692
     28 H10         8.0947   -1.4659   -0.9754 H         1 <0>         0.0692
     29 H11         8.1126   -1.4748    0.8045 H         1 <0>         0.0692
     30 H12         7.8741   -3.9429    0.7945 H         1 <0>         0.0647
     31 H13         7.8562   -3.9340   -0.9853 H         1 <0>         0.0647
     32 H14        10.1218   -2.9262   -1.0031 H         1 <0>         0.0741
     33 H15        10.1397   -2.9351    0.7768 H         1 <0>         0.0741
     34 H16         9.9012   -5.4032    0.7668 H         1 <0>         0.0991
     35 H17         9.8833   -5.3943   -1.0130 H         1 <0>         0.0991
     36 H18        11.9381   -6.9102   -0.1512 H         1 <0>         0.4079
     37 H19        14.2318   -6.9737   -0.1746 H         1 <0>         0.3878
@<TRIPOS>BOND
     1    1    6 2
     2    1    2 1
     3    1   20 1
     4    2    3 2
     5    2   21 1
     6    3    4 1
     7    3    7 1
     8    4    5 1
     9    4    6 1
    10    6   22 1
    11    7    8 2
    12    7    9 am
    13    9   10 1
    14    9   23 1
    15   10   11 1
    16   10   24 1
    17   10   25 1
    18   11   12 1
    19   11   26 1
    20   11   27 1
    21   12   13 1
    22   12   28 1
    23   12   29 1
    24   13   14 1
    25   13   30 1
    26   13   31 1
    27   14   15 1
    28   14   32 1
    29   14   33 1
    30   15   16 1
    31   15   34 1
    32   15   35 1
    33   16   17 2
    34   16   18 am
    35   18   19 1
    36   18   36 1
    37   19   37 1
@<TRIPOS>MOLECULE
CHEMBL1095718
   54    56     0     0     0
SMALL
USER_CHARGES

@<TRIPOS>ATOM
      1 C1         -0.2473    1.4897   -0.0065 C.3       1 <0>        -0.0999
      2 C2         -0.0955   -0.0097   -0.0052 C.2       1 <0>         0.0356
      3 C3          0.1136   -0.7825   -1.0903 C.2       1 <0>         0.0607
      4 N1          0.1919   -2.0768   -0.6516 N.pl3     1 <0>        -0.3978
      5 C4          0.0260   -2.0499    0.7022 C.cat     1 <0>         0.3579
      6 N2         -0.1395   -0.8000    1.0735 N.pl3     1 <0>        -0.4680
      7 C5          0.0370   -3.2258    1.5996 C.ar      1 <0>        -0.0858
      8 C6         -0.5505   -4.4248    1.1891 C.ar      1 <0>        -0.0779
      9 C7         -0.5424   -5.5243    2.0248 C.ar      1 <0>        -0.1017
     10 C8          0.0460   -5.4482    3.2709 C.ar      1 <0>        -0.0607
     11 C9          0.6388   -4.2543    3.6954 C.ar      1 <0>        -0.0502
     12 C10         0.6380   -3.1412    2.8524 C.ar      1 <0>        -0.0573
     13 C11         1.2660   -4.1731    5.0250 C.2       1 <0>        -0.0367
     14 C12         1.2697   -5.2504    5.8353 C.2       1 <0>        -0.1714
     15 C13         1.8935   -5.1697    7.1577 C.2       1 <0>         0.5547
     16 O1          2.4086   -4.1301    7.5251 O.2       1 <0>        -0.5177
     17 N3          1.8972   -6.2467    7.9679 N.am      1 <0>        -0.5887
     18 O2          2.5004   -6.1687    9.2466 O.3       1 <0>        -0.3106
     19 C14         0.4121   -3.2655   -1.4790 C.3       1 <0>         0.0828
     20 C15         1.9129   -3.4587   -1.7052 C.3       1 <0>         0.0388
     21 N4          2.1336   -4.6507   -2.5348 N.3       1 <0>        -0.5305
     22 C16         1.7345   -5.8716   -1.8198 C.3       1 <0>         0.0096
     23 C17         1.9245   -7.0805   -2.7397 C.3       1 <0>         0.0617
     24 O3          3.2848   -7.1302   -3.1784 O.3       1 <0>        -0.3789
     25 C18         3.7070   -5.9572   -3.8792 C.3       1 <0>         0.0615
     26 C19         3.5350   -4.7369   -2.9708 C.3       1 <0>         0.0192
     27 C20         0.2376   -0.3107   -2.5162 C.3       1 <0>        -0.0988
     28 H1          0.7318    1.9541    0.1105 H         1 <0>         0.1017
     29 H2         -0.6906    1.8091   -0.9496 H         1 <0>         0.1071
     30 H3         -0.8929    1.7903    0.8187 H         1 <0>         0.0916
     31 H4         -1.0129   -4.4920    0.2154 H         1 <0>         0.1376
     32 H5         -0.9990   -6.4482    1.7017 H         1 <0>         0.1506
     33 H6          0.0486   -6.3117    3.9196 H         1 <0>         0.1475
     34 H7          1.0977   -2.2179    3.1724 H         1 <0>         0.1408
     35 H8          1.7231   -3.2506    5.3510 H         1 <0>         0.1470
     36 H9          0.8125   -6.1729    5.5093 H         1 <0>         0.1389
     37 H10         1.4866   -7.0753    7.6750 H         1 <0>         0.4112
     38 H11         2.4535   -6.9903    9.7544 H         1 <0>         0.3941
     39 H12         0.0053   -4.1410   -0.9728 H         1 <0>         0.1209
     40 H13        -0.0866   -3.1370   -2.4397 H         1 <0>         0.1343
     41 H14         2.3196   -2.5832   -2.2114 H         1 <0>         0.0938
     42 H15         2.4115   -3.5872   -0.7445 H         1 <0>         0.0512
     43 H16         2.3525   -5.9907   -0.9298 H         1 <0>         0.0513
     44 H17         0.6867   -5.7968   -1.5288 H         1 <0>         0.0833
     45 H18         1.6841   -7.9936   -2.1952 H         1 <0>         0.1040
     46 H19         1.2666   -6.9874   -3.6038 H         1 <0>         0.0646
     47 H20         4.7557   -6.0579   -4.1588 H         1 <0>         0.1064
     48 H21         3.1009   -5.8314   -4.7764 H         1 <0>         0.0655
     49 H22         3.8016   -3.8339   -3.5200 H         1 <0>         0.0931
     50 H23         4.1818   -4.8379   -2.0993 H         1 <0>         0.0506
     51 H24         1.2827   -0.0944   -2.7377 H         1 <0>         0.1023
     52 H25        -0.1230   -1.0887   -3.1890 H         1 <0>         0.0922
     53 H26        -0.3572    0.5924   -2.6530 H         1 <0>         0.1080
     54 H27        -0.2750   -0.4984    1.9855 H         1 <0>         0.4603
@<TRIPOS>BOND
     1    1    2 1
     2    1   28 1
     3    1   29 1
     4    1   30 1
     5    2    6 1
     6    2    3 2
     7    3    4 1
     8    3   27 1
     9    4    5 1
    10    4   19 1
    11    5    6 2
    12    5    7 1
    13    6   54 1
    14    7   12 ar
    15    7    8 ar
    16    8    9 ar
    17    8   31 1
    18    9   10 ar
    19    9   32 1
    20   10   11 ar
    21   10   33 1
    22   11   12 ar
    23   11   13 1
    24   12   34 1
    25   13   14 2
    26   13   35 1
    27   14   15 1
    28   14   36 1
    29   15   16 2
    30   15   17 am
    31   17   18 1
    32   17   37 1
    33   18   38 1
    34   19   20 1
    35   19   39 1
    36   19   40 1
    37   20   21 1
    38   20   41 1
    39   20   42 1
    40   21   26 1
    41   21   22 1
    42   22   23 1
    43   22   43 1
    44   22   44 1
    45   23   24 1
    46   23   45 1
    47   23   46 1
    48   24   25 1
    49   25   26 1
    50   25   47 1
    51   25   48 1
    52   26   49 1
    53   26   50 1
    54   27   51 1
    55   27   52 1
    56   27   53 1
@<TRIPOS>MOLECULE
CHEMBL1095718__1
   54    56     0     0     0
SMALL
USER_CHARGES

@<TRIPOS>ATOM
      1 C1          0.0070    1.5015   -0.0860 C.3       1 <0>        -0.0780
      2 C2          0.0129   -0.0048   -0.0393 C.2       1 <0>         0.0299
      3 C3         -0.0065   -0.8275   -1.1077 C.2       1 <0>        -0.0232
      4 N1          0.0076   -2.1091   -0.6271 N.pl3     1 <0>        -0.4586
      5 C4          0.0354   -2.0244    0.7341 C.2       1 <0>         0.2493
      6 N2          0.0440   -0.7535    1.0691 N.2       1 <0>        -0.4499
      7 C5          0.0585   -3.1677    1.6727 C.ar      1 <0>        -0.0108
      8 C6          0.4921   -4.4220    1.2369 C.ar      1 <0>        -0.1344
      9 C7          0.5145   -5.4915    2.1105 C.ar      1 <0>        -0.1130
     10 C8          0.1095   -5.3302    3.4200 C.ar      1 <0>        -0.0891
     11 C9         -0.3268   -4.0798    3.8708 C.ar      1 <0>        -0.0528
     12 C10        -0.3464   -2.9940    2.9932 C.ar      1 <0>        -0.0478
     13 C11        -0.7593   -3.9081    5.2677 C.2       1 <0>        -0.0219
     14 C12        -0.7352   -4.9566    6.1144 C.2       1 <0>        -0.1874
     15 C13        -1.1653   -4.7859    7.5037 C.2       1 <0>         0.5560
     16 O1         -1.5445   -3.6973    7.8938 O.2       1 <0>        -0.5172
     17 N3         -1.1412   -5.8343    8.3503 N.am      1 <0>        -0.5916
     18 O2         -1.5571   -5.6691    9.6937 O.3       1 <0>        -0.3122
     19 C14        -0.0049   -3.3386   -1.4236 C.3       1 <0>         0.0755
     20 C15         1.4256   -3.6964   -1.8316 C.3       1 <0>        -0.0358
     21 N4          1.4131   -4.9293   -2.6303 N.4       1 <0>        -0.3815
     22 C16         0.9564   -6.0491   -1.7958 C.3       1 <0>        -0.0600
     23 C17         0.9440   -7.3323   -2.6302 C.3       1 <0>         0.0391
     24 O3          2.2544   -7.5673   -3.1532 O.3       1 <0>        -0.3534
     25 C18         2.7536   -6.4927   -3.9545 C.3       1 <0>         0.0367
     26 C19         2.7693   -5.2080   -3.1225 C.3       1 <0>        -0.0437
     27 C20        -0.0378   -0.4141   -2.5566 C.3       1 <0>        -0.0805
     28 H1          1.0329    1.8678   -0.1236 H         1 <0>         0.0758
     29 H2         -0.5308    1.8353   -0.9734 H         1 <0>         0.0747
     30 H3         -0.4854    1.8907    0.8051 H         1 <0>         0.0785
     31 H4          0.8106   -4.5559    0.2137 H         1 <0>         0.1080
     32 H5          0.8501   -6.4588    1.7671 H         1 <0>         0.1333
     33 H6          0.1291   -6.1708    4.0978 H         1 <0>         0.1380
     34 H7         -0.6779   -2.0250    3.3361 H         1 <0>         0.1474
     35 H8         -1.0958   -2.9420    5.6139 H         1 <0>         0.1462
     36 H9         -0.3986   -5.9227    5.7682 H         1 <0>         0.1359
     37 H10        -0.8389   -6.7019    8.0393 H         1 <0>         0.4095
     38 H11        -1.5045   -6.4762   10.2238 H         1 <0>         0.3917
     39 H12        -0.4278   -4.1505   -0.8320 H         1 <0>         0.1206
     40 H13        -0.6103   -3.1865   -2.3171 H         1 <0>         0.1161
     41 H14         1.8486   -2.8845   -2.4232 H         1 <0>         0.1458
     42 H15         2.0311   -3.8485   -0.9381 H         1 <0>         0.1417
     43 H16         1.6329   -6.1718   -0.9500 H         1 <0>         0.1442
     44 H17        -0.0497   -5.8434   -1.4302 H         1 <0>         0.1427
     45 H18         0.6468   -8.1721   -2.0021 H         1 <0>         0.1454
     46 H19         0.2375   -7.2246   -3.4532 H         1 <0>         0.0844
     47 H20         3.7660   -6.7249   -4.2848 H         1 <0>         0.1453
     48 H21         2.1090   -6.3562   -4.8228 H         1 <0>         0.0837
     49 H22         3.1091   -4.3778   -3.7418 H         1 <0>         0.1460
     50 H23         3.4451   -5.3310   -2.2762 H         1 <0>         0.1417
     51 H24         0.9821   -0.3115   -2.9272 H         1 <0>         0.0767
     52 H25        -0.5617   -1.1717   -3.1393 H         1 <0>         0.0626
     53 H26        -0.5564    0.5400   -2.6511 H         1 <0>         0.0943
     54 H27         0.7874   -4.8163   -3.4138 H         1 <0>         0.4260
@<TRIPOS>BOND
     1    1    2 1
     2    1   28 1
     3    1   29 1
     4    1   30 1
     5    2    6 1
     6    2    3 2
     7    3    4 1
     8    3   27 1
     9    4    5 1
    10    4   19 1
    11    5    6 2
    12    5    7 1
    13    7   12 ar
    14    7    8 ar
    15    8    9 ar
    16    8   31 1
    17    9   10 ar
    18    9   32 1
    19   10   11 ar
    20   10   33 1
    21   11   12 ar
    22   11   13 1
    23   12   34 1
    24   13   14 2
    25   13   35 1
    26   14   15 1
    27   14   36 1
    28   15   16 2
    29   15   17 am
    30   17   18 1
    31   17   37 1
    32   18   38 1
    33   19   20 1
    34   19   39 1
    35   19   40 1
    36   20   21 1
    37   20   41 1
    38   20   42 1
    39   21   26 1
    40   21   22 1
    41   21   54 1
    42   22   23 1
    43   22   43 1
    44   22   44 1
    45   23   24 1
    46   23   45 1
    47   23   46 1
    48   24   25 1
    49   25   26 1
    50   25   47 1
    51   25   48 1
    52   26   49 1
    53   26   50 1
    54   27   51 1
    55   27   52 1
    56   27   53 1
@<TRIPOS>MOLECULE
CHEMBL1095718__2
   53    55     0     0     0
SMALL
USER_CHARGES

@<TRIPOS>ATOM
      1 C1          0.0051    1.5003   -0.1151 C.3       1 <0>        -0.0681
      2 C2          0.0121   -0.0053   -0.0517 C.2       1 <0>         0.0066
      3 C3         -0.0061   -0.8398   -1.1110 C.2       1 <0>        -0.0125
      4 N1          0.0087   -2.1160   -0.6163 N.pl3     1 <0>        -0.4467
      5 C4          0.0356   -2.0163    0.7439 C.2       1 <0>         0.2360
      6 N2          0.0431   -0.7418    1.0649 N.2       1 <0>        -0.4634
      7 C5          0.0590   -3.1491    1.6950 C.ar      1 <0>        -0.0070
      8 C6          0.4921   -4.4082    1.2729 C.ar      1 <0>        -0.1200
      9 C7          0.5147   -5.4680    2.1582 C.ar      1 <0>        -0.1151
     10 C8          0.1104   -5.2922    3.4661 C.ar      1 <0>        -0.0913
     11 C9         -0.3254   -4.0368    3.9033 C.ar      1 <0>        -0.0732
     12 C10        -0.3452   -2.9608    3.0137 C.ar      1 <0>        -0.0502
     13 C11        -0.7571   -3.8496    5.2984 C.2       1 <0>        -0.0022
     14 C12        -0.7328   -4.8888    6.1566 C.2       1 <0>        -0.2081
     15 C13        -1.1622   -4.7026    7.5441 C.2       1 <0>         0.5603
     16 O1         -1.5410   -3.6097    7.9224 O.2       1 <0>        -0.5225
     17 N3         -1.1378   -5.7416    8.4023 N.am      1 <0>        -0.5936
     18 O2         -1.5530   -5.5615    9.7440 O.3       1 <0>        -0.3155
     19 C14        -0.0024   -3.3542   -1.3992 C.3       1 <0>         0.0961
     20 C15         1.4287   -3.7160   -1.8016 C.3       1 <0>         0.0367
     21 N4          1.4176   -4.9576   -2.5866 N.3       1 <0>        -0.5320
     22 C16         0.9941   -6.0986   -1.7619 C.3       1 <0>         0.0061
     23 C17         0.9392   -7.3574   -2.6316 C.3       1 <0>         0.0639
     24 O3          2.2184   -7.5704   -3.2345 O.3       1 <0>        -0.3827
     25 C18         2.6616   -6.4789   -4.0454 C.3       1 <0>         0.0634
     26 C19         2.7340   -5.2112   -3.1901 C.3       1 <0>         0.0183
     27 C20        -0.0368   -0.4424   -2.5644 C.3       1 <0>        -0.0782
     28 H1          1.0308    1.8670   -0.1561 H         1 <0>         0.0687
     29 H2         -0.5323    1.8240   -1.0064 H         1 <0>         0.0694
     30 H3         -0.4881    1.8990    0.7714 H         1 <0>         0.0715
     31 H4          0.8100   -4.5536    0.2511 H         1 <0>         0.1305
     32 H5          0.8500   -6.4392    1.8254 H         1 <0>         0.1319
     33 H6          0.1302   -6.1253    4.1531 H         1 <0>         0.1329
     34 H7         -0.6764   -1.9881    3.3460 H         1 <0>         0.1432
     35 H8         -1.0933   -2.8797    5.6341 H         1 <0>         0.1426
     36 H9         -0.3966   -5.8587    5.8209 H         1 <0>         0.1352
     37 H10        -0.8359   -6.6127    8.1008 H         1 <0>         0.4094
     38 H11        -1.5004   -6.3627   10.2829 H         1 <0>         0.3888
     39 H12        -0.4258   -4.1597   -0.7992 H         1 <0>         0.1009
     40 H13        -0.6068   -3.2122   -2.2951 H         1 <0>         0.1044
     41 H14         1.8521   -2.9105   -2.4016 H         1 <0>         0.0891
     42 H15         2.0331   -3.8580   -0.9057 H         1 <0>         0.0481
     43 H16         1.7079   -6.2469   -0.9516 H         1 <0>         0.0492
     44 H17         0.0063   -5.9002   -1.3459 H         1 <0>         0.0876
     45 H18         0.6810   -8.2165   -2.0124 H         1 <0>         0.1016
     46 H19         0.1867   -7.2296   -3.4098 H         1 <0>         0.0627
     47 H20         3.6492   -6.7026   -4.4488 H         1 <0>         0.1018
     48 H21         1.9592   -6.3255   -4.8647 H         1 <0>         0.0626
     49 H22         3.0162   -4.3650   -3.8166 H         1 <0>         0.0899
     50 H23         3.4756   -5.3452   -2.4026 H         1 <0>         0.0473
     51 H24         0.9832   -0.3431   -2.9356 H         1 <0>         0.0742
     52 H25        -0.5598   -1.2068   -3.1391 H         1 <0>         0.0662
     53 H26        -0.5560    0.5102   -2.6697 H         1 <0>         0.0851
@<TRIPOS>BOND
     1    1    2 1
     2    1   28 1
     3    1   29 1
     4    1   30 1
     5    2    6 1
     6    2    3 2
     7    3    4 1
     8    3   27 1
     9    4    5 1
    10    4   19 1
    11    5    6 2
    12    5    7 1
    13    7   12 ar
    14    7    8 ar
    15    8    9 ar
    16    8   31 1
    17    9   10 ar
    18    9   32 1
    19   10   11 ar
    20   10   33 1
    21   11   12 ar
    22   11   13 1
    23   12   34 1
    24   13   14 2
    25   13   35 1
    26   14   15 1
    27   14   36 1
    28   15   16 2
    29   15   17 am
    30   17   18 1
    31   17   37 1
    32   18   38 1
    33   19   20 1
    34   19   39 1
    35   19   40 1
    36   20   21 1
    37   20   41 1
    38   20   42 1
    39   21   26 1
    40   21   22 1
    41   22   23 1
    42   22   43 1
    43   22   44 1
    44   23   24 1
    45   23   45 1
    46   23   46 1
    47   24   25 1
    48   25   26 1
    49   25   47 1
    50   25   48 1
    51   26   49 1
    52   26   50 1
    53   27   51 1
    54   27   52 1
    55   27   53 1
@<TRIPOS>MOLECULE
CHEMBL1096705
   60    63     0     0     0
SMALL
USER_CHARGES

@<TRIPOS>ATOM
      1 C1          0.0023    1.4966   -0.1793 C.3       1 <0>        -0.0721
      2 C2          0.0109   -0.0070   -0.0792 C.2       1 <0>         0.0159
      3 C3         -0.0038   -0.8670   -1.1180 C.2       1 <0>        -0.0046
      4 N1          0.0113   -2.1308   -0.5923 N.pl3     1 <0>        -0.4423
      5 C4          0.0349   -1.9980    0.7652 C.2       1 <0>         0.2402
      6 N2          0.0402   -0.7160    1.0551 N.2       1 <0>        -0.4645
      7 C5          0.0574   -3.1073    1.7437 C.ar      1 <0>        -0.0076
      8 C6          0.4887   -4.3769    1.3522 C.ar      1 <0>        -0.1167
      9 C7          0.5104   -5.4148    2.2631 C.ar      1 <0>        -0.1157
     10 C8          0.1071   -5.2066    3.5665 C.ar      1 <0>        -0.0917
     11 C9         -0.3269   -3.9403    3.9731 C.ar      1 <0>        -0.0749
     12 C10        -0.3458   -2.8863    3.0576 C.ar      1 <0>        -0.0501
     13 C11        -0.7575   -3.7186    5.3635 C.2       1 <0>        -0.0012
     14 C12        -0.7340   -4.7365    6.2468 C.2       1 <0>        -0.2095
     15 C13        -1.1623   -4.5159    7.6296 C.2       1 <0>         0.5605
     16 O1         -1.5395   -3.4137    7.9813 O.2       1 <0>        -0.5227
     17 N3         -1.1388   -5.5337    8.5128 N.am      1 <0>        -0.5938
     18 O2         -1.5530   -5.3204    9.8500 O.3       1 <0>        -0.3157
     19 C14         0.0035   -3.3877   -1.3448 C.3       1 <0>         0.0953
     20 C15         1.4361   -3.7579   -1.7341 C.3       1 <0>        -0.1001
     21 C16         1.4281   -5.0509   -2.5082 C.ar      1 <0>        -0.0884
     22 C17         1.5381   -6.2566   -1.8411 C.ar      1 <0>        -0.1154
     23 C18         1.5307   -7.4426   -2.5512 C.ar      1 <0>        -0.1147
     24 C19         1.4129   -7.4229   -3.9283 C.ar      1 <0>        -0.1175
     25 C20         1.3020   -6.2173   -4.5954 C.ar      1 <0>        -0.1151
     26 C21         1.3050   -5.0315   -3.8849 C.ar      1 <0>        -0.1127
     27 C22        -0.0316   -0.5052   -2.5806 C.3       1 <0>        -0.0054
     28 C23        -1.4614   -0.3904   -3.0426 C.ar      1 <0>        -0.0798
     29 C24        -2.1194   -1.5011   -3.5368 C.ar      1 <0>        -0.1188
     30 C25        -3.4309   -1.3958   -3.9606 C.ar      1 <0>        -0.1166
     31 C26        -4.0847   -0.1798   -3.8898 C.ar      1 <0>        -0.1205
     32 C27        -3.4269    0.9307   -3.3948 C.ar      1 <0>        -0.1149
     33 C28        -2.1168    0.8244   -2.9670 C.ar      1 <0>        -0.1099
     34 H1          1.0276    1.8634   -0.2268 H         1 <0>         0.0695
     35 H2         -0.5334    1.7978   -1.0794 H         1 <0>         0.0687
     36 H3         -0.4935    1.9162    0.6961 H         1 <0>         0.0725
     37 H4          0.8058   -4.5475    0.3340 H         1 <0>         0.1346
     38 H5          0.8442   -6.3943    1.9538 H         1 <0>         0.1322
     39 H6          0.1262   -6.0227    4.2736 H         1 <0>         0.1321
     40 H7         -0.6756   -1.9053    3.3663 H         1 <0>         0.1424
     41 H8         -1.0923   -2.7404    5.6756 H         1 <0>         0.1420
     42 H9         -0.3993   -5.7147    5.9347 H         1 <0>         0.1351
     43 H10        -0.8382   -6.4123    8.2325 H         1 <0>         0.4093
     44 H11        -1.5011   -6.1083   10.4083 H         1 <0>         0.3887
     45 H12        -0.4210   -4.1787   -0.7266 H         1 <0>         0.1036
     46 H13        -0.5984   -3.2681   -2.2456 H         1 <0>         0.0961
     47 H14         1.8605   -2.9669   -2.3523 H         1 <0>         0.0851
     48 H15         2.0380   -3.8775   -0.8333 H         1 <0>         0.0848
     49 H16         1.6301   -6.2720   -0.7651 H         1 <0>         0.1217
     50 H17         1.6174   -8.3846   -2.0300 H         1 <0>         0.1247
     51 H18         1.4079   -8.3495   -4.4832 H         1 <0>         0.1238
     52 H19         1.2103   -6.2019   -5.6714 H         1 <0>         0.1244
     53 H20         1.2146   -4.0897   -4.4058 H         1 <0>         0.1220
     54 H21         0.4758    0.4481   -2.7288 H         1 <0>         0.0997
     55 H22         0.4752   -1.2798   -3.1562 H         1 <0>         0.0800
     56 H23        -1.6087   -2.4511   -3.5920 H         1 <0>         0.1152
     57 H24        -3.9448   -2.2634   -4.3473 H         1 <0>         0.1216
     58 H25        -5.1091   -0.0974   -4.2216 H         1 <0>         0.1222
     59 H26        -3.9376    1.8808   -3.3399 H         1 <0>         0.1240
     60 H27        -1.6041    1.6912   -2.5769 H         1 <0>         0.1252
@<TRIPOS>BOND
     1    1    2 1
     2    1   34 1
     3    1   35 1
     4    1   36 1
     5    2    6 1
     6    2    3 2
     7    3    4 1
     8    3   27 1
     9    4    5 1
    10    4   19 1
    11    5    6 2
    12    5    7 1
    13    7   12 ar
    14    7    8 ar
    15    8    9 ar
    16    8   37 1
    17    9   10 ar
    18    9   38 1
    19   10   11 ar
    20   10   39 1
    21   11   12 ar
    22   11   13 1
    23   12   40 1
    24   13   14 2
    25   13   41 1
    26   14   15 1
    27   14   42 1
    28   15   16 2
    29   15   17 am
    30   17   18 1
    31   17   43 1
    32   18   44 1
    33   19   20 1
    34   19   45 1
    35   19   46 1
    36   20   21 1
    37   20   47 1
    38   20   48 1
    39   21   26 ar
    40   21   22 ar
    41   22   23 ar
    42   22   49 1
    43   23   24 ar
    44   23   50 1
    45   24   25 ar
    46   24   51 1
    47   25   26 ar
    48   25   52 1
    49   26   53 1
    50   27   28 1
    51   27   54 1
    52   27   55 1
    53   28   33 ar
    54   28   29 ar
    55   29   30 ar
    56   29   56 1
    57   30   31 ar
    58   30   57 1
    59   31   32 ar
    60   31   58 1
    61   32   33 ar
    62   32   59 1
    63   33   60 1
@<TRIPOS>MOLECULE
CHEMBL1096705__1
   61    64     0     0     0
SMALL
USER_CHARGES

@<TRIPOS>ATOM
      1 C1         -0.2490    1.4895   -0.0073 C.3       1 <0>        -0.1043
      2 C2         -0.0963   -0.0097   -0.0055 C.2       1 <0>         0.0432
      3 C3          0.1122   -0.7829   -1.0906 C.2       1 <0>         0.0664
      4 N1          0.1918   -2.0769   -0.6514 N.pl3     1 <0>        -0.3931
      5 C4          0.0273   -2.0496    0.7025 C.cat     1 <0>         0.3589
      6 N2         -0.1386   -0.7996    1.0736 N.pl3     1 <0>        -0.4691
      7 C5          0.0401   -3.2252    1.6004 C.ar      1 <0>        -0.0845
      8 C6         -0.5470   -4.4247    1.1910 C.ar      1 <0>        -0.0749
      9 C7         -0.5373   -5.5239    2.0271 C.ar      1 <0>        -0.1020
     10 C8          0.0523   -5.4469    3.2726 C.ar      1 <0>        -0.0608
     11 C9          0.6446   -4.2523    3.6961 C.ar      1 <0>        -0.0516
     12 C10         0.6421   -3.1396    2.8526 C.ar      1 <0>        -0.0567
     13 C11         1.2730   -4.1702    5.0250 C.2       1 <0>        -0.0349
     14 C12         1.2782   -5.2471    5.8357 C.2       1 <0>        -0.1732
     15 C13         1.9033   -5.1655    7.1575 C.2       1 <0>         0.5549
     16 O1          2.4180   -4.1254    7.5239 O.2       1 <0>        -0.5178
     17 N3          1.9085   -6.2422    7.9681 N.am      1 <0>        -0.5890
     18 O2          2.5129   -6.1632    9.2462 O.3       1 <0>        -0.3109
     19 C14         0.4119   -3.2659   -1.4786 C.3       1 <0>         0.0815
     20 C15         1.9127   -3.4588   -1.7053 C.3       1 <0>        -0.0915
     21 C16         2.1391   -4.6818   -2.5561 C.ar      1 <0>        -0.1031
     22 C17         2.2996   -5.9185   -1.9599 C.ar      1 <0>        -0.1103
     23 C18         2.5073   -7.0404   -2.7404 C.ar      1 <0>        -0.1138
     24 C19         2.5540   -6.9256   -4.1171 C.ar      1 <0>        -0.1070
     25 C20         2.3926   -5.6889   -4.7135 C.ar      1 <0>        -0.1130
     26 C21         2.1806   -4.5677   -3.9331 C.ar      1 <0>        -0.1107
     27 C22         0.2344   -0.3115   -2.5167 C.3       1 <0>        -0.0167
     28 C23        -1.1285   -0.2970   -3.1595 C.ar      1 <0>        -0.1041
     29 C24        -1.5981   -1.4230   -3.8097 C.ar      1 <0>        -0.1164
     30 C25        -2.8483   -1.4097   -4.3993 C.ar      1 <0>        -0.1116
     31 C26        -3.6291   -0.2706   -4.3384 C.ar      1 <0>        -0.1062
     32 C27        -3.1600    0.8550   -3.6875 C.ar      1 <0>        -0.1107
     33 C28        -1.9115    0.8403   -3.0942 C.ar      1 <0>        -0.1090
     34 H1          0.7299    1.9546    0.1085 H         1 <0>         0.1032
     35 H2         -0.6936    1.8083   -0.9501 H         1 <0>         0.1050
     36 H3         -0.8940    1.7900    0.8185 H         1 <0>         0.0936
     37 H4         -1.0103   -4.4926    0.2178 H         1 <0>         0.1380
     38 H5         -0.9936   -6.4482    1.7048 H         1 <0>         0.1497
     39 H6          0.0560   -6.3101    3.9216 H         1 <0>         0.1467
     40 H7          1.1016   -2.2158    3.1718 H         1 <0>         0.1409
     41 H8          1.7298   -3.2472    5.3502 H         1 <0>         0.1468
     42 H9          0.8215   -6.1701    5.5105 H         1 <0>         0.1387
     43 H10         1.4983   -7.0712    7.6760 H         1 <0>         0.4110
     44 H11         2.4671   -6.9847    9.7544 H         1 <0>         0.3939
     45 H12         0.0055   -4.1413   -0.9719 H         1 <0>         0.1240
     46 H13        -0.0871   -3.1377   -2.4391 H         1 <0>         0.1240
     47 H14         2.3191   -2.5834   -2.2119 H         1 <0>         0.0893
     48 H15         2.4117   -3.5869   -0.7447 H         1 <0>         0.0882
     49 H16         2.2631   -6.0083   -0.8842 H         1 <0>         0.1219
     50 H17         2.6334   -8.0066   -2.2745 H         1 <0>         0.1280
     51 H18         2.7170   -7.8020   -4.7269 H         1 <0>         0.1285
     52 H19         2.4294   -5.5992   -5.7891 H         1 <0>         0.1287
     53 H20         2.0508   -3.6021   -4.3992 H         1 <0>         0.1231
     54 H21         0.6542    0.6943   -2.5322 H         1 <0>         0.1213
     55 H22         0.8889   -0.9869   -3.0678 H         1 <0>         0.1041
     56 H23        -0.9880   -2.3129   -3.8573 H         1 <0>         0.1183
     57 H24        -3.2148   -2.2891   -4.9079 H         1 <0>         0.1286
     58 H25        -4.6056   -0.2600   -4.7997 H         1 <0>         0.1295
     59 H26        -3.7699    1.7450   -3.6402 H         1 <0>         0.1303
     60 H27        -1.5465    1.7185   -2.5824 H         1 <0>         0.1264
     61 H28        -0.2733   -0.4978    1.9855 H         1 <0>         0.4599
@<TRIPOS>BOND
     1    1    2 1
     2    1   34 1
     3    1   35 1
     4    1   36 1
     5    2    6 1
     6    2    3 2
     7    3    4 1
     8    3   27 1
     9    4    5 1
    10    4   19 1
    11    5    6 2
    12    5    7 1
    13    6   61 1
    14    7   12 ar
    15    7    8 ar
    16    8    9 ar
    17    8   37 1
    18    9   10 ar
    19    9   38 1
    20   10   11 ar
    21   10   39 1
    22   11   12 ar
    23   11   13 1
    24   12   40 1
    25   13   14 2
    26   13   41 1
    27   14   15 1
    28   14   42 1
    29   15   16 2
    30   15   17 am
    31   17   18 1
    32   17   43 1
    33   18   44 1
    34   19   20 1
    35   19   45 1
    36   19   46 1
    37   20   21 1
    38   20   47 1
    39   20   48 1
    40   21   26 ar
    41   21   22 ar
    42   22   23 ar
    43   22   49 1
    44   23   24 ar
    45   23   50 1
    46   24   25 ar
    47   24   51 1
    48   25   26 ar
    49   25   52 1
    50   26   53 1
    51   27   28 1
    52   27   54 1
    53   27   55 1
    54   28   33 ar
    55   28   29 ar
    56   29   30 ar
    57   29   56 1
    58   30   31 ar
    59   30   57 1
    60   31   32 ar
    61   31   58 1
    62   32   33 ar
    63   32   59 1
    64   33   60 1
@<TRIPOS>MOLECULE
CHEMBL1096033
   56    58     0     0     0
SMALL
USER_CHARGES

@<TRIPOS>ATOM
      1 C1          1.0080   -1.5683   -6.9585 C.3       1 <0>        -0.1889
      2 C2          0.3805   -1.3634   -5.5782 C.3       1 <0>        -0.0109
      3 N1          1.2073   -2.0265   -4.5611 N.4       1 <0>        -0.3811
      4 C3          1.1947   -3.4761   -4.7913 C.3       1 <0>        -0.0176
      5 C4          2.1188   -4.1644   -3.7845 C.3       1 <0>        -0.1841
      6 C5          1.6290   -3.8673   -2.3643 C.3       1 <0>        -0.1600
      7 C6          1.5754   -2.3505   -2.1602 C.3       1 <0>         0.1170
      8 H1          1.1749   -2.1302   -1.1707 H         1 <0>         0.1381
      9 C7          0.6714   -1.7294   -3.2273 C.3       1 <0>        -0.0684
     10 N2          2.9253   -1.7932   -2.2767 N.pl3     1 <0>        -0.4709
     11 C8          4.0866   -2.4997   -2.4379 C.2       1 <0>        -0.0177
     12 C9          5.0901   -1.6009   -2.5004 C.2       1 <0>         0.0272
     13 N3          4.5668   -0.3753   -2.3816 N.2       1 <0>        -0.4463
     14 C10         3.2625   -0.4717   -2.2510 C.2       1 <0>         0.2338
     15 C11         2.3214    0.6595   -2.0993 C.ar      1 <0>        -0.0182
     16 C12         0.9813    0.4178   -1.7879 C.ar      1 <0>        -0.1588
     17 C13         0.1000    1.4716   -1.6456 C.ar      1 <0>        -0.1059
     18 C14         0.5353    2.7710   -1.8096 C.ar      1 <0>        -0.0903
     19 C15         1.8745    3.0285   -2.1216 C.ar      1 <0>        -0.0506
     20 C16         2.7709    1.9670   -2.2610 C.ar      1 <0>        -0.0508
     21 C17         2.3387    4.4147   -2.2965 C.2       1 <0>        -0.0252
     22 C18         1.4728    5.4382   -2.1561 C.2       1 <0>        -0.1842
     23 C19         1.9344    6.8169   -2.3300 C.2       1 <0>         0.5554
     24 O1          3.0998    7.0387   -2.6014 O.2       1 <0>        -0.5173
     25 N4          1.0687    7.8402   -2.1896 N.am      1 <0>        -0.5910
     26 O2          1.5150    9.1735   -2.3578 O.3       1 <0>        -0.3120
     27 C20         6.5522   -1.9224   -2.6737 C.3       1 <0>        -0.0787
     28 C21         4.2188   -3.9982   -2.5280 C.3       1 <0>        -0.1468
     29 H2          2.0103   -1.1399   -6.9692 H         1 <0>         0.0800
     30 H3          1.0664   -2.6347   -7.1764 H         1 <0>         0.0814
     31 H4          0.3945   -1.0763   -7.7132 H         1 <0>         0.1095
     32 H5          0.3222   -0.2970   -5.3603 H         1 <0>         0.1301
     33 H6         -0.6217   -1.7918   -5.5676 H         1 <0>         0.1322
     34 H7          0.1796   -3.8540   -4.6695 H         1 <0>         0.1310
     35 H8          1.5404   -3.6858   -5.8036 H         1 <0>         0.1353
     36 H9          2.1066   -5.2408   -3.9560 H         1 <0>         0.1247
     37 H10         3.1343   -3.7874   -3.9057 H         1 <0>         0.1232
     38 H11         0.6334   -4.2890   -2.2264 H         1 <0>         0.1092
     39 H12         2.3161   -4.3082   -1.6421 H         1 <0>         0.1305
     40 H13         0.6309   -0.6495   -3.0848 H         1 <0>         0.1729
     41 H14        -0.3325   -2.1445   -3.1388 H         1 <0>         0.1517
     42 H15         0.6332   -0.5963   -1.6583 H         1 <0>         0.1376
     43 H16        -0.9349    1.2779   -1.4051 H         1 <0>         0.1394
     44 H17        -0.1591    3.5905   -1.6973 H         1 <0>         0.1391
     45 H18         3.8071    2.1593   -2.4971 H         1 <0>         0.1490
     46 H19         3.3729    4.6116   -2.5374 H         1 <0>         0.1463
     47 H20         0.4386    5.2413   -1.9152 H         1 <0>         0.1365
     48 H21         0.1398    7.6634   -1.9732 H         1 <0>         0.4098
     49 H22         0.8230    9.8381   -2.2376 H         1 <0>         0.3923
     50 H23         6.7951   -1.9485   -3.7360 H         1 <0>         0.0750
     51 H24         7.1532   -1.1573   -2.1822 H         1 <0>         0.0788
     52 H25         6.7659   -2.8940   -2.2282 H         1 <0>         0.0749
     53 H26         4.6280   -4.2690   -3.5013 H         1 <0>         0.0871
     54 H27         4.8860   -4.3520   -1.7421 H         1 <0>         0.0845
     55 H28         3.2378   -4.4574   -2.4058 H         1 <0>         0.1207
     56 H29         2.1550   -1.6861   -4.6252 H         1 <0>         0.4214
@<TRIPOS>BOND
     1    1    2 1
     2    1   29 1
     3    1   30 1
     4    1   31 1
     5    2    3 1
     6    2   32 1
     7    2   33 1
     8    3    9 1
     9    3    4 1
    10    3   56 1
    11    4    5 1
    12    4   34 1
    13    4   35 1
    14    5    6 1
    15    5   36 1
    16    5   37 1
    17    6    7 1
    18    6   38 1
    19    6   39 1
    20    7    8 1
    21    7    9 1
    22    7   10 1
    23    9   40 1
    24    9   41 1
    25   10   14 1
    26   10   11 1
    27   11   12 2
    28   11   28 1
    29   12   13 1
    30   12   27 1
    31   13   14 2
    32   14   15 1
    33   15   20 ar
    34   15   16 ar
    35   16   17 ar
    36   16   42 1
    37   17   18 ar
    38   17   43 1
    39   18   19 ar
    40   18   44 1
    41   19   20 ar
    42   19   21 1
    43   20   45 1
    44   21   22 2
    45   21   46 1
    46   22   23 1
    47   22   47 1
    48   23   24 2
    49   23   25 am
    50   25   26 1
    51   25   48 1
    52   26   49 1
    53   27   50 1
    54   27   51 1
    55   27   52 1
    56   28   53 1
    57   28   54 1
    58   28   55 1
@<TRIPOS>MOLECULE
CHEMBL1096033__1
   56    58     0     0     0
SMALL
USER_CHARGES

@<TRIPOS>ATOM
      1 C1          0.9762   -0.2114   -6.6081 C.3       1 <0>        -0.1524
      2 C2          0.3344   -0.4949   -5.2485 C.3       1 <0>         0.0423
      3 N1          1.2066   -1.3855   -4.4714 N.3       1 <0>        -0.5424
      4 C3          1.3028   -2.7087   -5.1010 C.3       1 <0>         0.0450
      5 C4          2.3286   -3.5596   -4.3489 C.3       1 <0>        -0.1168
      6 C5          1.8949   -3.6996   -2.8871 C.3       1 <0>        -0.1645
      7 C6          1.7554   -2.3059   -2.2686 C.3       1 <0>         0.1329
      8 H1          1.4056   -2.3974   -1.2403 H         1 <0>         0.1231
      9 C7          0.7462   -1.4913   -3.0810 C.3       1 <0>         0.0145
     10 N2          3.0558   -1.6312   -2.2847 N.pl3     1 <0>        -0.3781
     11 C8          3.2864   -0.3149   -2.5808 C.2       1 <0>         0.0946
     12 C9          4.6158   -0.1137   -2.4767 C.2       1 <0>         0.0215
     13 N3          5.1913   -1.2698   -2.1267 N.pl3     1 <0>        -0.4669
     14 C10         4.2655   -2.1944   -2.0016 C.cat     1 <0>         0.3449
     15 C11         4.4964   -3.6053   -1.6214 C.ar      1 <0>        -0.0818
     16 C12         3.6396   -4.2350   -0.7155 C.ar      1 <0>        -0.0680
     17 C13         3.8523   -5.5521   -0.3585 C.ar      1 <0>        -0.1078
     18 C14         4.9120   -6.2565   -0.8930 C.ar      1 <0>        -0.0616
     19 C15         5.7784   -5.6390   -1.8013 C.ar      1 <0>        -0.0538
     20 C16         5.5645   -4.3095   -2.1701 C.ar      1 <0>        -0.0568
     21 C17         6.9088   -6.3907   -2.3714 C.2       1 <0>        -0.0335
     22 C18         7.1101   -7.6759   -2.0182 C.2       1 <0>        -0.1749
     23 C19         8.2344   -8.4235   -2.5852 C.2       1 <0>         0.5550
     24 O1          8.9869   -7.8845   -3.3752 O.2       1 <0>        -0.5181
     25 N4          8.4357   -9.7085   -2.2320 N.am      1 <0>        -0.5893
     26 O2          9.5228  -10.4314   -2.7803 O.3       1 <0>        -0.3111
     27 C20         5.3315    1.1909   -2.7147 C.3       1 <0>        -0.0967
     28 C21         2.2508    0.7146   -2.9533 C.3       1 <0>        -0.1353
     29 H2          1.9445    0.2668   -6.4601 H         1 <0>         0.0637
     30 H3          1.1124   -1.1484   -7.1481 H         1 <0>         0.0582
     31 H4          0.3290    0.4495   -7.1847 H         1 <0>         0.0687
     32 H5          0.1982    0.4421   -4.7085 H         1 <0>         0.0836
     33 H6         -0.6339   -0.9730   -5.3964 H         1 <0>         0.0469
     34 H7          0.3297   -3.1986   -5.0670 H         1 <0>         0.0478
     35 H8          1.6160   -2.5952   -6.1388 H         1 <0>         0.0908
     36 H9          2.3883   -4.5469   -4.8069 H         1 <0>         0.0850
     37 H10         3.3049   -3.0772   -4.3942 H         1 <0>         0.0633
     38 H11         0.9367   -4.2169   -2.8394 H         1 <0>         0.1026
     39 H12         2.6449   -4.2686   -2.3376 H         1 <0>         0.1013
     40 H13         0.6552   -0.4935   -2.6517 H         1 <0>         0.1119
     41 H14        -0.2243   -1.9869   -3.0565 H         1 <0>         0.0784
     42 H15         2.8084   -3.6901   -0.2928 H         1 <0>         0.1359
     43 H16         3.1864   -6.0330    0.3427 H         1 <0>         0.1492
     44 H17         5.0729   -7.2861   -0.6092 H         1 <0>         0.1459
     45 H18         6.2269   -3.8284   -2.8745 H         1 <0>         0.1403
     46 H19         7.5767   -5.9124   -3.0725 H         1 <0>         0.1463
     47 H20         6.4423   -8.1542   -1.3171 H         1 <0>         0.1384
     48 H21         7.8358  -10.1381   -1.6023 H         1 <0>         0.4109
     49 H22         9.5856  -11.3444   -2.4678 H         1 <0>         0.3938
     50 H23         5.3895    1.7493   -1.7804 H         1 <0>         0.0977
     51 H24         6.3383    0.9913   -3.0818 H         1 <0>         0.0887
     52 H25         4.7845    1.7758   -3.4542 H         1 <0>         0.1042
     53 H26         1.7646    1.0840   -2.0504 H         1 <0>         0.0912
     54 H27         2.7326    1.5436   -3.4716 H         1 <0>         0.0988
     55 H28         1.5061    0.2608   -3.6072 H         1 <0>         0.1353
     56 H29         6.1415   -1.4037   -1.9847 H         1 <0>         0.4574
@<TRIPOS>BOND
     1    1    2 1
     2    1   29 1
     3    1   30 1
     4    1   31 1
     5    2    3 1
     6    2   32 1
     7    2   33 1
     8    3    9 1
     9    3    4 1
    10    4    5 1
    11    4   34 1
    12    4   35 1
    13    5    6 1
    14    5   36 1
    15    5   37 1
    16    6    7 1
    17    6   38 1
    18    6   39 1
    19    7    8 1
    20    7    9 1
    21    7   10 1
    22    9   40 1
    23    9   41 1
    24   10   14 1
    25   10   11 1
    26   11   12 2
    27   11   28 1
    28   12   13 1
    29   12   27 1
    30   13   14 2
    31   13   56 1
    32   14   15 1
    33   15   20 ar
    34   15   16 ar
    35   16   17 ar
    36   16   42 1
    37   17   18 ar
    38   17   43 1
    39   18   19 ar
    40   18   44 1
    41   19   20 ar
    42   19   21 1
    43   20   45 1
    44   21   22 2
    45   21   46 1
    46   22   23 1
    47   22   47 1
    48   23   24 2
    49   23   25 am
    50   25   26 1
    51   25   48 1
    52   26   49 1
    53   27   50 1
    54   27   51 1
    55   27   52 1
    56   28   53 1
    57   28   54 1
    58   28   55 1
@<TRIPOS>MOLECULE
CHEMBL1096033__2
   57    59     0     0     0
SMALL
USER_CHARGES

@<TRIPOS>ATOM
      1 C1          0.7440   -0.5530   -6.7068 C.3       1 <0>        -0.1915
      2 C2          0.1938   -0.7501   -5.2928 C.3       1 <0>        -0.0207
      3 N1          1.1110   -1.6029   -4.5250 N.4       1 <0>        -0.3967
      4 C3          1.1503   -2.9417   -5.1256 C.3       1 <0>        -0.0208
      5 C4          2.1651   -3.8102   -4.3789 C.3       1 <0>        -0.1461
      6 C5          1.7505   -3.9205   -2.9088 C.3       1 <0>        -0.1817
      7 C6          1.6405   -2.5141   -2.3128 C.3       1 <0>         0.1148
      8 H1          1.2919   -2.5818   -1.2822 H         1 <0>         0.1625
      9 C7          0.6452   -1.6936   -3.1360 C.3       1 <0>        -0.0375
     10 N2          2.9538   -1.8657   -2.3434 N.pl3     1 <0>        -0.4230
     11 C8          3.2086   -0.5569   -2.6530 C.2       1 <0>        -0.0032
     12 C9          4.5424   -0.3814   -2.5593 C.2       1 <0>         0.0802
     13 N3          5.0971   -1.5455   -2.2026 N.pl3     1 <0>        -0.4678
     14 C10         4.1540   -2.4503   -2.0630 C.cat     1 <0>         0.3953
     15 C11         4.3593   -3.8621   -1.6716 C.ar      1 <0>        -0.1091
     16 C12         3.5133   -4.4581   -0.7334 C.ar      1 <0>        -0.0736
     17 C13         3.7022   -5.7759   -0.3658 C.ar      1 <0>        -0.1007
     18 C14         4.7274   -6.5142   -0.9215 C.ar      1 <0>        -0.0522
     19 C15         5.5826   -5.9307   -1.8622 C.ar      1 <0>        -0.0403
     20 C16         5.3925   -4.6005   -2.2417 C.ar      1 <0>        -0.0554
     21 C17         6.6761   -6.7186   -2.4549 C.2       1 <0>        -0.0534
     22 C18         6.8544   -8.0042   -2.0912 C.2       1 <0>        -0.1541
     23 C19         7.9420   -8.7878   -2.6807 C.2       1 <0>         0.5509
     24 O1          8.6849   -8.2783   -3.4989 O.2       1 <0>        -0.5151
     25 N4          8.1202  -10.0733   -2.3170 N.am      1 <0>        -0.5864
     26 O2          9.1719  -10.8310   -2.8870 O.3       1 <0>        -0.3081
     27 C20         5.2823    0.9066   -2.8138 C.3       1 <0>        -0.1130
     28 C21         2.1912    0.4896   -3.0281 C.3       1 <0>        -0.1270
     29 H2          1.7231   -0.0771   -6.6526 H         1 <0>         0.0803
     30 H3          0.8374   -1.5213   -7.1986 H         1 <0>         0.0851
     31 H4          0.0635    0.0798   -7.2765 H         1 <0>         0.1180
     32 H5          0.1005    0.2181   -4.8010 H         1 <0>         0.1381
     33 H6         -0.7853   -1.2261   -5.3470 H         1 <0>         0.1437
     34 H7          0.1630   -3.3985   -5.0588 H         1 <0>         0.1445
     35 H8          1.4424   -2.8612   -6.1726 H         1 <0>         0.1445
     36 H9          2.1915   -4.8043   -4.8252 H         1 <0>         0.1331
     37 H10         3.1529   -3.3544   -4.4453 H         1 <0>         0.0772
     38 H11         0.7855   -4.4225   -2.8389 H         1 <0>         0.1292
     39 H12         2.5001   -4.4911   -2.3606 H         1 <0>         0.1290
     40 H13         0.5643   -0.6918   -2.7142 H         1 <0>         0.1619
     41 H14        -0.3314   -2.1771   -3.1116 H         1 <0>         0.1734
     42 H15         2.7091   -3.8866   -0.2940 H         1 <0>         0.1374
     43 H16         3.0448   -6.2307    0.3604 H         1 <0>         0.1553
     44 H17         4.8698   -7.5442   -0.6292 H         1 <0>         0.1522
     45 H18         6.0463   -4.1455   -2.9710 H         1 <0>         0.1435
     46 H19         7.3354   -6.2664   -3.1811 H         1 <0>         0.1490
     47 H20         6.1951   -8.4564   -1.3651 H         1 <0>         0.1400
     48 H21         7.5281  -10.4794   -1.6648 H         1 <0>         0.4117
     49 H22         9.2201  -11.7415   -2.5648 H         1 <0>         0.3971
     50 H23         5.3576    1.4720   -1.8850 H         1 <0>         0.1132
     51 H24         6.2824    0.6837   -3.1855 H         1 <0>         0.1014
     52 H25         4.7421    1.4956   -3.5550 H         1 <0>         0.1108
     53 H26         1.7166    0.8749   -2.1256 H         1 <0>         0.1234
     54 H27         2.6863    1.3054   -3.5547 H         1 <0>         0.1268
     55 H28         1.4347    0.0455   -3.6751 H         1 <0>         0.0695
     56 H29         2.0364   -1.2012   -4.5427 H         1 <0>         0.4152
     57 H30         6.0454   -1.6970   -2.0655 H         1 <0>         0.4689
@<TRIPOS>BOND
     1    1    2 1
     2    1   29 1
     3    1   30 1
     4    1   31 1
     5    2    3 1
     6    2   32 1
     7    2   33 1
     8    3    9 1
     9    3    4 1
    10    3   56 1
    11    4    5 1
    12    4   34 1
    13    4   35 1
    14    5    6 1
    15    5   36 1
    16    5   37 1
    17    6    7 1
    18    6   38 1
    19    6   39 1
    20    7    8 1
    21    7    9 1
    22    7   10 1
    23    9   40 1
    24    9   41 1
    25   10   14 1
    26   10   11 1
    27   11   12 2
    28   11   28 1
    29   12   13 1
    30   12   27 1
    31   13   14 2
    32   13   57 1
    33   14   15 1
    34   15   20 ar
    35   15   16 ar
    36   16   17 ar
    37   16   42 1
    38   17   18 ar
    39   17   43 1
    40   18   19 ar
    41   18   44 1
    42   19   20 ar
    43   19   21 1
    44   20   45 1
    45   21   22 2
    46   21   46 1
    47   22   23 1
    48   22   47 1
    49   23   24 2
    50   23   25 am
    51   25   26 1
    52   25   48 1
    53   26   49 1
    54   27   50 1
    55   27   51 1
    56   27   52 1
    57   28   53 1
    58   28   54 1
    59   28   55 1
@<TRIPOS>MOLECULE
CHEMBL1095719
   51    53     0     0     0
SMALL
USER_CHARGES

@<TRIPOS>ATOM
      1 C1         -0.2473    1.4897   -0.0067 C.3       1 <0>        -0.0998
      2 C2         -0.0955   -0.0097   -0.0052 C.2       1 <0>         0.0351
      3 C3          0.1135   -0.7826   -1.0904 C.2       1 <0>         0.0589
      4 N1          0.1918   -2.0768   -0.6515 N.pl3     1 <0>        -0.3978
      5 C4          0.0261   -2.0498    0.7022 C.cat     1 <0>         0.3576
      6 N2         -0.1394   -0.7999    1.0735 N.pl3     1 <0>        -0.4690
      7 C5          0.0372   -3.2257    1.5998 C.ar      1 <0>        -0.0851
      8 C6         -0.5503   -4.4247    1.1894 C.ar      1 <0>        -0.0751
      9 C7         -0.5421   -5.5242    2.0251 C.ar      1 <0>        -0.1021
     10 C8          0.0464   -5.4480    3.2712 C.ar      1 <0>        -0.0609
     11 C9          0.6391   -4.2540    3.6956 C.ar      1 <0>        -0.0515
     12 C10         0.6382   -3.1410    2.8525 C.ar      1 <0>        -0.0570
     13 C11         1.2664   -4.1727    5.0251 C.2       1 <0>        -0.0353
     14 C12         1.2702   -5.2499    5.8356 C.2       1 <0>        -0.1730
     15 C13         1.8940   -5.1691    7.1579 C.2       1 <0>         0.5549
     16 O1          2.4091   -4.1295    7.5251 O.2       1 <0>        -0.5179
     17 N3          1.8978   -6.2460    7.9681 N.am      1 <0>        -0.5890
     18 O2          2.5011   -6.1679    9.2468 O.3       1 <0>        -0.3109
     19 C14         0.4119   -3.2657   -1.4789 C.3       1 <0>         0.0848
     20 C15         1.9127   -3.4589   -1.7051 C.3       1 <0>        -0.0904
     21 C16         2.1390   -4.6818   -2.5562 C.ar      1 <0>        -0.1035
     22 C17         2.2990   -5.9187   -1.9602 C.ar      1 <0>        -0.1108
     23 C18         2.5067   -7.0404   -2.7408 C.ar      1 <0>        -0.1141
     24 C19         2.5539   -6.9253   -4.1176 C.ar      1 <0>        -0.1072
     25 C20         2.3930   -5.6885   -4.7137 C.ar      1 <0>        -0.1135
     26 C21         2.1811   -4.5674   -3.9332 C.ar      1 <0>        -0.1102
     27 C22         0.2373   -0.3109   -2.5163 C.3       1 <0>        -0.0989
     28 H1          0.7319    1.9541    0.1101 H         1 <0>         0.1014
     29 H2         -0.6907    1.8091   -0.9498 H         1 <0>         0.1064
     30 H3         -0.8928    1.7903    0.8186 H         1 <0>         0.0912
     31 H4         -1.0127   -4.4920    0.2157 H         1 <0>         0.1384
     32 H5         -0.9987   -6.4481    1.7021 H         1 <0>         0.1498
     33 H6          0.0490   -6.3114    3.9199 H         1 <0>         0.1468
     34 H7          1.0980   -2.2176    3.1724 H         1 <0>         0.1407
     35 H8          1.7235   -3.2501    5.3511 H         1 <0>         0.1468
     36 H9          0.8131   -6.1725    5.5096 H         1 <0>         0.1388
     37 H10         1.4873   -7.0747    7.6754 H         1 <0>         0.4111
     38 H11         2.4542   -6.9895    9.7547 H         1 <0>         0.3940
     39 H12         0.0051   -4.1410   -0.9726 H         1 <0>         0.1231
     40 H13        -0.0868   -3.1371   -2.4396 H         1 <0>         0.1256
     41 H14         2.3194   -2.5835   -2.2114 H         1 <0>         0.0892
     42 H15         2.4113   -3.5874   -0.7445 H         1 <0>         0.0866
     43 H16         2.2622   -6.0086   -0.8845 H         1 <0>         0.1218
     44 H17         2.6324   -8.0067   -2.2751 H         1 <0>         0.1280
     45 H18         2.7168   -7.8016   -4.7275 H         1 <0>         0.1286
     46 H19         2.4302   -5.5985   -5.7893 H         1 <0>         0.1288
     47 H20         2.0516   -3.6017   -4.3991 H         1 <0>         0.1236
     48 H21         1.2824   -0.0946   -2.7380 H         1 <0>         0.1027
     49 H22        -0.1234   -1.0889   -3.1890 H         1 <0>         0.0904
     50 H23        -0.3575    0.5922   -2.6531 H         1 <0>         0.1076
     51 H24        -0.2747   -0.4982    1.9854 H         1 <0>         0.4599
@<TRIPOS>BOND
     1    1    2 1
     2    1   28 1
     3    1   29 1
     4    1   30 1
     5    2    6 1
     6    2    3 2
     7    3    4 1
     8    3   27 1
     9    4    5 1
    10    4   19 1
    11    5    6 2
    12    5    7 1
    13    6   51 1
    14    7   12 ar
    15    7    8 ar
    16    8    9 ar
    17    8   31 1
    18    9   10 ar
    19    9   32 1
    20   10   11 ar
    21   10   33 1
    22   11   12 ar
    23   11   13 1
    24   12   34 1
    25   13   14 2
    26   13   35 1
    27   14   15 1
    28   14   36 1
    29   15   16 2
    30   15   17 am
    31   17   18 1
    32   17   37 1
    33   18   38 1
    34   19   20 1
    35   19   39 1
    36   19   40 1
    37   20   21 1
    38   20   41 1
    39   20   42 1
    40   21   26 ar
    41   21   22 ar
    42   22   23 ar
    43   22   43 1
    44   23   24 ar
    45   23   44 1
    46   24   25 ar
    47   24   45 1
    48   25   26 ar
    49   25   46 1
    50   26   47 1
    51   27   48 1
    52   27   49 1
    53   27   50 1
@<TRIPOS>MOLECULE
CHEMBL340721
   47    49     0     0     0
SMALL
USER_CHARGES

@<TRIPOS>ATOM
      1 C1         -0.0164    1.3567    0.0095 C.ar      1 <0>        -0.0933
      2 C2          1.1686    2.0905    0.0021 C.ar      1 <0>        -0.1213
      3 C3          2.3785    1.4675   -0.0131 C.ar      1 <0>        -0.0906
      4 C4          2.4375    0.0634   -0.0211 C.ar      1 <0>        -0.0797
      5 C5          3.6681   -0.6153   -0.0364 C.ar      1 <0>         0.0136
      6 C6          3.6865   -1.9761   -0.0434 C.ar      1 <0>        -0.6563
      7 C7          2.5015   -2.7098   -0.0357 C.ar      1 <0>        -0.0488
      8 C8          1.2917   -2.0868   -0.0209 C.ar      1 <0>        -0.1164
      9 C9          1.2327   -0.6827   -0.0133 C.ar      1 <0>        -0.0137
     10 C10         0.0021   -0.0041    0.0020 C.ar      1 <0>        -0.1192
     11 S1          5.2315   -2.8230   -0.0631 S.o2      1 <0>         2.4919
     12 O1          4.9499   -4.0769   -0.6694 O.2       1 <0>        -0.9327
     13 O2          6.1368   -1.9116   -0.6704 O.2       1 <0>        -0.9356
     14 C11         5.6577   -3.0558    1.6847 C.3       1 <0>        -0.6053
     15 C12         6.9962   -3.7895    1.7898 C.3       1 <0>        -0.1162
     16 C13         7.3558   -3.9859    3.2640 C.3       1 <0>        -0.1120
     17 C14         8.6943   -4.7195    3.3691 C.3       1 <0>        -0.1240
     18 C15         9.0538   -4.9159    4.8432 C.3       1 <0>        -0.1148
     19 C16        10.3923   -5.6496    4.9484 C.3       1 <0>        -0.1405
     20 C17        10.7465   -5.8430    6.4003 C.2       1 <0>         0.4510
     21 O3         10.0014   -5.4342    7.2661 O.2       1 <0>        -0.4239
     22 C18        11.9913   -6.5252    6.7666 C.2       1 <0>         0.0968
     23 N1         12.8801   -7.0062    5.9243 N.2       1 <0>        -0.4191
     24 C19        13.8758   -7.5532    6.6200 C.2       1 <0>        -0.0439
     25 C20        13.5930   -7.4053    7.9369 C.2       1 <0>        -0.0389
     26 O4         12.4195   -6.7594    8.0215 O.3       1 <0>        -0.1709
     27 H1         -0.9633    1.8757    0.0259 H         1 <0>         0.1291
     28 H2          1.1260    3.1696    0.0083 H         1 <0>         0.1295
     29 H3          3.2884    2.0491   -0.0194 H         1 <0>         0.1343
     30 H4          4.5943   -0.0599   -0.0428 H         1 <0>         0.1481
     31 H5          2.5441   -3.7890   -0.0419 H         1 <0>         0.1418
     32 H6          0.3816   -2.6684   -0.0154 H         1 <0>         0.1372
     33 H7         -0.9241   -0.5595    0.0082 H         1 <0>         0.1331
     34 H8          5.7368   -2.0840    2.1720 H         1 <0>         0.1363
     35 H9          4.8812   -3.6449    2.1727 H         1 <0>         0.1375
     36 H10         6.9172   -4.7613    1.3025 H         1 <0>         0.0828
     37 H11         7.7728   -3.2004    1.3018 H         1 <0>         0.0826
     38 H12         7.4349   -3.0141    3.7513 H         1 <0>         0.0695
     39 H13         6.5793   -4.5749    3.7520 H         1 <0>         0.0697
     40 H14         8.6152   -5.6913    2.8818 H         1 <0>         0.0699
     41 H15         9.4708   -4.1305    2.8811 H         1 <0>         0.0698
     42 H16         9.1329   -3.9441    5.3305 H         1 <0>         0.0727
     43 H17         8.2773   -5.5050    5.3312 H         1 <0>         0.0727
     44 H18        10.3133   -6.6214    4.4611 H         1 <0>         0.1123
     45 H19        11.1688   -5.0605    4.4603 H         1 <0>         0.1123
     46 H20        14.7525   -8.0303    6.2075 H         1 <0>         0.1962
     47 H21        14.2004   -7.7415    8.7643 H         1 <0>         0.2265
@<TRIPOS>BOND
     1    1   10 ar
     2    1    2 ar
     3    1   27 1
     4    2    3 ar
     5    2   28 1
     6    3    4 ar
     7    3   29 1
     8    4    9 ar
     9    4    5 ar
    10    5    6 ar
    11    5   30 1
    12    6    7 ar
    13    6   11 1
    14    7    8 ar
    15    7   31 1
    16    8    9 ar
    17    8   32 1
    18    9   10 ar
    19   10   33 1
    20   11   12 2
    21   11   13 2
    22   11   14 1
    23   14   15 1
    24   14   34 1
    25   14   35 1
    26   15   16 1
    27   15   36 1
    28   15   37 1
    29   16   17 1
    30   16   38 1
    31   16   39 1
    32   17   18 1
    33   17   40 1
    34   17   41 1
    35   18   19 1
    36   18   42 1
    37   18   43 1
    38   19   20 1
    39   19   44 1
    40   19   45 1
    41   20   21 2
    42   20   22 1
    43   22   26 1
    44   22   23 2
    45   23   24 1
    46   24   25 2
    47   24   46 1
    48   25   26 1
    49   25   47 1
@<TRIPOS>MOLECULE
CHEMBL127606
   45    47     0     0     0
SMALL
USER_CHARGES

@<TRIPOS>ATOM
      1 C1         -0.0164    1.3569    0.0095 C.ar      1 <0>        -0.1179
      2 C2          1.1683    2.0910    0.0021 C.ar      1 <0>        -0.1106
      3 C3          2.3781    1.4678   -0.0128 C.ar      1 <0>        -0.1077
      4 C4          2.4371    0.0630   -0.0208 C.ar      1 <0>        -0.0340
      5 C5          3.6677   -0.6129   -0.0357 C.ar      1 <0>        -0.0878
      6 C6          3.6850   -1.9910   -0.0428 C.ar      1 <0>        -0.0806
      7 C7          2.4890   -2.7204   -0.0359 C.ar      1 <0>        -0.1294
      8 C8          1.2861   -2.0887   -0.0216 C.ar      1 <0>        -0.0834
      9 C9          1.2320   -0.6835   -0.0134 C.ar      1 <0>        -0.0588
     10 C10         0.0021   -0.0041    0.0020 C.ar      1 <0>        -0.1026
     11 S1          5.2267   -2.8439   -0.0614 S.3       1 <0>        -0.1194
     12 C11         4.7586   -4.5965   -0.0660 C.3       1 <0>        -0.1069
     13 C12         6.0206   -5.4613   -0.0821 C.3       1 <0>        -0.1043
     14 C13         5.6259   -6.9395   -0.0859 C.3       1 <0>        -0.1147
     15 C14         6.8879   -7.8044   -0.1020 C.3       1 <0>        -0.1188
     16 C15         6.4931   -9.2826   -0.1059 C.3       1 <0>        -0.1148
     17 C16         7.7551  -10.1474   -0.1219 C.3       1 <0>        -0.1398
     18 C17         7.3663  -11.6034   -0.1257 C.2       1 <0>         0.4507
     19 O1          6.1947  -11.9184   -0.1165 O.2       1 <0>        -0.4236
     20 C18         8.4037  -12.6391   -0.1406 C.2       1 <0>         0.0969
     21 N1          9.7019  -12.4259   -0.1458 N.2       1 <0>        -0.4194
     22 C19        10.3280  -13.6017   -0.1588 C.2       1 <0>        -0.0440
     23 C20         9.3849  -14.5747   -0.1618 C.2       1 <0>        -0.0389
     24 O2          8.1877  -13.9682   -0.1454 O.3       1 <0>        -0.1708
     25 H1         -0.9634    1.8758    0.0259 H         1 <0>         0.1245
     26 H2          1.1257    3.1701    0.0080 H         1 <0>         0.1251
     27 H3          3.2881    2.0493   -0.0187 H         1 <0>         0.1289
     28 H4          4.5937   -0.0571   -0.0417 H         1 <0>         0.1330
     29 H5          2.5235   -3.7999   -0.0425 H         1 <0>         0.1242
     30 H6          0.3728   -2.6650   -0.0168 H         1 <0>         0.1310
     31 H7         -0.9243   -0.5592    0.0082 H         1 <0>         0.1277
     32 H8          4.1767   -4.8195    0.8283 H         1 <0>         0.0883
     33 H9          4.1603   -4.8104   -0.9516 H         1 <0>         0.0883
     34 H10         6.6026   -5.2383   -0.9763 H         1 <0>         0.0749
     35 H11         6.6190   -5.2474    0.8035 H         1 <0>         0.0749
     36 H12         5.0439   -7.1625    0.8083 H         1 <0>         0.0666
     37 H13         5.0275   -7.1535   -0.9715 H         1 <0>         0.0666
     38 H14         7.4698   -7.5814   -0.9963 H         1 <0>         0.0678
     39 H15         7.4863   -7.5904    0.7836 H         1 <0>         0.0678
     40 H16         5.9112   -9.5056    0.7884 H         1 <0>         0.0722
     41 H17         5.8947   -9.4965   -0.9914 H         1 <0>         0.0722
     42 H18         8.3370   -9.9244   -1.0162 H         1 <0>         0.1117
     43 H19         8.3535   -9.9335    0.7637 H         1 <0>         0.1118
     44 H20        11.3973  -13.7526   -0.1663 H         1 <0>         0.1962
     45 H21         9.5634  -15.6398   -0.1721 H         1 <0>         0.2266
@<TRIPOS>BOND
     1    1   10 ar
     2    1    2 ar
     3    1   25 1
     4    2    3 ar
     5    2   26 1
     6    3    4 ar
     7    3   27 1
     8    4    9 ar
     9    4    5 ar
    10    5    6 ar
    11    5   28 1
    12    6    7 ar
    13    6   11 1
    14    7    8 ar
    15    7   29 1
    16    8    9 ar
    17    8   30 1
    18    9   10 ar
    19   10   31 1
    20   11   12 1
    21   12   13 1
    22   12   32 1
    23   12   33 1
    24   13   14 1
    25   13   34 1
    26   13   35 1
    27   14   15 1
    28   14   36 1
    29   14   37 1
    30   15   16 1
    31   15   38 1
    32   15   39 1
    33   16   17 1
    34   16   40 1
    35   16   41 1
    36   17   18 1
    37   17   42 1
    38   17   43 1
    39   18   19 2
    40   18   20 1
    41   20   24 1
    42   20   21 2
    43   21   22 1
    44   22   23 2
    45   22   44 1
    46   23   24 1
    47   23   45 1
@<TRIPOS>MOLECULE
CHEMBL127627
   53    56     0     0     0
SMALL
USER_CHARGES

@<TRIPOS>ATOM
      1 C1         -0.0167    1.3791    0.0096 C.ar      1 <0>        -0.1124
      2 C2          1.1686    2.0923    0.0021 C.ar      1 <0>        -0.1182
      3 C3          2.3774    1.4267   -0.0130 C.ar      1 <0>        -0.1048
      4 C4          2.4025    0.0330   -0.0207 C.ar      1 <0>        -0.0573
      5 C5          1.2049   -0.6804   -0.0131 C.ar      1 <0>        -0.1054
      6 C6          0.0021   -0.0041    0.0020 C.ar      1 <0>        -0.1186
      7 C7          3.6981   -0.6880   -0.0375 C.ar      1 <0>        -0.0147
      8 C8          4.8947    0.0289   -0.0398 C.ar      1 <0>        -0.1131
      9 C9          6.0982   -0.6395   -0.0558 C.ar      1 <0>        -0.0603
     10 C10         6.1208   -2.0361   -0.0693 C.ar      1 <0>        -0.0290
     11 C11         4.9221   -2.7531   -0.0665 C.ar      1 <0>        -0.0778
     12 C12         3.7196   -2.0827   -0.0452 C.ar      1 <0>        -0.1137
     13 C13         7.4117   -2.7544   -0.0870 C.2       1 <0>         0.2079
     14 N1          8.6061   -2.2096   -0.0861 N.2       1 <0>        -0.2741
     15 N2          9.4960   -3.1387   -0.1045 N.2       1 <0>        -0.2811
     16 C14         8.9100   -4.3034   -0.1177 C.2       1 <0>         0.1691
     17 O1          7.5827   -4.0917   -0.1012 O.3       1 <0>        -0.2197
     18 C15         9.5967   -5.6447   -0.1408 C.3       1 <0>        -0.0252
     19 C16         9.8368   -6.1194    1.2937 C.3       1 <0>        -0.1184
     20 C17        10.5340   -7.4811    1.2702 C.3       1 <0>        -0.1186
     21 C18        10.7742   -7.9559    2.7047 C.3       1 <0>        -0.1197
     22 C19        11.4714   -9.3176    2.6813 C.3       1 <0>        -0.1147
     23 C20        11.7115   -9.7924    4.1158 C.3       1 <0>        -0.1401
     24 C21        12.3983  -11.1337    4.0927 C.2       1 <0>         0.4508
     25 O2         12.6690  -11.6584    3.0328 O.2       1 <0>        -0.4232
     26 C22        12.7391  -11.8044    5.3509 C.2       1 <0>         0.0970
     27 N3         12.4939  -11.3429    6.5583 N.2       1 <0>        -0.4195
     28 C23        12.9440  -12.2228    7.4515 C.2       1 <0>        -0.0442
     29 C24        13.4858  -13.2634    6.7734 C.2       1 <0>        -0.0388
     30 O3         13.3504  -12.9988    5.4646 O.3       1 <0>        -0.1707
     31 H1         -0.9603    1.9042    0.0260 H         1 <0>         0.1248
     32 H2          1.1480    3.1721    0.0078 H         1 <0>         0.1267
     33 H3          3.3022    1.9845   -0.0192 H         1 <0>         0.1278
     34 H4          1.2184   -1.7603   -0.0194 H         1 <0>         0.1269
     35 H5         -0.9264   -0.5557    0.0083 H         1 <0>         0.1263
     36 H6          4.8771    1.1087   -0.0293 H         1 <0>         0.1387
     37 H7          7.0246   -0.0843   -0.0583 H         1 <0>         0.1434
     38 H8          4.9384   -3.8329   -0.0773 H         1 <0>         0.1346
     39 H9          2.7927   -2.6369   -0.0390 H         1 <0>         0.1366
     40 H10         8.9673   -6.3662   -0.6618 H         1 <0>         0.0996
     41 H11        10.5517   -5.5550   -0.6585 H         1 <0>         0.1145
     42 H12        10.4662   -5.3979    1.8146 H         1 <0>         0.0749
     43 H13         8.8819   -6.2091    1.8114 H         1 <0>         0.0693
     44 H14         9.9047   -8.2027    0.7493 H         1 <0>         0.0686
     45 H15        11.4890   -7.3915    0.7525 H         1 <0>         0.0704
     46 H16        11.4036   -7.2344    3.2257 H         1 <0>         0.0678
     47 H17         9.8192   -8.0456    3.2225 H         1 <0>         0.0666
     48 H18        10.8420  -10.0391    2.1603 H         1 <0>         0.0725
     49 H19        12.4264   -9.2280    2.1636 H         1 <0>         0.0732
     50 H20        12.3409   -9.0709    4.6368 H         1 <0>         0.1117
     51 H21        10.7566   -9.8821    4.6335 H         1 <0>         0.1113
     52 H22        12.8877  -12.1239    8.5255 H         1 <0>         0.1961
     53 H23        13.9390  -14.1433    7.2056 H         1 <0>         0.2265
@<TRIPOS>BOND
     1    1    6 ar
     2    1    2 ar
     3    1   31 1
     4    2    3 ar
     5    2   32 1
     6    3    4 ar
     7    3   33 1
     8    4    5 ar
     9    4    7 1
    10    5    6 ar
    11    5   34 1
    12    6   35 1
    13    7   12 ar
    14    7    8 ar
    15    8    9 ar
    16    8   36 1
    17    9   10 ar
    18    9   37 1
    19   10   11 ar
    20   10   13 1
    21   11   12 ar
    22   11   38 1
    23   12   39 1
    24   13   17 1
    25   13   14 2
    26   14   15 1
    27   15   16 2
    28   16   17 1
    29   16   18 1
    30   18   19 1
    31   18   40 1
    32   18   41 1
    33   19   20 1
    34   19   42 1
    35   19   43 1
    36   20   21 1
    37   20   44 1
    38   20   45 1
    39   21   22 1
    40   21   46 1
    41   21   47 1
    42   22   23 1
    43   22   48 1
    44   22   49 1
    45   23   24 1
    46   23   50 1
    47   23   51 1
    48   24   25 2
    49   24   26 1
    50   26   30 1
    51   26   27 2
    52   27   28 1
    53   28   29 2
    54   28   52 1
    55   29   30 1
    56   29   53 1
@<TRIPOS>MOLECULE
CHEMBL140505
   49    50     0     0     0
SMALL
USER_CHARGES

@<TRIPOS>ATOM
      1 C1         -0.0173    1.4248    0.0099 C.3       1 <0>         0.0291
      2 O1          0.0021   -0.0041    0.0020 O.3       1 <0>        -0.3264
      3 C2         -1.2013   -0.6380    0.0101 C.ar      1 <0>         0.0680
      4 C3         -2.3740    0.0989    0.0195 C.ar      1 <0>        -0.1623
      5 C4         -3.5967   -0.5469    0.0283 C.ar      1 <0>        -0.1205
      6 C5         -3.6532   -1.9283    0.0271 C.ar      1 <0>        -0.1092
      7 C6         -2.4875   -2.6710    0.0173 C.ar      1 <0>        -0.1604
      8 C7         -1.2572   -2.0300    0.0032 C.ar      1 <0>         0.1749
      9 N1         -0.0754   -2.7797   -0.0127 N.pl3     1 <0>        -0.7468
     10 C8         -0.1366   -4.2434   -0.0199 C.3       1 <0>         0.1065
     11 C9          1.2833   -4.8131   -0.0372 C.3       1 <0>        -0.0207
     12 N2          1.2220   -6.2808   -0.0445 N.4       1 <0>        -0.5045
     13 C10         2.5852   -6.8278   -0.0610 C.3       1 <0>         0.0473
     14 C11         2.5223   -8.3335   -0.0685 C.ar      1 <0>        -0.1642
     15 C12         2.4999   -9.0275    1.1287 C.ar      1 <0>        -0.0889
     16 C13         2.4428  -10.4052    1.1301 C.ar      1 <0>        -0.0931
     17 C14         2.4072  -11.1011   -0.0823 C.ar      1 <0>        -0.0270
     18 C15         2.4297  -10.3926   -1.2877 C.ar      1 <0>        -0.1045
     19 C16         2.4816   -9.0148   -1.2725 C.ar      1 <0>        -0.0890
     20 C17         2.3467  -12.5719   -0.0896 C.2       1 <0>        -0.0379
     21 C18         2.3124  -13.2393   -1.2604 C.2       1 <0>        -0.1723
     22 C19         2.2523  -14.7023   -1.2676 C.2       1 <0>         0.5537
     23 O2          2.2332  -15.3157   -0.2168 O.2       1 <0>        -0.5152
     24 N3          2.2180  -15.3695   -2.4382 N.am      1 <0>        -0.5900
     25 O3          2.1599  -16.7843   -2.4452 O.3       1 <0>        -0.3107
     26 H1          1.0053    1.8021    0.0021 H         1 <0>         0.1025
     27 H2         -0.5445    1.7859   -0.8732 H         1 <0>         0.0577
     28 H3         -0.5275    1.7763    0.9067 H         1 <0>         0.0578
     29 H4         -2.3335    1.1781    0.0204 H         1 <0>         0.1331
     30 H5         -4.5101    0.0293    0.0363 H         1 <0>         0.1281
     31 H6         -4.6104   -2.4284    0.0343 H         1 <0>         0.1278
     32 H7         -2.5344   -3.7500    0.0168 H         1 <0>         0.1239
     33 H8          0.7841   -2.3302   -0.0188 H         1 <0>         0.4106
     34 H9         -0.6562   -4.5898    0.8734 H         1 <0>         0.0783
     35 H10        -0.6740   -4.5802   -0.9064 H         1 <0>         0.0782
     36 H11         1.8029   -4.4667   -0.9305 H         1 <0>         0.1395
     37 H12         1.8207   -4.4763    0.8493 H         1 <0>         0.1396
     38 H13         0.7409   -6.6015    0.7825 H         1 <0>         0.4304
     39 H14         3.1049   -6.4814   -0.9544 H         1 <0>         0.1404
     40 H15         3.1226   -6.4910    0.8255 H         1 <0>         0.1407
     41 H16         2.5275   -8.4886    2.0642 H         1 <0>         0.1370
     42 H17         2.4261  -10.9454    2.0652 H         1 <0>         0.1437
     43 H18         2.4028  -10.9231   -2.2280 H         1 <0>         0.1405
     44 H19         2.4947   -8.4660   -2.2026 H         1 <0>         0.1360
     45 H20         2.3298  -13.1163    0.8430 H         1 <0>         0.1479
     46 H21         2.3294  -12.6949   -2.1930 H         1 <0>         0.1370
     47 H22         2.2332  -14.8806   -3.2758 H         1 <0>         0.4101
     48 H23         2.1388  -17.1727   -3.3305 H         1 <0>         0.3933
     49 H24         0.7245   -6.5926   -0.8651 H         1 <0>         0.4299
@<TRIPOS>BOND
     1    1    2 1
     2    1   26 1
     3    1   27 1
     4    1   28 1
     5    2    3 1
     6    3    8 ar
     7    3    4 ar
     8    4    5 ar
     9    4   29 1
    10    5    6 ar
    11    5   30 1
    12    6    7 ar
    13    6   31 1
    14    7    8 ar
    15    7   32 1
    16    8    9 1
    17    9   10 1
    18    9   33 1
    19   10   11 1
    20   10   34 1
    21   10   35 1
    22   11   12 1
    23   11   36 1
    24   11   37 1
    25   12   13 1
    26   12   38 1
    27   12   49 1
    28   13   14 1
    29   13   39 1
    30   13   40 1
    31   14   19 ar
    32   14   15 ar
    33   15   16 ar
    34   15   41 1
    35   16   17 ar
    36   16   42 1
    37   17   18 ar
    38   17   20 1
    39   18   19 ar
    40   18   43 1
    41   19   44 1
    42   20   21 2
    43   20   45 1
    44   21   22 1
    45   21   46 1
    46   22   23 2
    47   22   24 am
    48   24   25 1
    49   24   47 1
    50   25   48 1
@<TRIPOS>MOLECULE
CHEMBL28280
   40    42     0     0     0
SMALL
USER_CHARGES

@<TRIPOS>ATOM
      1 C1         -0.0155    1.3564    0.0722 C.ar      1 <0>        -0.1124
      2 C2          1.1693    2.0889    0.0653 C.ar      1 <0>        -0.1137
      3 C3          2.3793    1.4635    0.0297 C.ar      1 <0>        -0.1171
      4 C4          2.4364    0.0636    0.0002 C.ar      1 <0>        -0.0124
      5 C5          1.2333   -0.6832    0.0076 C.ar      1 <0>        -0.0611
      6 C6          0.0027   -0.0046    0.0441 C.ar      1 <0>        -0.1105
      7 C7          1.2892   -2.0873   -0.0215 C.ar      1 <0>        -0.0707
      8 C8          2.4941   -2.7233   -0.0567 C.ar      1 <0>        -0.1325
      9 C9          3.6848   -2.0081   -0.0641 C.ar      1 <0>        -0.0706
     10 C10         3.6769   -0.6212   -0.0366 C.ar      1 <0>        -0.1284
     11 C11         4.9445    0.1320   -0.0456 C.2       1 <0>         0.5652
     12 O1          4.9305    1.3449   -0.1316 O.2       1 <0>        -0.5277
     13 N1          6.1188   -0.5238    0.0415 N.am      1 <0>        -0.7226
     14 C12         7.3782    0.2246    0.0325 C.3       1 <0>         0.1571
     15 C13         8.5342   -0.7362    0.1405 C.ar      1 <0>        -0.0827
     16 C14         9.0172   -1.0954    1.3863 C.ar      1 <0>        -0.1027
     17 C15        10.0752   -1.9744    1.4921 C.ar      1 <0>        -0.0549
     18 C16        10.6584   -2.5017    0.3388 C.ar      1 <0>        -0.1160
     19 C17        10.1663   -2.1352   -0.9148 C.ar      1 <0>        -0.0891
     20 C18         9.1041   -1.2596   -1.0065 C.ar      1 <0>        -0.1043
     21 C19        11.7928   -3.4438    0.4447 C.2       1 <0>         0.5701
     22 O2         12.2196   -3.7609    1.5378 O.2       1 <0>        -0.5118
     23 N2         12.3538   -3.9512   -0.6708 N.am      1 <0>        -0.5929
     24 O3         13.4403   -4.8536   -0.5694 O.3       1 <0>        -0.3117
     25 H1         -0.9620    1.8754    0.1048 H         1 <0>         0.1246
     26 H2          1.1282    3.1679    0.0880 H         1 <0>         0.1252
     27 H3          3.2901    2.0439    0.0240 H         1 <0>         0.1687
     28 H4         -0.9235   -0.5600    0.0502 H         1 <0>         0.1293
     29 H5          0.3756   -2.6633   -0.0157 H         1 <0>         0.1327
     30 H6          2.5236   -3.8027   -0.0788 H         1 <0>         0.1316
     31 H7          4.6260   -2.5370   -0.0919 H         1 <0>         0.1265
     32 H8          6.1300   -1.4913    0.1100 H         1 <0>         0.4024
     33 H9          7.4595    0.7879   -0.8971 H         1 <0>         0.0843
     34 H10         7.3977    0.9129    0.8774 H         1 <0>         0.0847
     35 H11         8.5652   -0.6864    2.2778 H         1 <0>         0.1373
     36 H12        10.4515   -2.2537    2.4651 H         1 <0>         0.1434
     37 H13        10.6132   -2.5396   -1.8110 H         1 <0>         0.1288
     38 H14         8.7195   -0.9786   -1.9758 H         1 <0>         0.1354
     39 H15        12.0132   -3.6982   -1.5431 H         1 <0>         0.4080
     40 H16        13.7753   -5.1632   -1.4220 H         1 <0>         0.3905
@<TRIPOS>BOND
     1    1    6 ar
     2    1    2 ar
     3    1   25 1
     4    2    3 ar
     5    2   26 1
     6    3    4 ar
     7    3   27 1
     8    4   10 ar
     9    4    5 ar
    10    5    6 ar
    11    5    7 ar
    12    6   28 1
    13    7    8 ar
    14    7   29 1
    15    8    9 ar
    16    8   30 1
    17    9   10 ar
    18    9   31 1
    19   10   11 1
    20   11   12 2
    21   11   13 am
    22   13   14 1
    23   13   32 1
    24   14   15 1
    25   14   33 1
    26   14   34 1
    27   15   20 ar
    28   15   16 ar
    29   16   17 ar
    30   16   35 1
    31   17   18 ar
    32   17   36 1
    33   18   19 ar
    34   18   21 1
    35   19   20 ar
    36   19   37 1
    37   20   38 1
    38   21   22 2
    39   21   23 am
    40   23   24 1
    41   23   39 1
    42   24   40 1
@<TRIPOS>MOLECULE
CHEMBL278639
   88    90     0     0     0
SMALL
USER_CHARGES

@<TRIPOS>ATOM
      1 C1         -0.0187    1.5258    0.0104 C.3       1 <0>        -0.1521
      2 C2          0.0021   -0.0041    0.0020 C.3       1 <0>        -0.1119
      3 C3          0.7421   -0.5109    1.2415 C.3       1 <0>        -0.0997
      4 C4          2.2100   -0.0858    1.1685 C.3       1 <0>        -0.1578
      5 C5          0.6557   -2.0328    1.2985 C.3       1 <0>         0.1491
      6 H1          1.1211   -2.4464    0.3885 H         1 <0>         0.0972
      7 C6          1.3575   -2.5872    2.4997 C.2       1 <0>         0.5122
      8 O1          0.8142   -2.4895    3.5851 O.2       1 <0>        -0.4863
      9 N1          2.5783   -3.1598    2.4912 N.am      1 <0>        -0.6187
     10 C7          3.6135   -2.6168    1.6188 C.3       1 <0>         0.1122
     11 C8          4.5769   -3.6919    1.1272 C.3       1 <0>        -0.1356
     12 C9          5.0517   -4.5202    2.3251 C.3       1 <0>        -0.1172
     13 C10         3.8425   -5.2555    2.9008 C.3       1 <0>        -0.1245
     14 C11         2.8097   -4.2610    3.4213 C.3       1 <0>         0.1499
     15 H2          3.1141   -3.8748    4.3900 H         1 <0>         0.0783
     16 C12         1.4925   -5.0010    3.5753 C.2       1 <0>         0.5078
     17 O2          1.1556   -5.8306    2.7553 O.2       1 <0>        -0.4895
     18 N2          0.7179   -4.7135    4.6600 N.am      1 <0>        -0.7067
     19 C13        -0.6522   -5.2972    4.6539 C.3       1 <0>         0.1398
     20 H3         -0.5941   -6.3655    4.4370 H         1 <0>         0.1098
     21 C14        -1.3953   -4.5873    3.5509 C.2       1 <0>         0.5116
     22 O3         -0.9964   -4.7288    2.4046 O.2       1 <0>        -0.4808
     23 N3         -2.4976   -3.8283    3.8064 N.am      1 <0>        -0.7195
     24 C15        -2.8168   -2.8204    2.7491 C.3       1 <0>         0.0806
     25 H4         -3.4992   -2.0683    3.1758 H         1 <0>         0.1380
     26 C16        -1.5098   -2.1505    2.4147 C.2       1 <0>         0.5337
     27 O4         -1.1623   -1.2457    3.1567 O.2       1 <0>        -0.4947
     28 N4         -0.7516   -2.5039    1.3581 N.am      1 <0>        -0.6966
     29 C17        -3.4673   -3.4526    1.5559 C.2       1 <0>         0.3349
     30 O5         -3.4291   -4.6510    1.4115 O.2       1 <0>        -0.3933
     31 C18        -4.1691   -2.5928    0.5365 C.3       1 <0>        -0.1302
     32 C19        -4.7331   -3.4662   -0.5545 C.ar      1 <0>        -0.0767
     33 C20        -3.9675   -3.7648   -1.6660 C.ar      1 <0>        -0.1058
     34 C21        -4.4848   -4.5660   -2.6667 C.ar      1 <0>        -0.1165
     35 C22        -5.7676   -5.0689   -2.5557 C.ar      1 <0>        -0.1179
     36 C23        -6.5329   -4.7710   -1.4437 C.ar      1 <0>        -0.1177
     37 C24        -6.0140   -3.9734   -0.4410 C.ar      1 <0>        -0.1077
     38 C25        -1.3106   -5.0761    6.0140 C.3       1 <0>        -0.1298
     39 C26        -0.5450   -5.8569    7.0842 C.3       1 <0>        -0.1166
     40 C27        -1.2045   -5.6354    8.4468 C.3       1 <0>        -0.1188
     41 C28        -0.4389   -6.4161    9.5170 C.3       1 <0>        -0.1125
     42 C29        -1.0985   -6.1946   10.8796 C.3       1 <0>        -0.1731
     43 C30        -0.3444   -6.9636   11.9337 C.2       1 <0>         0.3511
     44 O6          0.6209   -7.6210   11.6267 O.2       1 <0>        -0.4512
     45 C31        -0.7950   -6.9122   13.3708 C.3       1 <0>        -0.1773
     46 C32         0.1350   -7.7732   14.2280 C.3       1 <0>        -0.1466
     47 H5          1.0039    1.9031    0.0027 H         1 <0>         0.0570
     48 H6         -0.5459    1.8868   -0.8726 H         1 <0>         0.0547
     49 H7         -0.5289    1.8773    0.9072 H         1 <0>         0.0553
     50 H8         -1.0205   -0.3814    0.0098 H         1 <0>         0.0613
     51 H9          0.5123   -0.3556   -0.8948 H         1 <0>         0.0613
     52 H10         0.2852   -0.0874    2.1360 H         1 <0>         0.1071
     53 H11         2.6669   -0.5093    0.2741 H         1 <0>         0.0601
     54 H12         2.2717    1.0017    1.1279 H         1 <0>         0.0694
     55 H13         2.7372   -0.4469    2.0516 H         1 <0>         0.0575
     56 H14         3.1469   -2.1364    0.7554 H         1 <0>         0.0831
     57 H15         4.1781   -1.8561    2.1680 H         1 <0>         0.0630
     58 H16         4.0729   -4.3423    0.4124 H         1 <0>         0.0720
     59 H17         5.4378   -3.2239    0.6487 H         1 <0>         0.0804
     60 H18         5.7990   -5.2405    1.9975 H         1 <0>         0.0740
     61 H19         5.4769   -3.8614    3.0800 H         1 <0>         0.0672
     62 H20         3.3925   -5.8725    2.1197 H         1 <0>         0.0863
     63 H21         4.1679   -5.9023    3.7178 H         1 <0>         0.0783
     64 H22         1.0348   -4.1653    5.3953 H         1 <0>         0.4126
     65 H23        -3.0672   -3.9216    4.5930 H         1 <0>         0.4166
     66 H24        -1.0976   -3.0605    0.6285 H         1 <0>         0.4112
     67 H25        -4.9789   -2.0453    1.0187 H         1 <0>         0.1109
     68 H26        -3.4590   -1.8868    0.1060 H         1 <0>         0.1061
     69 H27        -2.9652   -3.3719   -1.7528 H         1 <0>         0.1182
     70 H28        -3.8869   -4.7987   -3.5355 H         1 <0>         0.1226
     71 H29        -6.1721   -5.6942   -3.3378 H         1 <0>         0.1220
     72 H30        -7.5353   -5.1637   -1.3571 H         1 <0>         0.1225
     73 H31        -6.6106   -3.7437    0.4295 H         1 <0>         0.1192
     74 H32        -1.2936   -4.0138    6.2575 H         1 <0>         0.0806
     75 H33        -2.3428   -5.4244    5.9790 H         1 <0>         0.0809
     76 H34        -0.5619   -6.9192    6.8407 H         1 <0>         0.0668
     77 H35         0.4873   -5.5086    7.1193 H         1 <0>         0.0657
     78 H36        -1.1876   -4.5730    8.6903 H         1 <0>         0.0646
     79 H37        -2.2368   -5.9837    8.4117 H         1 <0>         0.0643
     80 H38        -0.4559   -7.4784    9.2735 H         1 <0>         0.0676
     81 H39         0.5933   -6.0678    9.5520 H         1 <0>         0.0674
     82 H40        -1.0816   -5.1323   11.1231 H         1 <0>         0.0977
     83 H41        -2.1308   -6.5429   10.8445 H         1 <0>         0.0976
     84 H42        -0.7647   -5.8817   13.7245 H         1 <0>         0.0972
     85 H43        -1.8139   -7.2923   13.4459 H         1 <0>         0.0972
     86 H44         0.1046   -8.8038   13.8743 H         1 <0>         0.0594
     87 H45         1.1538   -7.3932   14.1528 H         1 <0>         0.0594
     88 H46        -0.1910   -7.7360   15.2674 H         1 <0>         0.0612
@<TRIPOS>BOND
     1    1    2 1
     2    1   47 1
     3    1   48 1
     4    1   49 1
     5    2    3 1
     6    2   50 1
     7    2   51 1
     8    3    4 1
     9    3    5 1
    10    3   52 1
    11    4   53 1
    12    4   54 1
    13    4   55 1
    14    5    6 1
    15    5   28 1
    16    5    7 1
    17    7    8 2
    18    7    9 am
    19    9   14 1
    20    9   10 1
    21   10   11 1
    22   10   56 1
    23   10   57 1
    24   11   12 1
    25   11   58 1
    26   11   59 1
    27   12   13 1
    28   12   60 1
    29   12   61 1
    30   13   14 1
    31   13   62 1
    32   13   63 1
    33   14   15 1
    34   14   16 1
    35   16   17 2
    36   16   18 am
    37   18   19 1
    38   18   64 1
    39   19   20 1
    40   19   21 1
    41   19   38 1
    42   21   22 2
    43   21   23 am
    44   23   24 1
    45   23   65 1
    46   24   25 1
    47   24   26 1
    48   24   29 1
    49   26   27 2
    50   26   28 am
    51   28   66 1
    52   29   30 2
    53   29   31 1
    54   31   32 1
    55   31   67 1
    56   31   68 1
    57   32   37 ar
    58   32   33 ar
    59   33   34 ar
    60   33   69 1
    61   34   35 ar
    62   34   70 1
    63   35   36 ar
    64   35   71 1
    65   36   37 ar
    66   36   72 1
    67   37   73 1
    68   38   39 1
    69   38   74 1
    70   38   75 1
    71   39   40 1
    72   39   76 1
    73   39   77 1
    74   40   41 1
    75   40   78 1
    76   40   79 1
    77   41   42 1
    78   41   80 1
    79   41   81 1
    80   42   43 1
    81   42   82 1
    82   42   83 1
    83   43   44 2
    84   43   45 1
    85   45   46 1
    86   45   84 1
    87   45   85 1
    88   46   86 1
    89   46   87 1
    90   46   88 1
@<TRIPOS>MOLECULE
CHEMBL278639__1
   88    90     0     0     0
SMALL
USER_CHARGES

@<TRIPOS>ATOM
      1 C1          1.9805    1.6415    1.5174 C.3       1 <0>        -0.1500
      2 C2          2.1278    0.1267    1.3605 C.3       1 <0>        -0.1284
      3 C3          0.7421   -0.5109    1.2415 C.3       1 <0>        -0.0994
      4 C4          0.0701   -0.0339   -0.0476 C.3       1 <0>        -0.1411
      5 C5          0.8821   -2.0296    1.2101 C.3       1 <0>         0.1490
      6 H1          1.5263   -2.3064    0.3592 H         1 <0>         0.0972
      7 C6          1.4878   -2.5605    2.4726 C.2       1 <0>         0.5118
      8 O1          0.7915   -2.6190    3.4699 O.2       1 <0>        -0.4859
      9 N1          2.7711   -2.9492    2.6155 N.am      1 <0>        -0.6190
     10 C7          3.8216   -2.2025    1.9325 C.3       1 <0>         0.1128
     11 C8          4.9964   -3.0901    1.5354 C.3       1 <0>        -0.1355
     12 C9          5.4222   -3.9238    2.7479 C.3       1 <0>        -0.1172
     13 C10         4.2718   -4.8645    3.1027 C.3       1 <0>        -0.1246
     14 C11         3.0375   -4.0685    3.5141 C.3       1 <0>         0.1499
     15 H2          3.1426   -3.7119    4.5349 H         1 <0>         0.0784
     16 C12         1.8402   -4.9996    3.4362 C.2       1 <0>         0.5077
     17 O2          1.7503   -5.8090    2.5357 O.2       1 <0>        -0.4895
     18 N2          0.8886   -4.9040    4.4081 N.am      1 <0>        -0.7067
     19 C13        -0.3621   -5.6772    4.1720 C.3       1 <0>         0.1399
     20 H3         -0.1122   -6.7079    3.9136 H         1 <0>         0.1098
     21 C14        -1.0456   -5.0056    3.0081 C.2       1 <0>         0.5115
     22 O3         -0.4755   -5.0068    1.9272 O.2       1 <0>        -0.4808
     23 N3         -2.2755   -4.4333    3.1359 N.am      1 <0>        -0.7195
     24 C15        -2.5959   -3.4098    2.0941 C.3       1 <0>         0.0806
     25 H4         -3.4374   -2.7958    2.4524 H         1 <0>         0.1380
     26 C16        -1.3730   -2.5365    1.9888 C.2       1 <0>         0.5334
     27 O4         -1.2735   -1.6459    2.8175 O.2       1 <0>        -0.4948
     28 N4         -0.4313   -2.7015    1.0390 N.am      1 <0>        -0.6963
     29 C17        -2.9713   -4.0432    0.7886 C.2       1 <0>         0.3349
     30 O5         -2.7310   -5.2103    0.5925 O.2       1 <0>        -0.3933
     31 C18        -3.6488   -3.2236   -0.2793 C.3       1 <0>        -0.1303
     32 C19        -3.9168   -4.0899   -1.4830 C.ar      1 <0>        -0.0768
     33 C20        -2.9686   -4.1958   -2.4833 C.ar      1 <0>        -0.1059
     34 C21        -3.2144   -4.9904   -3.5874 C.ar      1 <0>        -0.1165
     35 C22        -4.4083   -5.6794   -3.6910 C.ar      1 <0>        -0.1179
     36 C23        -5.3561   -5.5743   -2.6903 C.ar      1 <0>        -0.1177
     37 C24        -5.1085   -4.7831   -1.5841 C.ar      1 <0>        -0.1077
     38 C25        -1.2278   -5.6499    5.4298 C.3       1 <0>        -0.1298
     39 C26        -0.5070   -6.3858    6.5611 C.3       1 <0>        -0.1166
     40 C27        -1.3743   -6.3585    7.8212 C.3       1 <0>        -0.1188
     41 C28        -0.6535   -7.0944    8.9525 C.3       1 <0>        -0.1125
     42 C29        -1.5208   -7.0671   10.2126 C.3       1 <0>        -0.1731
     43 C30        -0.8108   -7.7920   11.3269 C.2       1 <0>         0.3511
     44 O6          0.2766   -8.2801   11.1331 O.2       1 <0>        -0.4512
     45 C31        -1.4579   -7.9077   12.6829 C.3       1 <0>        -0.1773
     46 C32        -0.5346   -8.6841   13.6240 C.3       1 <0>        -0.1466
     47 H5          1.4021    1.8592    2.4152 H         1 <0>         0.0555
     48 H6          2.9677    2.0957    1.6021 H         1 <0>         0.0559
     49 H7          1.4667    2.0487    0.6466 H         1 <0>         0.0583
     50 H8          2.7062   -0.0910    0.4626 H         1 <0>         0.0661
     51 H9          2.6416   -0.2805    2.2312 H         1 <0>         0.0655
     52 H10         0.1335   -0.2198    2.0977 H         1 <0>         0.1063
     53 H11         0.7235   -0.2395   -0.8955 H         1 <0>         0.0547
     54 H12        -0.8749   -0.5605   -0.1811 H         1 <0>         0.0543
     55 H13        -0.1170    1.0381    0.0154 H         1 <0>         0.0635
     56 H14         3.4108   -1.7345    1.0346 H         1 <0>         0.0824
     57 H15         4.1822   -1.4091    2.5955 H         1 <0>         0.0633
     58 H16         4.7012   -3.7542    0.7232 H         1 <0>         0.0722
     59 H17         5.8334   -2.4703    1.2123 H         1 <0>         0.0806
     60 H18         6.3088   -4.5041    2.4985 H         1 <0>         0.0740
     61 H19         5.6336   -3.2657    3.5886 H         1 <0>         0.0672
     62 H20         4.0335   -5.4832    2.2345 H         1 <0>         0.0864
     63 H21         4.5763   -5.5138    3.9257 H         1 <0>         0.0784
     64 H22         1.0136   -4.3692    5.2081 H         1 <0>         0.4126
     65 H23        -2.9272   -4.6630    3.8246 H         1 <0>         0.4166
     66 H24        -0.5843   -3.2492    0.2399 H         1 <0>         0.4113
     67 H25        -4.5914   -2.8339    0.1050 H         1 <0>         0.1109
     68 H26        -3.0023   -2.3940   -0.5655 H         1 <0>         0.1061
     69 H27        -2.0358   -3.6574   -2.4023 H         1 <0>         0.1182
     70 H28        -2.4739   -5.0725   -4.3692 H         1 <0>         0.1227
     71 H29        -4.6007   -6.2997   -4.5540 H         1 <0>         0.1220
     72 H30        -6.2890   -6.1124   -2.7714 H         1 <0>         0.1225
     73 H31        -5.8475   -4.7038   -0.8005 H         1 <0>         0.1193
     74 H32        -1.4071   -4.6161    5.7251 H         1 <0>         0.0806
     75 H33        -2.1800   -6.1399    5.2263 H         1 <0>         0.0810
     76 H34        -0.3278   -7.4196    6.2657 H         1 <0>         0.0668
     77 H35         0.4451   -5.8958    6.7646 H         1 <0>         0.0657
     78 H36        -1.5536   -5.3247    8.1165 H         1 <0>         0.0646
     79 H37        -2.3264   -6.8485    7.6177 H         1 <0>         0.0643
     80 H38        -0.4743   -8.1282    8.6571 H         1 <0>         0.0676
     81 H39         0.2986   -6.6044    9.1560 H         1 <0>         0.0674
     82 H40        -1.7001   -6.0333   10.5080 H         1 <0>         0.0977
     83 H41        -2.4729   -7.5571   10.0091 H         1 <0>         0.0976
     84 H42        -1.6344   -6.9111   13.0876 H         1 <0>         0.0973
     85 H43        -2.4073   -8.4349   12.5887 H         1 <0>         0.0972
     86 H44        -0.3581   -9.6807   13.2194 H         1 <0>         0.0594
     87 H45         0.4148   -8.1569   13.7182 H         1 <0>         0.0594
     88 H46        -1.0026   -8.7678   14.6048 H         1 <0>         0.0612
@<TRIPOS>BOND
     1    1    2 1
     2    1   47 1
     3    1   48 1
     4    1   49 1
     5    2    3 1
     6    2   50 1
     7    2   51 1
     8    3    4 1
     9    3    5 1
    10    3   52 1
    11    4   53 1
    12    4   54 1
    13    4   55 1
    14    5    6 1
    15    5   28 1
    16    5    7 1
    17    7    8 2
    18    7    9 am
    19    9   14 1
    20    9   10 1
    21   10   11 1
    22   10   56 1
    23   10   57 1
    24   11   12 1
    25   11   58 1
    26   11   59 1
    27   12   13 1
    28   12   60 1
    29   12   61 1
    30   13   14 1
    31   13   62 1
    32   13   63 1
    33   14   15 1
    34   14   16 1
    35   16   17 2
    36   16   18 am
    37   18   19 1
    38   18   64 1
    39   19   20 1
    40   19   21 1
    41   19   38 1
    42   21   22 2
    43   21   23 am
    44   23   24 1
    45   23   65 1
    46   24   25 1
    47   24   26 1
    48   24   29 1
    49   26   27 2
    50   26   28 am
    51   28   66 1
    52   29   30 2
    53   29   31 1
    54   31   32 1
    55   31   67 1
    56   31   68 1
    57   32   37 ar
    58   32   33 ar
    59   33   34 ar
    60   33   69 1
    61   34   35 ar
    62   34   70 1
    63   35   36 ar
    64   35   71 1
    65   36   37 ar
    66   36   72 1
    67   37   73 1
    68   38   39 1
    69   38   74 1
    70   38   75 1
    71   39   40 1
    72   39   76 1
    73   39   77 1
    74   40   41 1
    75   40   78 1
    76   40   79 1
    77   41   42 1
    78   41   80 1
    79   41   81 1
    80   42   43 1
    81   42   82 1
    82   42   83 1
    83   43   44 2
    84   43   45 1
    85   45   46 1
    86   45   84 1
    87   45   85 1
    88   46   86 1
    89   46   87 1
    90   46   88 1
@<TRIPOS>MOLECULE
CHEMBL483892
   58    60     0     0     0
SMALL
USER_CHARGES

@<TRIPOS>ATOM
      1 C1          0.0041    1.3795    0.1744 C.ar      1 <0>        -0.0968
      2 C2          1.1746    2.0883   -0.0114 C.ar      1 <0>        -0.1216
      3 C3          2.3769    1.4108   -0.2026 C.ar      1 <0>         0.0118
      4 C4          2.3945    0.0187   -0.2058 C.ar      1 <0>        -0.0940
      5 C5          1.2152   -0.6860   -0.0186 C.ar      1 <0>         0.1478
      6 C6          0.0205   -0.0021    0.1715 C.ar      1 <0>        -0.1419
      7 N1          1.2280   -2.0853   -0.0214 N.am      1 <0>        -0.6782
      8 C7          2.2978   -2.7504    0.4577 C.2       1 <0>         0.5095
      9 O1          3.2078   -2.1406    0.9784 O.2       1 <0>        -0.5108
     10 C8          2.3634   -4.2519    0.3464 C.3       1 <0>        -0.1394
     11 C9          3.6715   -4.7523    0.9623 C.3       1 <0>        -0.1060
     12 C10         3.7381   -6.2766    0.8494 C.3       1 <0>        -0.1201
     13 C11         5.0462   -6.7770    1.4653 C.3       1 <0>        -0.1201
     14 C12         5.1128   -8.3014    1.3523 C.3       1 <0>        -0.1059
     15 C13         6.4209   -8.8018    1.9682 C.3       1 <0>        -0.1274
     16 C14         6.4865  -10.3032    1.8569 C.2       1 <0>         0.5214
     17 O2          5.5766  -10.9130    1.3363 O.2       1 <0>        -0.5195
     18 N2          7.5564  -10.9684    2.3360 N.am      1 <0>        -0.6003
     19 O3          7.6180  -12.3792    2.2315 O.3       1 <0>        -0.3209
     20 C15         3.6360    2.1713   -0.4030 C.2       1 <0>         0.0204
     21 C16         3.7970    3.5245   -0.3269 C.2       1 <0>        -0.0364
     22 N3          5.1041    3.7601   -0.5798 N.pl3     1 <0>        -0.2877
     23 N4          5.6882    2.6338   -0.7926 N.2       1 <0>        -0.0725
     24 N5          4.8485    1.6650   -0.6903 N.2       1 <0>        -0.2507
     25 C17         5.7469    5.0763   -0.6074 C.3       1 <0>         0.1603
     26 C18         6.9170    5.0839    0.3423 C.ar      1 <0>        -0.1352
     27 C19         6.7330    5.4516    1.6622 C.ar      1 <0>        -0.0656
     28 C20         7.8051    5.4585    2.5341 C.ar      1 <0>        -0.1577
     29 C21         9.0641    5.0969    2.0853 C.ar      1 <0>         0.1172
     30 C22         9.2472    4.7288    0.7632 C.ar      1 <0>        -0.1555
     31 C23         8.1725    4.7176   -0.1057 C.ar      1 <0>        -0.0499
     32 F1         10.1130    5.1037    2.9367 F         1 <0>        -0.1346
     33 H1         -0.9261    1.9066    0.3269 H         1 <0>         0.1313
     34 H2          1.1579    3.1682   -0.0088 H         1 <0>         0.1251
     35 H3          3.3241   -0.5108   -0.3540 H         1 <0>         0.1447
     36 H4         -0.8975   -0.5520    0.3176 H         1 <0>         0.1274
     37 H5          0.4668   -2.5765   -0.3682 H         1 <0>         0.4121
     38 H6          1.5198   -4.6928    0.8774 H         1 <0>         0.0967
     39 H7          2.3225   -4.5405   -0.7039 H         1 <0>         0.0983
     40 H8          4.5152   -4.3114    0.4313 H         1 <0>         0.0721
     41 H9          3.7124   -4.4636    2.0126 H         1 <0>         0.0709
     42 H10         2.8945   -6.7175    1.3804 H         1 <0>         0.0647
     43 H11         3.6973   -6.5653   -0.2009 H         1 <0>         0.0651
     44 H12         5.8899   -6.3361    0.9342 H         1 <0>         0.0657
     45 H13         5.0871   -6.4884    2.5156 H         1 <0>         0.0652
     46 H14         4.2692   -8.7423    1.8833 H         1 <0>         0.0726
     47 H15         5.0720   -8.5900    0.3020 H         1 <0>         0.0729
     48 H16         7.2646   -8.3609    1.4372 H         1 <0>         0.0997
     49 H17         6.4618   -8.5132    3.0185 H         1 <0>         0.0994
     50 H18         8.2841  -10.4807    2.7524 H         1 <0>         0.4082
     51 H19         8.4226  -12.7663    2.6027 H         1 <0>         0.3875
     52 H20         3.0349    4.2582   -0.1092 H         1 <0>         0.1938
     53 H21         6.0974    5.2884   -1.6175 H         1 <0>         0.1128
     54 H22         5.0284    5.8380   -0.3047 H         1 <0>         0.1187
     55 H23         5.7510    5.7340    2.0119 H         1 <0>         0.1344
     56 H24         7.6612    5.7462    3.5651 H         1 <0>         0.1402
     57 H25        10.2288    4.4469    0.4119 H         1 <0>         0.1416
     58 H26         8.3143    4.4262   -1.1359 H         1 <0>         0.1390
@<TRIPOS>BOND
     1    1    6 ar
     2    1    2 ar
     3    1   33 1
     4    2    3 ar
     5    2   34 1
     6    3    4 ar
     7    3   20 1
     8    4    5 ar
     9    4   35 1
    10    5    6 ar
    11    5    7 1
    12    6   36 1
    13    7    8 am
    14    7   37 1
    15    8    9 2
    16    8   10 1
    17   10   11 1
    18   10   38 1
    19   10   39 1
    20   11   12 1
    21   11   40 1
    22   11   41 1
    23   12   13 1
    24   12   42 1
    25   12   43 1
    26   13   14 1
    27   13   44 1
    28   13   45 1
    29   14   15 1
    30   14   46 1
    31   14   47 1
    32   15   16 1
    33   15   48 1
    34   15   49 1
    35   16   17 2
    36   16   18 am
    37   18   19 1
    38   18   50 1
    39   19   51 1
    40   20   24 1
    41   20   21 2
    42   21   22 1
    43   21   52 1
    44   22   23 1
    45   22   25 1
    46   23   24 2
    47   25   26 1
    48   25   53 1
    49   25   54 1
    50   26   31 ar
    51   26   27 ar
    52   27   28 ar
    53   27   55 1
    54   28   29 ar
    55   28   56 1
    56   29   30 ar
    57   29   32 1
    58   30   31 ar
    59   30   57 1
    60   31   58 1
@<TRIPOS>MOLECULE
CHEMBL27556
   40    42     0     0     0
SMALL
USER_CHARGES

@<TRIPOS>ATOM
      1 C1         -0.0164    1.3572    0.0095 C.ar      1 <0>        -0.1028
      2 C2          1.1682    2.0914    0.0021 C.ar      1 <0>        -0.1179
      3 C3          2.3779    1.4681   -0.0127 C.ar      1 <0>        -0.0955
      4 C4          2.4368    0.0628   -0.0208 C.ar      1 <0>        -0.0644
      5 C5          3.6672   -0.6113   -0.0356 C.ar      1 <0>        -0.0288
      6 C6          3.6848   -1.9960   -0.0428 C.ar      1 <0>        -0.1400
      7 C7          2.4821   -2.7254   -0.0354 C.ar      1 <0>        -0.0931
      8 C8          1.2830   -2.0900   -0.0215 C.ar      1 <0>        -0.1076
      9 C9          1.2314   -0.6839   -0.0134 C.ar      1 <0>        -0.0331
     10 C10         0.0021   -0.0041    0.0020 C.ar      1 <0>        -0.1134
     11 C11         4.9769   -2.7128   -0.0589 C.2       1 <0>         0.5613
     12 O1          6.0191   -2.0870   -0.0657 O.2       1 <0>        -0.5332
     13 N1          5.0000   -4.0603   -0.0659 N.am      1 <0>        -0.7239
     14 C12         6.2810   -4.7709   -0.0819 C.3       1 <0>         0.1571
     15 C13         6.0311   -6.2571   -0.0870 C.ar      1 <0>        -0.0821
     16 C14         5.9228   -6.9414    1.1106 C.ar      1 <0>        -0.1030
     17 C15         5.6940   -8.3019    1.1129 C.ar      1 <0>        -0.0549
     18 C16         5.5718   -8.9879   -0.0965 C.ar      1 <0>        -0.1164
     19 C17         5.6821   -8.2915   -1.3011 C.ar      1 <0>        -0.0890
     20 C18         5.9053   -6.9302   -1.2893 C.ar      1 <0>        -0.1044
     21 C19         5.3270  -10.4459   -0.1015 C.2       1 <0>         0.5702
     22 O2          5.2318  -11.0499    0.9491 O.2       1 <0>        -0.5120
     23 N2          5.2095  -11.1055   -1.2710 N.am      1 <0>        -0.5929
     24 O3          4.9751  -12.5019   -1.2758 O.3       1 <0>        -0.3118
     25 H1         -0.9634    1.8760    0.0259 H         1 <0>         0.1268
     26 H2          1.1255    3.1705    0.0080 H         1 <0>         0.1274
     27 H3          3.2880    2.0496   -0.0187 H         1 <0>         0.1320
     28 H4          4.5928   -0.0549   -0.0417 H         1 <0>         0.1432
     29 H5          2.5134   -3.8049   -0.0413 H         1 <0>         0.1250
     30 H6          0.3680   -2.6638   -0.0164 H         1 <0>         0.1337
     31 H7         -0.9244   -0.5590    0.0082 H         1 <0>         0.1305
     32 H8          4.1684   -4.5597   -0.0605 H         1 <0>         0.4025
     33 H9          6.8394   -4.4933   -0.9759 H         1 <0>         0.0834
     34 H10         6.8565   -4.5024    0.8040 H         1 <0>         0.0839
     35 H11         6.0179   -6.4094    2.0457 H         1 <0>         0.1373
     36 H12         5.6100   -8.8350    2.0484 H         1 <0>         0.1433
     37 H13         5.5885   -8.8165   -2.2402 H         1 <0>         0.1287
     38 H14         5.9865   -6.3894   -2.2206 H         1 <0>         0.1353
     39 H15         5.2855  -10.6235   -2.1094 H         1 <0>         0.4080
     40 H16         4.9055  -12.8860   -2.1606 H         1 <0>         0.3905
@<TRIPOS>BOND
     1    1   10 ar
     2    1    2 ar
     3    1   25 1
     4    2    3 ar
     5    2   26 1
     6    3    4 ar
     7    3   27 1
     8    4    9 ar
     9    4    5 ar
    10    5    6 ar
    11    5   28 1
    12    6    7 ar
    13    6   11 1
    14    7    8 ar
    15    7   29 1
    16    8    9 ar
    17    8   30 1
    18    9   10 ar
    19   10   31 1
    20   11   12 2
    21   11   13 am
    22   13   14 1
    23   13   32 1
    24   14   15 1
    25   14   33 1
    26   14   34 1
    27   15   20 ar
    28   15   16 ar
    29   16   17 ar
    30   16   35 1
    31   17   18 ar
    32   17   36 1
    33   18   19 ar
    34   18   21 1
    35   19   20 ar
    36   19   37 1
    37   20   38 1
    38   21   22 2
    39   21   23 am
    40   23   24 1
    41   23   39 1
    42   24   40 1
@<TRIPOS>MOLECULE
CHEMBL1213492
   59    61     0     0     0
SMALL
USER_CHARGES

@<TRIPOS>ATOM
      1 C1          0.2135    1.5810   -0.5264 C.3       1 <0>        -0.1865
      2 C2          0.1118    0.0636   -0.3586 C.3       1 <0>        -0.0180
      3 N1         -1.2902   -0.3109   -0.1303 N.4       1 <0>        -0.3847
      4 C3         -2.0789   -0.0119   -1.3330 C.3       1 <0>        -0.0158
      5 C4         -3.5604   -0.2661   -1.0475 C.3       1 <0>        -0.1888
      6 C5         -1.3715   -1.7479    0.1638 C.3       1 <0>         0.0384
      7 C6         -0.6653   -2.0353    1.4637 C.ar      1 <0>        -0.1497
      8 C7          0.6940   -2.3428    1.4531 C.ar      1 <0>        -0.1204
      9 C8          1.3616   -2.6078    2.6091 C.ar      1 <0>        -0.0792
     10 C9          0.6731   -2.5712    3.8337 C.ar      1 <0>        -0.0391
     11 C10         1.3285   -2.8385    5.0478 C.ar      1 <0>        -0.0782
     12 C11         0.6294   -2.7935    6.2146 C.ar      1 <0>        -0.0718
     13 C12        -0.7299   -2.4856    6.2252 C.ar      1 <0>        -0.0831
     14 C13        -1.3975   -2.2211    5.0692 C.ar      1 <0>        -0.1038
     15 C14        -0.7090   -2.2581    3.8446 C.ar      1 <0>        -0.0492
     16 C15        -1.3632   -1.9852    2.6310 C.ar      1 <0>        -0.0650
     17 C16         1.3354   -3.0812    7.5145 C.3       1 <0>         0.1191
     18 O1          1.8562   -1.8644    8.0532 O.3       1 <0>        -0.3559
     19 C17         2.5206   -1.9480    9.2213 C.2       1 <0>         0.6502
     20 O2          2.6545   -3.0247    9.7683 O.2       1 <0>        -0.5401
     21 N2          3.0370   -0.8375    9.7838 N.am      1 <0>        -0.6479
     22 C18         3.8170   -0.9374   10.9353 C.ar      1 <0>         0.1849
     23 C19         4.6513   -2.0362   11.1154 C.ar      1 <0>        -0.1246
     24 C20         5.4231   -2.1377   12.2508 C.ar      1 <0>        -0.0302
     25 C21         5.3678   -1.1355   13.2233 C.ar      1 <0>        -0.1363
     26 C22         4.5287   -0.0331   13.0393 C.ar      1 <0>        -0.0642
     27 C23         3.7636    0.0647   11.8990 C.ar      1 <0>        -0.1447
     28 C24         6.1933   -1.2412   14.4421 C.2       1 <0>         0.5720
     29 O3          6.9226   -2.2010   14.6010 O.2       1 <0>        -0.5122
     30 N3          6.1389   -0.2738   15.3789 N.am      1 <0>        -0.5936
     31 O4          6.9309   -0.3753   16.5483 O.3       1 <0>        -0.3112
     32 H1          1.2621    1.8685   -0.6036 H         1 <0>         0.1054
     33 H2         -0.3135    1.8825   -1.4317 H         1 <0>         0.0804
     34 H3         -0.2355    2.0729    0.3364 H         1 <0>         0.0786
     35 H4          0.4766   -0.4270   -1.2610 H         1 <0>         0.1290
     36 H5          0.7148   -0.2489    0.4939 H         1 <0>         0.1324
     37 H6         -1.9364    1.0325   -1.6106 H         1 <0>         0.1324
     38 H7         -1.7513   -0.6533   -2.1511 H         1 <0>         0.1300
     39 H8         -3.7172   -1.3283   -0.8598 H         1 <0>         0.0805
     40 H9         -3.8651    0.3065   -0.1715 H         1 <0>         0.0794
     41 H10        -4.1544    0.0424   -1.9078 H         1 <0>         0.1065
     42 H11        -2.4175   -2.0434    0.2455 H         1 <0>         0.1381
     43 H12        -0.8966   -2.3107   -0.6398 H         1 <0>         0.1367
     44 H13         1.2255   -2.3715    0.5134 H         1 <0>         0.1315
     45 H14         2.4149   -2.8453    2.5854 H         1 <0>         0.1402
     46 H15         2.3814   -3.0788    5.0548 H         1 <0>         0.1393
     47 H16        -1.2614   -2.4569    7.1649 H         1 <0>         0.1357
     48 H17        -2.4510   -1.9844    5.0927 H         1 <0>         0.1378
     49 H18        -2.4152   -1.7409    2.6244 H         1 <0>         0.1365
     50 H19         0.6309   -3.5193    8.2214 H         1 <0>         0.0881
     51 H20         2.1534   -3.7794    7.3368 H         1 <0>         0.0872
     52 H21         2.8661    0.0312    9.3876 H         1 <0>         0.4209
     53 H22         4.6933   -2.8105   10.3637 H         1 <0>         0.1446
     54 H23         6.0702   -2.9910   12.3902 H         1 <0>         0.1470
     55 H24         4.4836    0.7431   13.7888 H         1 <0>         0.1340
     56 H25         3.1180    0.9183   11.7542 H         1 <0>         0.1388
     57 H26         5.5571    0.4919   15.2521 H         1 <0>         0.4071
     58 H27         6.8244    0.3653   17.1609 H         1 <0>         0.3907
     59 H28        -1.6555    0.2134    0.6505 H         1 <0>         0.4209
@<TRIPOS>BOND
     1    1    2 1
     2    1   32 1
     3    1   33 1
     4    1   34 1
     5    2    3 1
     6    2   35 1
     7    2   36 1
     8    3    4 1
     9    3    6 1
    10    3   59 1
    11    4    5 1
    12    4   37 1
    13    4   38 1
    14    5   39 1
    15    5   40 1
    16    5   41 1
    17    6    7 1
    18    6   42 1
    19    6   43 1
    20    7   16 ar
    21    7    8 ar
    22    8    9 ar
    23    8   44 1
    24    9   10 ar
    25    9   45 1
    26   10   15 ar
    27   10   11 ar
    28   11   12 ar
    29   11   46 1
    30   12   13 ar
    31   12   17 1
    32   13   14 ar
    33   13   47 1
    34   14   15 ar
    35   14   48 1
    36   15   16 ar
    37   16   49 1
    38   17   18 1
    39   17   50 1
    40   17   51 1
    41   18   19 1
    42   19   20 2
    43   19   21 am
    44   21   22 1
    45   21   52 1
    46   22   27 ar
    47   22   23 ar
    48   23   24 ar
    49   23   53 1
    50   24   25 ar
    51   24   54 1
    52   25   26 ar
    53   25   28 1
    54   26   27 ar
    55   26   55 1
    56   27   56 1
    57   28   29 2
    58   28   30 am
    59   30   31 1
    60   30   57 1
    61   31   58 1
@<TRIPOS>MOLECULE
CHEMBL56770
   49    50     0     0     0
SMALL
USER_CHARGES

@<TRIPOS>ATOM
      1 C1          2.5750   -0.7596   -0.4745 C.3       1 <0>        -0.1472
      2 C2          1.3992   -1.4663    0.2031 C.3       1 <0>        -0.0348
      3 C3          0.2604   -1.6486   -0.7773 C.ar      1 <0>        -0.0951
      4 C4          0.0898   -2.5752   -1.7924 C.ar      1 <0>        -0.1021
      5 C5         -1.0490   -2.5488   -2.5732 C.ar      1 <0>        -0.1212
      6 C6         -2.0227   -1.5951   -2.3412 C.ar      1 <0>        -0.1163
      7 C7         -1.8545   -0.6706   -1.3291 C.ar      1 <0>        -0.1072
      8 C8         -0.7130   -0.6952   -0.5453 C.ar      1 <0>        -0.0901
      9 C9         -0.2948    0.1932    0.6067 C.3       1 <0>        -0.0704
     10 C10         0.8233   -0.5853    1.3320 C.3       1 <0>        -0.1102
     11 C11         1.8725    0.3561    1.8650 C.2       1 <0>         0.5281
     12 O1          1.9533    1.4844    1.4277 O.2       1 <0>        -0.5322
     13 N1          2.7210   -0.0559    2.8277 N.am      1 <0>        -0.7319
     14 C12         3.7409    0.8592    3.3459 C.3       1 <0>         0.1165
     15 C13         4.5648    0.1484    4.4215 C.3       1 <0>        -0.1308
     16 C14         5.6299    1.1041    4.9626 C.3       1 <0>        -0.1182
     17 C15         6.4538    0.3933    6.0382 C.3       1 <0>        -0.1181
     18 C16         7.5190    1.3491    6.5794 C.3       1 <0>        -0.1074
     19 C17         8.3429    0.6383    7.6550 C.3       1 <0>        -0.1264
     20 C18         9.3920    1.5796    8.1880 C.2       1 <0>         0.5206
     21 O2          9.4729    2.7079    7.7507 O.2       1 <0>        -0.5183
     22 N2         10.2405    1.1676    9.1507 N.am      1 <0>        -0.6003
     23 O3         11.2263    2.0522    9.6516 O.3       1 <0>        -0.3204
     24 H1          3.3967   -0.6602    0.2347 H         1 <0>         0.0589
     25 H2          2.9047   -1.3447   -1.3330 H         1 <0>         0.0621
     26 H3          2.2611    0.2295   -0.8078 H         1 <0>         0.0663
     27 H4          1.7164   -2.4306    0.6003 H         1 <0>         0.0868
     28 H5          0.8499   -3.3205   -1.9743 H         1 <0>         0.1200
     29 H6         -1.1787   -3.2723   -3.3645 H         1 <0>         0.1245
     30 H7         -2.9137   -1.5728   -2.9511 H         1 <0>         0.1248
     31 H8         -2.6154    0.0743   -1.1487 H         1 <0>         0.1213
     32 H9          0.0871    1.1431    0.2326 H         1 <0>         0.1019
     33 H10        -1.1360    0.3614    1.2793 H         1 <0>         0.0795
     34 H11         0.4110   -1.2007    2.1316 H         1 <0>         0.1029
     35 H12         2.6563   -0.9583    3.1775 H         1 <0>         0.4009
     36 H13         4.3965    1.1706    2.5327 H         1 <0>         0.0682
     37 H14         3.2572    1.7351    3.7783 H         1 <0>         0.0685
     38 H15         3.9091   -0.1630    5.2347 H         1 <0>         0.0697
     39 H16         5.0484   -0.7274    3.9890 H         1 <0>         0.0696
     40 H17         6.2855    1.4156    4.1494 H         1 <0>         0.0681
     41 H18         5.1463    1.9800    5.3951 H         1 <0>         0.0682
     42 H19         5.7982    0.0819    6.8514 H         1 <0>         0.0649
     43 H20         6.9375   -0.4825    5.6058 H         1 <0>         0.0649
     44 H21         8.1746    1.6605    5.7662 H         1 <0>         0.0737
     45 H22         7.0353    2.2249    7.0119 H         1 <0>         0.0738
     46 H23         7.6872    0.3268    8.4682 H         1 <0>         0.0992
     47 H24         8.8265   -0.2376    7.2225 H         1 <0>         0.0992
     48 H25        10.1759    0.2652    9.5005 H         1 <0>         0.4080
     49 H26        11.7873    1.6674   10.3389 H         1 <0>         0.3878
@<TRIPOS>BOND
     1    1    2 1
     2    1   24 1
     3    1   25 1
     4    1   26 1
     5    2   10 1
     6    2    3 1
     7    2   27 1
     8    3    8 ar
     9    3    4 ar
    10    4    5 ar
    11    4   28 1
    12    5    6 ar
    13    5   29 1
    14    6    7 ar
    15    6   30 1
    16    7    8 ar
    17    7   31 1
    18    8    9 1
    19    9   10 1
    20    9   32 1
    21    9   33 1
    22   10   11 1
    23   10   34 1
    24   11   12 2
    25   11   13 am
    26   13   14 1
    27   13   35 1
    28   14   15 1
    29   14   36 1
    30   14   37 1
    31   15   16 1
    32   15   38 1
    33   15   39 1
    34   16   17 1
    35   16   40 1
    36   16   41 1
    37   17   18 1
    38   17   42 1
    39   17   43 1
    40   18   19 1
    41   18   44 1
    42   18   45 1
    43   19   20 1
    44   19   46 1
    45   19   47 1
    46   20   21 2
    47   20   22 am
    48   22   23 1
    49   22   48 1
    50   23   49 1
@<TRIPOS>MOLECULE
CHEMBL56770__1
   49    50     0     0     0
SMALL
USER_CHARGES

@<TRIPOS>ATOM
      1 C1         -0.0187    1.5258    0.0104 C.3       1 <0>        -0.1421
      2 C2          0.0021   -0.0041    0.0020 C.3       1 <0>        -0.0393
      3 C3         -1.4053   -0.5491    0.1178 C.ar      1 <0>        -0.0873
      4 C4         -2.5735   -0.1598   -0.5163 C.ar      1 <0>        -0.1037
      5 C5         -3.7602   -0.8137   -0.2494 C.ar      1 <0>        -0.1172
      6 C6         -3.7832   -1.8607    0.6532 C.ar      1 <0>        -0.1205
      7 C7         -2.6194   -2.2506    1.2862 C.ar      1 <0>        -0.1045
      8 C8         -1.4283   -1.5958    1.0202 C.ar      1 <0>        -0.1009
      9 C9         -0.0379   -1.8259    1.5725 C.3       1 <0>        -0.0688
     10 C10         0.7450   -0.5365    1.2458 C.3       1 <0>        -0.1087
     11 C11         2.1819   -0.8507    0.9177 C.2       1 <0>         0.5231
     12 O1          2.6001   -0.6729   -0.2067 O.2       1 <0>        -0.5317
     13 N1          3.0022   -1.3294    1.8740 N.am      1 <0>        -0.7309
     14 C12         4.3991   -1.6349    1.5551 C.3       1 <0>         0.1160
     15 C13         5.1051   -2.1592    2.8071 C.3       1 <0>        -0.1308
     16 C14         6.5640   -2.4783    2.4740 C.3       1 <0>        -0.1182
     17 C15         7.2700   -3.0025    3.7261 C.3       1 <0>        -0.1181
     18 C16         8.7288   -3.3216    3.3930 C.3       1 <0>        -0.1075
     19 C17         9.4349   -3.8459    4.6451 C.3       1 <0>        -0.1264
     20 C18        10.8718   -4.1602    4.3170 C.2       1 <0>         0.5206
     21 O2         11.2899   -3.9823    3.1926 O.2       1 <0>        -0.5183
     22 N2         11.6921   -4.6389    5.2732 N.am      1 <0>        -0.6003
     23 O3         13.0422   -4.9341    4.9650 O.3       1 <0>        -0.3204
     24 H1          1.0039    1.9031    0.0027 H         1 <0>         0.0606
     25 H2         -0.5459    1.8868   -0.8726 H         1 <0>         0.0607
     26 H3         -0.5289    1.8773    0.9072 H         1 <0>         0.0563
     27 H4          0.4774   -0.3703   -0.9080 H         1 <0>         0.1049
     28 H5         -2.5563    0.6580   -1.2215 H         1 <0>         0.1211
     29 H6         -4.6696   -0.5072   -0.7450 H         1 <0>         0.1247
     30 H7         -4.7105   -2.3729    0.8634 H         1 <0>         0.1245
     31 H8         -2.6382   -3.0684    1.9914 H         1 <0>         0.1204
     32 H9         -0.0799   -1.9799    2.6507 H         1 <0>         0.0833
     33 H10         0.4256   -2.6835    1.0849 H         1 <0>         0.0842
     34 H11         0.6810    0.1748    2.0693 H         1 <0>         0.1094
     35 H12         2.6678   -1.4716    2.7733 H         1 <0>         0.4012
     36 H13         4.4358   -2.3932    0.7729 H         1 <0>         0.0685
     37 H14         4.8987   -0.7305    1.2080 H         1 <0>         0.0687
     38 H15         5.0685   -1.4010    3.5893 H         1 <0>         0.0697
     39 H16         4.6055   -3.0636    3.1541 H         1 <0>         0.0697
     40 H17         6.6006   -3.2365    1.6919 H         1 <0>         0.0682
     41 H18         7.0636   -1.5738    2.1270 H         1 <0>         0.0682
     42 H19         7.2333   -2.2443    4.5083 H         1 <0>         0.0649
     43 H20         6.7703   -3.9070    4.0731 H         1 <0>         0.0649
     44 H21         8.7655   -4.0799    2.6108 H         1 <0>         0.0738
     45 H22         9.2285   -2.4172    3.0460 H         1 <0>         0.0738
     46 H23         9.3982   -3.0876    5.4272 H         1 <0>         0.0992
     47 H24         8.9352   -4.7503    4.9921 H         1 <0>         0.0992
     48 H25        11.3577   -4.7811    6.1726 H         1 <0>         0.4080
     49 H26        13.5518   -5.2721    5.7141 H         1 <0>         0.3878
@<TRIPOS>BOND
     1    1    2 1
     2    1   24 1
     3    1   25 1
     4    1   26 1
     5    2   10 1
     6    2    3 1
     7    2   27 1
     8    3    8 ar
     9    3    4 ar
    10    4    5 ar
    11    4   28 1
    12    5    6 ar
    13    5   29 1
    14    6    7 ar
    15    6   30 1
    16    7    8 ar
    17    7   31 1
    18    8    9 1
    19    9   10 1
    20    9   32 1
    21    9   33 1
    22   10   11 1
    23   10   34 1
    24   11   12 2
    25   11   13 am
    26   13   14 1
    27   13   35 1
    28   14   15 1
    29   14   36 1
    30   14   37 1
    31   15   16 1
    32   15   38 1
    33   15   39 1
    34   16   17 1
    35   16   40 1
    36   16   41 1
    37   17   18 1
    38   17   42 1
    39   17   43 1
    40   18   19 1
    41   18   44 1
    42   18   45 1
    43   19   20 1
    44   19   46 1
    45   19   47 1
    46   20   21 2
    47   20   22 am
    48   22   23 1
    49   22   48 1
    50   23   49 1
@<TRIPOS>MOLECULE
CHEMBL56770__2
   49    50     0     0     0
SMALL
USER_CHARGES

@<TRIPOS>ATOM
      1 C1         -0.0187    1.5258    0.0104 C.3       1 <0>        -0.1421
      2 C2          0.0021   -0.0041    0.0020 C.3       1 <0>        -0.0393
      3 C3          0.7969   -0.5121   -1.1818 C.ar      1 <0>        -0.0873
      4 C4          0.7961   -0.1036   -2.5052 C.ar      1 <0>        -0.1036
      5 C5          1.6181   -0.7248   -3.4247 C.ar      1 <0>        -0.1172
      6 C6          2.4453   -1.7575   -3.0238 C.ar      1 <0>        -0.1205
      7 C7          2.4479   -2.1659   -1.7046 C.ar      1 <0>        -0.1045
      8 C8          1.6239   -1.5445   -0.7810 C.ar      1 <0>        -0.1009
      9 C9          1.4413   -1.8010    0.6996 C.3       1 <0>        -0.0689
     10 C10         0.7450   -0.5365    1.2458 C.3       1 <0>        -0.1087
     11 C11        -0.2284   -0.8912    2.3401 C.2       1 <0>         0.5231
     12 O1         -1.4190   -0.7404    2.1651 O.2       1 <0>        -0.5317
     13 N1          0.2241   -1.3761    3.5134 N.am      1 <0>        -0.7309
     14 C12        -0.7222   -1.7210    4.5773 C.3       1 <0>         0.1160
     15 C13         0.0455   -2.2442    5.7929 C.3       1 <0>        -0.1308
     16 C14        -0.9427   -2.6044    6.9039 C.3       1 <0>        -0.1183
     17 C15        -0.1750   -3.1277    8.1195 C.3       1 <0>        -0.1181
     18 C16        -1.1633   -3.4879    9.2306 C.3       1 <0>        -0.1074
     19 C17        -0.3955   -4.0111   10.4462 C.3       1 <0>        -0.1264
     20 C18        -1.3689   -4.3659   11.5405 C.2       1 <0>         0.5205
     21 O2         -2.5595   -4.2151   11.3654 O.2       1 <0>        -0.5183
     22 N2         -0.9164   -4.8508   12.7138 N.am      1 <0>        -0.6002
     23 O3         -1.8310   -5.1841   13.7421 O.3       1 <0>        -0.3204
     24 H1          1.0039    1.9031    0.0027 H         1 <0>         0.0563
     25 H2         -0.5459    1.8868   -0.8726 H         1 <0>         0.0607
     26 H3         -0.5289    1.8773    0.9072 H         1 <0>         0.0606
     27 H4         -1.0149   -0.3953   -0.0274 H         1 <0>         0.1049
     28 H5          0.1502    0.7030   -2.8191 H         1 <0>         0.1211
     29 H6          1.6146   -0.4044   -4.4561 H         1 <0>         0.1247
     30 H7          3.0886   -2.2446   -3.7417 H         1 <0>         0.1245
     31 H8          3.0940   -2.9729   -1.3922 H         1 <0>         0.1204
     32 H9          0.8120   -2.6771    0.8569 H         1 <0>         0.0842
     33 H10         2.4091   -1.9381    1.1819 H         1 <0>         0.0833
     34 H11         1.4789    0.1882    1.5984 H         1 <0>         0.1094
     35 H12         1.1763   -1.4967    3.6534 H         1 <0>         0.4012
     36 H13        -1.2899   -0.8345    4.8601 H         1 <0>         0.0687
     37 H14        -1.4056   -2.4914    4.2200 H         1 <0>         0.0685
     38 H15         0.6132   -3.1307    5.5101 H         1 <0>         0.0697
     39 H16         0.7289   -1.4739    6.1501 H         1 <0>         0.0697
     40 H17        -1.5104   -1.7179    7.1867 H         1 <0>         0.0682
     41 H18        -1.6261   -3.3748    6.5467 H         1 <0>         0.0682
     42 H19         0.3927   -4.0142    7.8367 H         1 <0>         0.0649
     43 H20         0.5084   -2.3573    8.4768 H         1 <0>         0.0649
     44 H21        -1.7309   -2.6014    9.5134 H         1 <0>         0.0738
     45 H22        -1.8466   -4.2582    8.8733 H         1 <0>         0.0738
     46 H23         0.1722   -4.8976   10.1634 H         1 <0>         0.0992
     47 H24         0.2879   -3.2408   10.8034 H         1 <0>         0.0992
     48 H25         0.0358   -4.9714   12.8538 H         1 <0>         0.4080
     49 H26        -1.4132   -5.5236   14.5453 H         1 <0>         0.3878
@<TRIPOS>BOND
     1    1    2 1
     2    1   24 1
     3    1   25 1
     4    1   26 1
     5    2   10 1
     6    2    3 1
     7    2   27 1
     8    3    8 ar
     9    3    4 ar
    10    4    5 ar
    11    4   28 1
    12    5    6 ar
    13    5   29 1
    14    6    7 ar
    15    6   30 1
    16    7    8 ar
    17    7   31 1
    18    8    9 1
    19    9   10 1
    20    9   32 1
    21    9   33 1
    22   10   11 1
    23   10   34 1
    24   11   12 2
    25   11   13 am
    26   13   14 1
    27   13   35 1
    28   14   15 1
    29   14   36 1
    30   14   37 1
    31   15   16 1
    32   15   38 1
    33   15   39 1
    34   16   17 1
    35   16   40 1
    36   16   41 1
    37   17   18 1
    38   17   42 1
    39   17   43 1
    40   18   19 1
    41   18   44 1
    42   18   45 1
    43   19   20 1
    44   19   46 1
    45   19   47 1
    46   20   21 2
    47   20   22 am
    48   22   23 1
    49   22   48 1
    50   23   49 1
@<TRIPOS>MOLECULE
CHEMBL56770__3
   49    50     0     0     0
SMALL
USER_CHARGES

@<TRIPOS>ATOM
      1 C1         -0.4418    0.3603    3.2834 C.3       1 <0>        -0.1507
      2 C2         -0.6259   -0.2999    1.9155 C.3       1 <0>        -0.0355
      3 C3         -1.4739    0.5767    1.0190 C.ar      1 <0>        -0.0953
      4 C4         -2.6401    1.2736    1.2883 C.ar      1 <0>        -0.1023
      5 C5         -3.2488    2.0188    0.2977 C.ar      1 <0>        -0.1225
      6 C6         -2.6928    2.0703   -0.9671 C.ar      1 <0>        -0.1169
      7 C7         -1.5298    1.3764   -1.2374 C.ar      1 <0>        -0.1055
      8 C8         -0.9180    0.6281   -0.2454 C.ar      1 <0>        -0.0811
      9 C9          0.3415   -0.2104   -0.2851 C.3       1 <0>        -0.0655
     10 C10         0.7324   -0.4225    1.1929 C.3       1 <0>        -0.1106
     11 C11         1.6838    0.6512    1.6547 C.2       1 <0>         0.5250
     12 O1          1.6528    1.7501    1.1426 O.2       1 <0>        -0.5275
     13 N1          2.5690    0.3901    2.6369 N.am      1 <0>        -0.7329
     14 C12         3.4938    1.4338    3.0859 C.3       1 <0>         0.1172
     15 C13         4.3841    0.8812    4.2008 C.3       1 <0>        -0.1303
     16 C14         5.3499    1.9712    4.6697 C.3       1 <0>        -0.1183
     17 C15         6.2402    1.4186    5.7846 C.3       1 <0>        -0.1179
     18 C16         7.2061    2.5086    6.2535 C.3       1 <0>        -0.1075
     19 C17         8.0963    1.9560    7.3684 C.3       1 <0>        -0.1263
     20 C18         9.0477    3.0296    7.8303 C.2       1 <0>         0.5205
     21 O2          9.0167    4.1286    7.3182 O.2       1 <0>        -0.5184
     22 N2          9.9329    2.7686    8.8124 N.am      1 <0>        -0.6002
     23 O3         10.8268    3.7774    9.2464 O.3       1 <0>        -0.3204
     24 H1         -0.1160    1.3917    3.1481 H         1 <0>         0.0608
     25 H2         -1.3882    0.3462    3.8240 H         1 <0>         0.0630
     26 H3          0.3099   -0.1865    3.8526 H         1 <0>         0.0603
     27 H4         -1.0839   -1.2825    2.0291 H         1 <0>         0.0973
     28 H5         -3.0750    1.2338    2.2760 H         1 <0>         0.1179
     29 H6         -4.1586    2.5605    0.5107 H         1 <0>         0.1232
     30 H7         -3.1678    2.6523   -1.7431 H         1 <0>         0.1235
     31 H8         -1.0962    1.4168   -2.2257 H         1 <0>         0.1194
     32 H9          0.1429   -1.1687   -0.7651 H         1 <0>         0.0891
     33 H10         1.1332    0.3211   -0.8132 H         1 <0>         0.0845
     34 H11         1.1625   -1.4129    1.3416 H         1 <0>         0.1043
     35 H12         2.5938   -0.4888    3.0465 H         1 <0>         0.3996
     36 H13         4.1153    1.7531    2.2493 H         1 <0>         0.0674
     37 H14         2.9262    2.2848    3.4624 H         1 <0>         0.0670
     38 H15         3.7626    0.5620    5.0374 H         1 <0>         0.0693
     39 H16         4.9517    0.0302    3.8243 H         1 <0>         0.0694
     40 H17         5.9714    2.2905    3.8331 H         1 <0>         0.0680
     41 H18         4.7823    2.8222    5.0462 H         1 <0>         0.0679
     42 H19         5.6187    1.0994    6.6212 H         1 <0>         0.0648
     43 H20         6.8078    0.5676    5.4081 H         1 <0>         0.0649
     44 H21         7.8275    2.8279    5.4169 H         1 <0>         0.0737
     45 H22         6.6384    3.3596    6.6300 H         1 <0>         0.0737
     46 H23         7.4749    1.6368    8.2050 H         1 <0>         0.0992
     47 H24         8.6639    1.1050    6.9919 H         1 <0>         0.0992
     48 H25         9.9577    1.8897    9.2220 H         1 <0>         0.4080
     49 H26        11.4231    3.4967    9.9540 H         1 <0>         0.3878
@<TRIPOS>BOND
     1    1    2 1
     2    1   24 1
     3    1   25 1
     4    1   26 1
     5    2   10 1
     6    2    3 1
     7    2   27 1
     8    3    8 ar
     9    3    4 ar
    10    4    5 ar
    11    4   28 1
    12    5    6 ar
    13    5   29 1
    14    6    7 ar
    15    6   30 1
    16    7    8 ar
    17    7   31 1
    18    8    9 1
    19    9   10 1
    20    9   32 1
    21    9   33 1
    22   10   11 1
    23   10   34 1
    24   11   12 2
    25   11   13 am
    26   13   14 1
    27   13   35 1
    28   14   15 1
    29   14   36 1
    30   14   37 1
    31   15   16 1
    32   15   38 1
    33   15   39 1
    34   16   17 1
    35   16   40 1
    36   16   41 1
    37   17   18 1
    38   17   42 1
    39   17   43 1
    40   18   19 1
    41   18   44 1
    42   18   45 1
    43   19   20 1
    44   19   46 1
    45   19   47 1
    46   20   21 2
    47   20   22 am
    48   22   23 1
    49   22   48 1
    50   23   49 1
@<TRIPOS>MOLECULE
CHEMBL99392
   81    84     0     0     0
SMALL
USER_CHARGES

@<TRIPOS>ATOM
      1 C1          2.5081   -4.1445   -2.2357 C.ar      1 <0>        -0.1207
      2 C2          1.5871   -3.3505   -1.5783 C.ar      1 <0>        -0.1196
      3 C3          2.0032   -2.2060   -0.9243 C.ar      1 <0>        -0.1156
      4 C4          3.3404   -1.8556   -0.9273 C.ar      1 <0>        -0.0922
      5 C5          4.2616   -2.6501   -1.5840 C.ar      1 <0>        -0.1013
      6 C6          3.8453   -3.7939   -2.2391 C.ar      1 <0>        -0.1155
      7 C7          3.7939   -0.6073   -0.2152 C.3       1 <0>        -0.0782
      8 C8          4.0257   -0.9200    1.2644 C.3       1 <0>         0.1314
      9 H1          3.1831   -1.4886    1.6577 H         1 <0>         0.1158
     10 C9          5.2983   -1.7153    1.4252 C.2       1 <0>         0.5143
     11 O1          5.2718   -2.9219    1.5451 O.2       1 <0>        -0.5190
     12 N1          6.4899   -1.0266    1.4309 N.am      1 <0>        -0.7010
     13 C10         7.6695   -1.9026    1.6577 C.3       1 <0>         0.1261
     14 H2          7.5389   -2.4512    2.5905 H         1 <0>         0.1040
     15 C11         8.9052   -1.0794    1.7379 C.2       1 <0>         0.5810
     16 O2          9.8064   -1.3688    0.9796 O.2       1 <0>        -0.4427
     17 N2          9.1182   -0.0544    2.5632 N.am      1 <0>        -0.6980
     18 C12         9.8099   -0.1926    3.8602 C.3       1 <0>         0.1252
     19 C13        10.3078    1.2006    4.2531 C.3       1 <0>        -0.1259
     20 C14         9.4101    2.1708    3.4819 C.3       1 <0>        -0.1158
     21 C15         8.7377    1.3465    2.3884 C.3       1 <0>         0.1505
     22 H3          9.0747    1.6967    1.4062 H         1 <0>         0.0937
     23 C16         7.2406    1.4891    2.4762 C.2       1 <0>         0.4727
     24 O3          6.5574    0.5820    2.9019 O.2       1 <0>        -0.4834
     25 N3          6.6641    2.6656    2.0654 N.am      1 <0>        -0.7223
     26 C17         5.1742    2.6151    2.0782 C.3       1 <0>         0.1274
     27 H4          4.8125    2.5734    3.1056 H         1 <0>         0.0974
     28 C18         4.7676    1.3646    1.3386 C.2       1 <0>         0.5099
     29 O4          4.9619    1.2677    0.1454 O.2       1 <0>        -0.5179
     30 N4          4.1783    0.3431    2.0264 N.am      1 <0>        -0.7101
     31 C19         4.6043    3.8482    1.3743 C.3       1 <0>        -0.1196
     32 C20         4.9680    5.1033    2.1702 C.3       1 <0>        -0.1185
     33 C21         4.3981    6.3365    1.4663 C.3       1 <0>        -0.1202
     34 C22         4.7617    7.5916    2.2622 C.3       1 <0>        -0.1060
     35 C23         4.1918    8.8247    1.5584 C.3       1 <0>        -0.1275
     36 C24         4.5500   10.0609    2.3423 C.2       1 <0>         0.5210
     37 O5          5.1974    9.9651    3.3634 O.2       1 <0>        -0.5195
     38 N5          4.1509   11.2730    1.9086 N.am      1 <0>        -0.5999
     39 O6          4.4875   12.4346    2.6452 O.3       1 <0>        -0.3204
     40 C25         7.7964   -2.8938    0.4990 C.3       1 <0>        -0.0856
     41 C26         8.8724   -3.9005    0.8147 C.ar      1 <0>        -0.0860
     42 C27        10.1427   -3.7408    0.2935 C.ar      1 <0>        -0.0843
     43 C28        11.1298   -4.6643    0.5830 C.ar      1 <0>        -0.1297
     44 C29        10.8466   -5.7472    1.3941 C.ar      1 <0>        -0.1212
     45 C30         9.5765   -5.9065    1.9161 C.ar      1 <0>        -0.1275
     46 C31         8.5906   -4.9807    1.6300 C.ar      1 <0>        -0.1120
     47 H5          2.1837   -5.0411   -2.7429 H         1 <0>         0.1201
     48 H6          0.5423   -3.6242   -1.5760 H         1 <0>         0.1204
     49 H7          1.2835   -1.5852   -0.4113 H         1 <0>         0.1186
     50 H8          5.3062   -2.3762   -1.5866 H         1 <0>         0.1142
     51 H9          4.5649   -4.4144   -2.7525 H         1 <0>         0.1202
     52 H10         4.7226   -0.2516   -0.6613 H         1 <0>         0.1194
     53 H11         3.0279    0.1626   -0.3082 H         1 <0>         0.0844
     54 H12         6.5536   -0.0676    1.3000 H         1 <0>         0.4107
     55 H13         9.1159   -0.5653    4.6136 H         1 <0>         0.0607
     56 H14        10.6543   -0.8745    3.7603 H         1 <0>         0.0712
     57 H15        10.1969    1.3538    5.3266 H         1 <0>         0.0868
     58 H16        11.3484    1.3290    3.9552 H         1 <0>         0.0802
     59 H17         8.6586    2.5963    4.1469 H         1 <0>         0.0824
     60 H18        10.0101    2.9651    3.0378 H         1 <0>         0.0919
     61 H19         7.1722    3.4467    1.7959 H         1 <0>         0.4206
     62 H20         3.8829    0.4360    2.9457 H         1 <0>         0.4175
     63 H21         5.0238    3.9201    0.3708 H         1 <0>         0.0859
     64 H22         3.5198    3.7607    1.3094 H         1 <0>         0.0847
     65 H23         4.5485    5.0314    3.1737 H         1 <0>         0.0695
     66 H24         6.0525    5.1908    2.2351 H         1 <0>         0.0657
     67 H25         4.8175    6.4083    0.4629 H         1 <0>         0.0671
     68 H26         3.3135    6.2490    1.4014 H         1 <0>         0.0669
     69 H27         4.3423    7.5197    3.2657 H         1 <0>         0.0735
     70 H28         5.8463    7.6791    2.3272 H         1 <0>         0.0734
     71 H29         4.6113    8.8966    0.5549 H         1 <0>         0.0997
     72 H30         3.1073    8.7372    1.4934 H         1 <0>         0.0995
     73 H31         3.6332   11.3497    1.0920 H         1 <0>         0.4083
     74 H32         4.1577   13.2562    2.2563 H         1 <0>         0.3883
     75 H33         6.8467   -3.4095    0.3565 H         1 <0>         0.1059
     76 H34         8.0580   -2.3559   -0.4122 H         1 <0>         0.0727
     77 H35        10.3640   -2.8947   -0.3402 H         1 <0>         0.1289
     78 H36        12.1221   -4.5398    0.1753 H         1 <0>         0.1181
     79 H37        11.6175   -6.4691    1.6198 H         1 <0>         0.1179
     80 H38         9.3552   -6.7528    2.5495 H         1 <0>         0.1192
     81 H39         7.5993   -5.1031    2.0408 H         1 <0>         0.1222
@<TRIPOS>BOND
     1    1    6 ar
     2    1    2 ar
     3    1   47 1
     4    2    3 ar
     5    2   48 1
     6    3    4 ar
     7    3   49 1
     8    4    5 ar
     9    4    7 1
    10    5    6 ar
    11    5   50 1
    12    6   51 1
    13    7    8 1
    14    7   52 1
    15    7   53 1
    16    8    9 1
    17    8   30 1
    18    8   10 1
    19   10   11 2
    20   10   12 am
    21   12   13 1
    22   12   54 1
    23   13   14 1
    24   13   15 1
    25   13   40 1
    26   15   16 2
    27   15   17 am
    28   17   21 1
    29   17   18 1
    30   18   19 1
    31   18   55 1
    32   18   56 1
    33   19   20 1
    34   19   57 1
    35   19   58 1
    36   20   21 1
    37   20   59 1
    38   20   60 1
    39   21   22 1
    40   21   23 1
    41   23   24 2
    42   23   25 am
    43   25   26 1
    44   25   61 1
    45   26   27 1
    46   26   28 1
    47   26   31 1
    48   28   29 2
    49   28   30 am
    50   30   62 1
    51   31   32 1
    52   31   63 1
    53   31   64 1
    54   32   33 1
    55   32   65 1
    56   32   66 1
    57   33   34 1
    58   33   67 1
    59   33   68 1
    60   34   35 1
    61   34   69 1
    62   34   70 1
    63   35   36 1
    64   35   71 1
    65   35   72 1
    66   36   37 2
    67   36   38 am
    68   38   39 1
    69   38   73 1
    70   39   74 1
    71   40   41 1
    72   40   75 1
    73   40   76 1
    74   41   46 ar
    75   41   42 ar
    76   42   43 ar
    77   42   77 1
    78   43   44 ar
    79   43   78 1
    80   44   45 ar
    81   44   79 1
    82   45   46 ar
    83   45   80 1
    84   46   81 1
@<TRIPOS>MOLECULE
CHEMBL95881
   95    96     0     0     0
SMALL
USER_CHARGES

@<TRIPOS>ATOM
      1 C1         -0.1990    1.6426    0.6018 C.3       1 <0>        -0.1540
      2 C2         -0.0263    0.2108    0.0910 C.3       1 <0>        -0.1047
      3 C3          0.8661   -0.5712    1.0569 C.3       1 <0>        -0.1651
      4 C4         -1.3951   -0.4666   -0.0006 C.3       1 <0>        -0.1703
      5 C5         -2.1313    0.0372   -1.2437 C.3       1 <0>        -0.1036
      6 H1         -1.9774    1.1113   -1.3467 H         1 <0>         0.1305
      7 C6         -1.5878   -0.6770   -2.4827 C.3       1 <0>        -0.0300
      8 N1         -0.4510   -1.5253   -2.1003 N.4       1 <0>        -0.5087
      9 C7          0.1770   -2.0757   -3.3088 C.3       1 <0>         0.0037
     10 H2          1.1454   -1.6000   -3.4637 H         1 <0>         0.1577
     11 C8          0.3707   -3.5839   -3.1428 C.3       1 <0>        -0.0851
     12 C9         -0.5172   -4.0882   -2.0347 C.ar      1 <0>        -0.1648
     13 C10        -1.7909   -4.5423   -2.3231 C.ar      1 <0>        -0.0715
     14 C11        -2.6064   -5.0059   -1.3090 C.ar      1 <0>        -0.1290
     15 C12        -2.1461   -5.0161   -0.0003 C.ar      1 <0>         0.1361
     16 C13        -0.8678   -4.5598    0.2866 C.ar      1 <0>        -0.1401
     17 C14        -0.0565   -4.0966   -0.7310 C.ar      1 <0>        -0.1197
     18 O1         -2.9459   -5.4728    0.9992 O.3       1 <0>        -0.3317
     19 C15        -3.6582   -4.4929    1.7574 C.3       1 <0>         0.0636
     20 C16        -4.2940   -3.4762    0.8072 C.3       1 <0>        -0.1622
     21 C17        -4.7414   -2.2467    1.6002 C.3       1 <0>        -0.1215
     22 C18        -5.1854   -1.1490    0.6312 C.3       1 <0>        -0.1219
     23 C19        -4.0192   -0.1922    0.3756 C.3       1 <0>        -0.1368
     24 C20        -3.6270   -0.2526   -1.1030 C.3       1 <0>        -0.0802
     25 H3         -3.8434   -1.2454   -1.4973 H         1 <0>         0.1146
     26 C21        -4.4127    0.7764   -1.8742 C.2       1 <0>         0.4684
     27 O2         -3.8356    1.6517   -2.4748 O.2       1 <0>        -0.4994
     28 O3         -5.7537    0.7206   -1.8940 O.3       1 <0>        -0.3339
     29 C22        -6.4340    1.7281   -2.6451 C.3       1 <0>         0.1175
     30 C23        -5.9978    1.6540   -4.1098 C.3       1 <0>        -0.1849
     31 C24        -7.9443    1.5021   -2.5507 C.3       1 <0>        -0.1438
     32 C25        -6.0882    3.1069   -2.0791 C.3       1 <0>        -0.1862
     33 C26        -0.7083   -1.8114   -4.4995 C.2       1 <0>         0.5004
     34 O4         -1.8582   -2.1967   -4.4975 O.2       1 <0>        -0.5056
     35 N2         -0.2220   -1.1470   -5.5665 N.am      1 <0>        -0.7033
     36 C27        -1.0826   -0.8901   -6.7239 C.3       1 <0>         0.1123
     37 C28        -0.2920   -0.1255   -7.7875 C.3       1 <0>        -0.1348
     38 C29        -1.1908    0.1428   -8.9963 C.3       1 <0>        -0.1169
     39 C30        -0.4002    0.9074  -10.0599 C.3       1 <0>        -0.1055
     40 C31        -1.2990    1.1757  -11.2687 C.3       1 <0>        -0.1281
     41 C32        -0.5203    1.9288  -12.3164 C.2       1 <0>         0.5207
     42 O5          0.6393    2.2220  -12.1159 O.2       1 <0>        -0.5203
     43 N3         -1.1126    2.2764  -13.4760 N.am      1 <0>        -0.5986
     44 O6         -0.3809    2.9840  -14.4604 O.3       1 <0>        -0.3185
     45 H4          0.7761    2.1252    0.6671 H         1 <0>         0.0685
     46 H5         -0.8348    2.1997   -0.0863 H         1 <0>         0.0638
     47 H6         -0.6615    1.6230    1.5887 H         1 <0>         0.0696
     48 H7          0.4361    0.2304   -0.8959 H         1 <0>         0.0548
     49 H8          0.4037   -0.5908    2.0437 H         1 <0>         0.0751
     50 H9          0.9892   -1.5912    0.6929 H         1 <0>         0.0530
     51 H10         1.8413   -0.0886    1.1222 H         1 <0>         0.0740
     52 H11        -1.2623   -1.5463   -0.0697 H         1 <0>         0.0622
     53 H12        -1.9786   -0.2285    0.8887 H         1 <0>         0.1321
     54 H13        -2.3721   -1.2956   -2.9188 H         1 <0>         0.1603
     55 H14        -1.2597    0.0623   -3.2135 H         1 <0>         0.1312
     56 H15         0.2240   -0.9741   -1.5917 H         1 <0>         0.4240
     57 H16         0.1111   -4.0879   -4.0738 H         1 <0>         0.1182
     58 H17         1.4121   -3.7912   -2.8964 H         1 <0>         0.1184
     59 H18        -2.1487   -4.5341   -3.3421 H         1 <0>         0.1443
     60 H19        -3.6015   -5.3597   -1.5347 H         1 <0>         0.1428
     61 H20        -0.5076   -4.5661    1.3047 H         1 <0>         0.1429
     62 H21         0.9385   -3.7408   -0.5081 H         1 <0>         0.1388
     63 H22        -4.4381   -4.9818    2.3412 H         1 <0>         0.1100
     64 H23        -2.9686   -3.9811    2.4287 H         1 <0>         0.0619
     65 H24        -3.5648   -3.1773    0.0542 H         1 <0>         0.0641
     66 H25        -5.1575   -3.9269    0.3179 H         1 <0>         0.0791
     67 H26        -5.5740   -2.5165    2.2498 H         1 <0>         0.0734
     68 H27        -3.9112   -1.8829    2.2056 H         1 <0>         0.0675
     69 H28        -5.4981   -1.6003   -0.3104 H         1 <0>         0.0739
     70 H29        -6.0197   -0.5975    1.0645 H         1 <0>         0.0751
     71 H30        -4.3201    0.8238    0.6311 H         1 <0>         0.0774
     72 H31        -3.1680   -0.4845    0.9906 H         1 <0>         0.1047
     73 H32        -6.2441    0.6717   -4.5130 H         1 <0>         0.0616
     74 H33        -6.5167    2.4225   -4.6827 H         1 <0>         0.0749
     75 H34        -4.9219    1.8150   -4.1770 H         1 <0>         0.0802
     76 H35        -8.2550    1.5549   -1.5073 H         1 <0>         0.0689
     77 H36        -8.4631    2.2706   -3.1236 H         1 <0>         0.0824
     78 H37        -8.1906    0.5198   -2.9539 H         1 <0>         0.0681
     79 H38        -5.0123    3.2679   -2.1464 H         1 <0>         0.0814
     80 H39        -6.6071    3.8754   -2.6521 H         1 <0>         0.0750
     81 H40        -6.3990    3.1596   -1.0357 H         1 <0>         0.0627
     82 H41         0.6977   -0.8388   -5.5680 H         1 <0>         0.4099
     83 H42        -1.4267   -1.8377   -7.1382 H         1 <0>         0.0814
     84 H43        -1.9420   -0.2961   -6.4130 H         1 <0>         0.0796
     85 H44         0.0521    0.8221   -7.3732 H         1 <0>         0.0751
     86 H45         0.5673   -0.7195   -8.0984 H         1 <0>         0.0765
     87 H46        -1.5349   -0.8049   -9.4107 H         1 <0>         0.0710
     88 H47        -2.0502    0.7368   -8.6854 H         1 <0>         0.0700
     89 H48        -0.0561    1.8550   -9.6456 H         1 <0>         0.0749
     90 H49         0.4591    0.3133  -10.3709 H         1 <0>         0.0755
     91 H50        -1.6431    0.2280  -11.6831 H         1 <0>         0.1006
     92 H51        -2.1584    1.7697  -10.9578 H         1 <0>         0.1001
     93 H52        -2.0400    2.0418  -13.6364 H         1 <0>         0.4088
     94 H53        -0.8895    3.1888  -15.2570 H         1 <0>         0.3904
     95 H54        -0.7767   -2.2811   -1.5165 H         1 <0>         0.4250
@<TRIPOS>BOND
     1    1    2 1
     2    1   45 1
     3    1   46 1
     4    1   47 1
     5    2    3 1
     6    2    4 1
     7    2   48 1
     8    3   49 1
     9    3   50 1
    10    3   51 1
    11    4    5 1
    12    4   52 1
    13    4   53 1
    14    5    6 1
    15    5   24 1
    16    5    7 1
    17    7    8 1
    18    7   54 1
    19    7   55 1
    20    8    9 1
    21    8   56 1
    22    8   95 1
    23    9   10 1
    24    9   11 1
    25    9   33 1
    26   11   12 1
    27   11   57 1
    28   11   58 1
    29   12   17 ar
    30   12   13 ar
    31   13   14 ar
    32   13   59 1
    33   14   15 ar
    34   14   60 1
    35   15   16 ar
    36   15   18 1
    37   16   17 ar
    38   16   61 1
    39   17   62 1
    40   18   19 1
    41   19   20 1
    42   19   63 1
    43   19   64 1
    44   20   21 1
    45   20   65 1
    46   20   66 1
    47   21   22 1
    48   21   67 1
    49   21   68 1
    50   22   23 1
    51   22   69 1
    52   22   70 1
    53   23   24 1
    54   23   71 1
    55   23   72 1
    56   24   25 1
    57   24   26 1
    58   26   27 2
    59   26   28 1
    60   28   29 1
    61   29   30 1
    62   29   31 1
    63   29   32 1
    64   30   73 1
    65   30   74 1
    66   30   75 1
    67   31   76 1
    68   31   77 1
    69   31   78 1
    70   32   79 1
    71   32   80 1
    72   32   81 1
    73   33   34 2
    74   33   35 am
    75   35   36 1
    76   35   82 1
    77   36   37 1
    78   36   83 1
    79   36   84 1
    80   37   38 1
    81   37   85 1
    82   37   86 1
    83   38   39 1
    84   38   87 1
    85   38   88 1
    86   39   40 1
    87   39   89 1
    88   39   90 1
    89   40   41 1
    90   40   91 1
    91   40   92 1
    92   41   42 2
    93   41   43 am
    94   43   44 1
    95   43   93 1
    96   44   94 1
@<TRIPOS>MOLECULE
CHEMBL95881__1
   94    95     0     0     0
SMALL
USER_CHARGES

@<TRIPOS>ATOM
      1 C1         -0.4708    1.3486   -0.7731 C.3       1 <0>        -0.1498
      2 C2         -0.0400   -0.0363   -0.2859 C.3       1 <0>        -0.0969
      3 C3         -1.2793   -0.8605    0.0688 C.3       1 <0>        -0.1508
      4 C4          0.7443   -0.7449   -1.3921 C.3       1 <0>        -0.1324
      5 C5          2.1763   -0.2074   -1.4266 C.3       1 <0>        -0.0779
      6 H1          2.1596    0.8776   -1.3239 H         1 <0>         0.0852
      7 C6          2.9774   -0.8164   -0.2742 C.3       1 <0>         0.0501
      8 N1          2.0952   -1.6606    0.5421 N.3       1 <0>        -0.6633
      9 C7          2.7710   -2.0994    1.7708 C.3       1 <0>         0.0717
     10 H2          2.3895   -1.5309    2.6189 H         1 <0>         0.0658
     11 C8          2.5002   -3.5903    1.9913 C.3       1 <0>        -0.0663
     12 C9          1.9989   -4.1970    0.7058 C.ar      1 <0>        -0.0366
     13 C10         2.8956   -4.7349   -0.1988 C.ar      1 <0>        -0.0861
     14 C11         2.4398   -5.2832   -1.3821 C.ar      1 <0>        -0.1317
     15 C12         1.0812   -5.2937   -1.6624 C.ar      1 <0>         0.0920
     16 C13         0.1827   -4.7617   -0.7489 C.ar      1 <0>        -0.1426
     17 C14         0.6436   -4.2143    0.4329 C.ar      1 <0>        -0.0880
     18 O1          0.6317   -5.8170   -2.8335 O.3       1 <0>        -0.3394
     19 C15         0.3330   -4.8922   -3.8816 C.3       1 <0>         0.0673
     20 C16         1.5044   -3.9231   -4.0559 C.3       1 <0>        -0.1607
     21 C17         1.0691   -2.7505   -4.9369 C.3       1 <0>        -0.1166
     22 C18         2.1426   -1.6609   -4.9043 C.3       1 <0>        -0.1175
     23 C19         1.7690   -0.6074   -3.8595 C.3       1 <0>        -0.1355
     24 C20         2.8304   -0.5837   -2.7576 C.3       1 <0>        -0.0705
     25 H3          3.2872   -1.5697   -2.6720 H         1 <0>         0.1112
     26 C21         3.8891    0.4320   -3.1019 C.2       1 <0>         0.4693
     27 O2          4.0989    1.3615   -2.3589 O.2       1 <0>        -0.5022
     28 O3          4.5990    0.3042   -4.2339 O.3       1 <0>        -0.3405
     29 C22         5.5862    1.3033   -4.4969 C.3       1 <0>         0.1159
     30 C23         6.6156    1.3137   -3.3651 C.3       1 <0>        -0.1840
     31 C24         6.2870    0.9918   -5.8208 C.3       1 <0>        -0.1406
     32 C25         4.9129    2.6743   -4.5865 C.3       1 <0>        -0.1843
     33 C26         4.2546   -1.8708    1.6382 C.2       1 <0>         0.5089
     34 O4          4.8455   -2.2756    0.6595 O.2       1 <0>        -0.5180
     35 N2          4.9249   -1.2165    2.6073 N.am      1 <0>        -0.7316
     36 C27         6.3672   -0.9942    2.4784 C.3       1 <0>         0.1193
     37 C28         6.8778   -0.2345    3.7044 C.3       1 <0>        -0.1319
     38 C29         8.3840   -0.0024    3.5698 C.3       1 <0>        -0.1161
     39 C30         8.8946    0.7573    4.7958 C.3       1 <0>        -0.1051
     40 C31        10.4009    0.9894    4.6612 C.3       1 <0>        -0.1273
     41 C32        10.9037    1.7376    5.8688 C.2       1 <0>         0.5214
     42 O5         10.1332    2.0541    6.7503 O.2       1 <0>        -0.5192
     43 N3         12.2097    2.0551    5.9692 N.am      1 <0>        -0.5999
     44 O6         12.6822    2.7582    7.1038 O.3       1 <0>        -0.3203
     45 H4          0.4120    1.9357   -1.0258 H         1 <0>         0.0544
     46 H5         -1.1019    1.2432   -1.6556 H         1 <0>         0.0557
     47 H6         -1.0296    1.8534    0.0150 H         1 <0>         0.0526
     48 H7          0.5911    0.0691    0.5965 H         1 <0>         0.0649
     49 H8         -1.9104   -0.9658   -0.8137 H         1 <0>         0.0564
     50 H9         -0.9724   -1.8471    0.4159 H         1 <0>         0.0609
     51 H10        -1.8380   -0.3556    0.8569 H         1 <0>         0.0526
     52 H11         0.7631   -1.8167   -1.1947 H         1 <0>         0.0970
     53 H12         0.2639   -0.5609   -2.3531 H         1 <0>         0.0828
     54 H13         3.7897   -1.4218   -0.6763 H         1 <0>         0.1060
     55 H14         3.3901   -0.0184    0.3431 H         1 <0>         0.0245
     56 H15         1.2326   -1.1825    0.7549 H         1 <0>         0.3538
     57 H16         3.4221   -4.0872    2.2935 H         1 <0>         0.0740
     58 H17         1.7472   -3.7126    2.7698 H         1 <0>         0.0796
     59 H18         3.9532   -4.7261    0.0197 H         1 <0>         0.1198
     60 H19         3.1407   -5.7030   -2.0885 H         1 <0>         0.1188
     61 H20        -0.8761   -4.7751   -0.9616 H         1 <0>         0.1185
     62 H21        -0.0554   -3.8002    1.1444 H         1 <0>         0.1157
     63 H22         0.1708   -5.4370   -4.8116 H         1 <0>         0.0949
     64 H23        -0.5668   -4.3324   -3.6268 H         1 <0>         0.0525
     65 H24         1.8147   -3.5490   -3.0802 H         1 <0>         0.0803
     66 H25         2.3384   -4.4424   -4.5280 H         1 <0>         0.0683
     67 H26         0.9340   -3.0967   -5.9617 H         1 <0>         0.0618
     68 H27         0.1287   -2.3452   -4.5636 H         1 <0>         0.0645
     69 H28         3.1035   -2.1052   -4.6446 H         1 <0>         0.0699
     70 H29         2.2131   -1.1907   -5.8851 H         1 <0>         0.0636
     71 H30         1.7161    0.3723   -4.3342 H         1 <0>         0.0625
     72 H31         0.8000   -0.8538   -3.4254 H         1 <0>         0.1079
     73 H32         7.0952    0.3369   -3.3012 H         1 <0>         0.0604
     74 H33         7.3686    2.0758   -3.5657 H         1 <0>         0.0688
     75 H34         6.1163    1.5356   -2.4219 H         1 <0>         0.0823
     76 H35         5.5536    0.9845   -6.6272 H         1 <0>         0.0662
     77 H36         7.0400    1.7540   -6.0215 H         1 <0>         0.0769
     78 H37         6.7666    0.0151   -5.7570 H         1 <0>         0.0664
     79 H38         4.4136    2.8962   -3.6433 H         1 <0>         0.0825
     80 H39         5.6659    3.4365   -4.7871 H         1 <0>         0.0693
     81 H40         4.1795    2.6670   -5.3929 H         1 <0>         0.0600
     82 H41         4.4524   -0.8927    3.3901 H         1 <0>         0.3999
     83 H42         6.8779   -1.9545    2.4073 H         1 <0>         0.0681
     84 H43         6.5659   -0.4097    1.5800 H         1 <0>         0.0667
     85 H44         6.3671    0.7258    3.7754 H         1 <0>         0.0707
     86 H45         6.6791   -0.8190    4.6027 H         1 <0>         0.0718
     87 H46         8.8947   -0.9628    3.4987 H         1 <0>         0.0687
     88 H47         8.5827    0.5821    2.6714 H         1 <0>         0.0680
     89 H48         8.3839    1.7176    4.8668 H         1 <0>         0.0738
     90 H49         8.6959    0.1727    5.6941 H         1 <0>         0.0742
     91 H50        10.9116    0.0290    4.5901 H         1 <0>         0.1002
     92 H51        10.5996    1.5739    3.7629 H         1 <0>         0.0999
     93 H52        12.8260    1.8020    5.2641 H         1 <0>         0.4083
     94 H53        13.6317    2.9406    7.0863 H         1 <0>         0.3881
@<TRIPOS>BOND
     1    1    2 1
     2    1   45 1
     3    1   46 1
     4    1   47 1
     5    2    3 1
     6    2    4 1
     7    2   48 1
     8    3   49 1
     9    3   50 1
    10    3   51 1
    11    4    5 1
    12    4   52 1
    13    4   53 1
    14    5    6 1
    15    5   24 1
    16    5    7 1
    17    7    8 1
    18    7   54 1
    19    7   55 1
    20    8    9 1
    21    8   56 1
    22    9   10 1
    23    9   11 1
    24    9   33 1
    25   11   12 1
    26   11   57 1
    27   11   58 1
    28   12   17 ar
    29   12   13 ar
    30   13   14 ar
    31   13   59 1
    32   14   15 ar
    33   14   60 1
    34   15   16 ar
    35   15   18 1
    36   16   17 ar
    37   16   61 1
    38   17   62 1
    39   18   19 1
    40   19   20 1
    41   19   63 1
    42   19   64 1
    43   20   21 1
    44   20   65 1
    45   20   66 1
    46   21   22 1
    47   21   67 1
    48   21   68 1
    49   22   23 1
    50   22   69 1
    51   22   70 1
    52   23   24 1
    53   23   71 1
    54   23   72 1
    55   24   25 1
    56   24   26 1
    57   26   27 2
    58   26   28 1
    59   28   29 1
    60   29   30 1
    61   29   31 1
    62   29   32 1
    63   30   73 1
    64   30   74 1
    65   30   75 1
    66   31   76 1
    67   31   77 1
    68   31   78 1
    69   32   79 1
    70   32   80 1
    71   32   81 1
    72   33   34 2
    73   33   35 am
    74   35   36 1
    75   35   82 1
    76   36   37 1
    77   36   83 1
    78   36   84 1
    79   37   38 1
    80   37   85 1
    81   37   86 1
    82   38   39 1
    83   38   87 1
    84   38   88 1
    85   39   40 1
    86   39   89 1
    87   39   90 1
    88   40   41 1
    89   40   91 1
    90   40   92 1
    91   41   42 2
    92   41   43 am
    93   43   44 1
    94   43   93 1
    95   44   94 1
@<TRIPOS>MOLECULE
CHEMBL346525
   37    38     0     0     0
SMALL
USER_CHARGES

@<TRIPOS>ATOM
      1 C1         -0.0167    1.3789    0.0096 C.ar      1 <0>        -0.1773
      2 C2          1.1808    2.0726    0.0019 C.ar      1 <0>        -0.0152
      3 C3          2.3727    1.3386   -0.0134 C.ar      1 <0>        -0.1911
      4 C4          2.3057   -0.0554   -0.0203 C.ar      1 <0>         0.1355
      5 N1          1.1413   -0.6698   -0.0129 N.ar      1 <0>        -0.4865
      6 C5          0.0021   -0.0041    0.0020 C.ar      1 <0>         0.1242
      7 C6          3.6803    2.0284   -0.0227 C.2       1 <0>         0.5655
      8 O1          3.7267    3.2430   -0.0170 O.2       1 <0>        -0.5298
      9 N2          4.8208    1.3105   -0.0374 N.am      1 <0>        -0.7220
     10 C7          6.1165    1.9940   -0.0466 C.3       1 <0>         0.1594
     11 C8          7.2237    0.9718   -0.0625 C.ar      1 <0>        -0.0991
     12 C9          7.7372    0.4945    1.1308 C.ar      1 <0>        -0.1005
     13 C10         8.7506   -0.4406    1.1245 C.ar      1 <0>        -0.0914
     14 C11         9.2590   -0.9070   -0.0919 C.ar      1 <0>        -0.0689
     15 C12         8.7345   -0.4203   -1.2933 C.ar      1 <0>        -0.1005
     16 C13         7.7177    0.5108   -1.2704 C.ar      1 <0>        -0.1009
     17 C14        10.3412   -1.9048   -0.1074 C.2       1 <0>        -0.0074
     18 C15        10.8287   -2.3521   -1.2820 C.2       1 <0>        -0.2058
     19 C16        11.9052   -3.3447   -1.2975 C.2       1 <0>         0.5599
     20 O2         12.3596   -3.7658   -0.2500 O.2       1 <0>        -0.5236
     21 N3         12.3926   -3.7918   -2.4717 N.am      1 <0>        -0.5930
     22 O3         13.4335   -4.7517   -2.4867 O.3       1 <0>        -0.3154
     23 H1         -0.9559    1.9118    0.0259 H         1 <0>         0.1459
     24 H2          1.1954    3.1525    0.0072 H         1 <0>         0.1490
     25 H3          3.2169   -0.6351   -0.0321 H         1 <0>         0.1570
     26 H4         -0.9310   -0.5480    0.0080 H         1 <0>         0.1640
     27 H5          4.7838    0.3412   -0.0419 H         1 <0>         0.4022
     28 H6          6.1895    2.6225   -0.9342 H         1 <0>         0.0822
     29 H7          6.2068    2.6135    0.8457 H         1 <0>         0.0824
     30 H8          7.3435    0.8557    2.0693 H         1 <0>         0.1308
     31 H9          9.1509   -0.8115    2.0565 H         1 <0>         0.1337
     32 H10         9.1223   -0.7755   -2.2366 H         1 <0>         0.1312
     33 H11         7.3086    0.8844   -2.1975 H         1 <0>         0.1300
     34 H12        10.7445   -2.2786    0.8221 H         1 <0>         0.1411
     35 H13        10.4254   -1.9783   -2.2115 H         1 <0>         0.1353
     36 H14        12.0304   -3.4562   -3.3066 H         1 <0>         0.4098
     37 H15        13.7167   -5.0110   -3.3742 H         1 <0>         0.3894
@<TRIPOS>BOND
     1    1    6 ar
     2    1    2 ar
     3    1   23 1
     4    2    3 ar
     5    2   24 1
     6    3    4 ar
     7    3    7 1
     8    4    5 ar
     9    4   25 1
    10    5    6 ar
    11    6   26 1
    12    7    8 2
    13    7    9 am
    14    9   10 1
    15    9   27 1
    16   10   11 1
    17   10   28 1
    18   10   29 1
    19   11   16 ar
    20   11   12 ar
    21   12   13 ar
    22   12   30 1
    23   13   14 ar
    24   13   31 1
    25   14   15 ar
    26   14   17 1
    27   15   16 ar
    28   15   32 1
    29   16   33 1
    30   17   18 2
    31   17   34 1
    32   18   19 1
    33   18   35 1
    34   19   20 2
    35   19   21 am
    36   21   22 1
    37   21   36 1
    38   22   37 1
@<TRIPOS>MOLECULE
CHEMBL198990
   36    37     0     0     0
SMALL
USER_CHARGES

@<TRIPOS>ATOM
      1 C1         -0.0167    1.3781    0.0096 C.ar      1 <0>        -0.1184
      2 C2          1.1709    2.0855    0.0021 C.ar      1 <0>        -0.1206
      3 C3          2.3773    1.4107   -0.0130 C.ar      1 <0>        -0.1015
      4 C4          2.3960    0.0285   -0.0201 C.ar      1 <0>        -0.0849
      5 C5          1.2084   -0.6789   -0.0117 C.ar      1 <0>        -0.1114
      6 C6          0.0021   -0.0041    0.0020 C.ar      1 <0>        -0.1206
      7 C7          3.7112   -0.7071   -0.0376 C.3       1 <0>        -0.0345
      8 C8          4.1644   -0.9594    1.3773 C.2       1 <0>         0.2037
      9 C9          3.8785   -2.1493    1.9823 C.2       1 <0>        -0.2891
     10 C10         4.3116   -2.3620    3.3028 C.2       1 <0>         0.5312
     11 N1          4.9965   -1.3802    3.9275 N.am      1 <0>        -0.6152
     12 C11         5.2527   -0.2134    3.2736 C.2       1 <0>         0.3743
     13 N2          4.8473   -0.0242    2.0326 N.2       1 <0>        -0.5327
     14 S1          6.1466    1.0626    4.0968 S.3       1 <0>        -0.0042
     15 C12         6.2454    2.3926    2.8672 C.3       1 <0>        -0.0841
     16 C13         7.0078    3.5794    3.4598 C.3       1 <0>        -0.1174
     17 C14         7.0899    4.6843    2.4384 C.2       1 <0>         0.5314
     18 O1          6.5881    4.5371    1.3441 O.2       1 <0>        -0.5107
     19 N3          7.7210    5.8361    2.7409 N.am      1 <0>        -0.5962
     20 O2          7.7982    6.8744    1.7811 O.3       1 <0>        -0.3151
     21 O3          4.0729   -3.4135    3.8736 O.2       1 <0>        -0.5329
     22 H1         -0.9591    1.9053    0.0259 H         1 <0>         0.1216
     23 H2          1.1563    3.1654    0.0076 H         1 <0>         0.1228
     24 H3          3.3051    1.9634   -0.0196 H         1 <0>         0.1263
     25 H4          1.2231   -1.7588   -0.0176 H         1 <0>         0.1228
     26 H5         -0.9258   -0.5567    0.0082 H         1 <0>         0.1228
     27 H6          3.5884   -1.6586   -0.5549 H         1 <0>         0.0984
     28 H7          4.4573   -0.1052   -0.5563 H         1 <0>         0.0998
     29 H8          3.3282   -2.9146    1.4553 H         1 <0>         0.1578
     30 H9          6.7679    2.0307    1.9817 H         1 <0>         0.1145
     31 H10         5.2391    2.7082    2.5917 H         1 <0>         0.1141
     32 H11         6.4853    3.9413    4.3453 H         1 <0>         0.1132
     33 H12         8.0141    3.2638    3.7354 H         1 <0>         0.1134
     34 H13         8.1224    5.9539    3.6160 H         1 <0>         0.4101
     35 H14         8.2695    7.6605    2.0891 H         1 <0>         0.3904
     36 H15         5.3045   -1.5054    4.8387 H         1 <0>         0.4208
@<TRIPOS>BOND
     1    1    6 ar
     2    1    2 ar
     3    1   22 1
     4    2    3 ar
     5    2   23 1
     6    3    4 ar
     7    3   24 1
     8    4    5 ar
     9    4    7 1
    10    5    6 ar
    11    5   25 1
    12    6   26 1
    13    7   27 1
    14    7   28 1
    15    7    8 1
    16    8    9 2
    17    8   13 1
    18    9   10 1
    19    9   29 1
    20   10   11 am
    21   10   21 2
    22   11   12 1
    23   11   36 1
    24   12   14 1
    25   12   13 2
    26   14   15 1
    27   15   16 1
    28   15   30 1
    29   15   31 1
    30   16   17 1
    31   16   32 1
    32   16   33 1
    33   17   18 2
    34   17   19 am
    35   19   20 1
    36   19   34 1
    37   20   35 1
@<TRIPOS>MOLECULE
CHEMBL198990__1
   35    36     0     0     0
SMALL
USER_CHARGES

@<TRIPOS>ATOM
      1 C1         -0.0167    1.3781    0.0096 C.ar      1 <0>        -0.1314
      2 C2          1.1709    2.0855    0.0021 C.ar      1 <0>        -0.1243
      3 C3          2.3773    1.4107   -0.0130 C.ar      1 <0>        -0.0917
      4 C4          2.3960    0.0285   -0.0201 C.ar      1 <0>        -0.0584
      5 C5          1.2084   -0.6789   -0.0117 C.ar      1 <0>        -0.1168
      6 C6          0.0021   -0.0041    0.0020 C.ar      1 <0>        -0.1250
      7 C7          3.7112   -0.7071   -0.0376 C.3       1 <0>        -0.0242
      8 C8          4.1644   -0.9594    1.3773 C.ar      1 <0>         0.1820
      9 C9          4.4581   -2.2427    1.7985 C.ar      1 <0>        -0.3299
     10 C10         4.8741   -2.4322    3.1160 C.ar      1 <0>         0.4447
     11 N1          4.9741   -1.3798    3.9184 N.ar      1 <0>        -0.6095
     12 C11         4.6834   -0.1641    3.4774 C.ar      1 <0>         0.3360
     13 N2          4.2910    0.0467    2.2292 N.ar      1 <0>        -0.5765
     14 S1          4.8289    1.2061    4.5756 S.3       1 <0>        -0.0558
     15 C12         5.3883    0.4629    6.1329 C.3       1 <0>        -0.0850
     16 C13         5.5574    1.5573    7.1886 C.3       1 <0>        -0.1079
     17 C14         6.0222    0.9399    8.4823 C.2       1 <0>         0.5266
     18 O1          6.2007   -0.2576    8.5531 O.2       1 <0>        -0.5044
     19 N3          6.2396    1.7185    9.5608 N.am      1 <0>        -0.6012
     20 O2          6.6763    1.1383   10.7764 O.3       1 <0>        -0.3202
     21 O3          5.1717   -3.6735    3.5707 O.3       1 <0>        -0.6993
     22 H1         -0.9591    1.9053    0.0259 H         1 <0>         0.1143
     23 H2          1.1563    3.1654    0.0076 H         1 <0>         0.1167
     24 H3          3.3051    1.9634   -0.0196 H         1 <0>         0.1225
     25 H4          1.2231   -1.7588   -0.0176 H         1 <0>         0.1183
     26 H5         -0.9258   -0.5567    0.0082 H         1 <0>         0.1157
     27 H6          3.5884   -1.6586   -0.5549 H         1 <0>         0.0822
     28 H7          4.4573   -0.1052   -0.5563 H         1 <0>         0.0845
     29 H8          4.3670   -3.0800    1.1225 H         1 <0>         0.1135
     30 H9          4.6496   -0.2616    6.4758 H         1 <0>         0.0996
     31 H10         6.3428   -0.0389    5.9738 H         1 <0>         0.0998
     32 H11         6.2961    2.2818    6.8458 H         1 <0>         0.1072
     33 H12         4.6030    2.0592    7.3478 H         1 <0>         0.1072
     34 H13         6.0968    2.6762    9.5042 H         1 <0>         0.4071
     35 H14         6.8048    1.7754   11.4924 H         1 <0>         0.3835
@<TRIPOS>BOND
     1    1    6 ar
     2    1    2 ar
     3    1   22 1
     4    2    3 ar
     5    2   23 1
     6    3    4 ar
     7    3   24 1
     8    4    5 ar
     9    4    7 1
    10    5    6 ar
    11    5   25 1
    12    6   26 1
    13    7   27 1
    14    7   28 1
    15    7    8 1
    16    8    9 ar
    17    8   13 ar
    18    9   10 ar
    19    9   29 1
    20   10   11 ar
    21   10   21 1
    22   11   12 ar
    23   12   14 1
    24   12   13 ar
    25   14   15 1
    26   15   16 1
    27   15   30 1
    28   15   31 1
    29   16   17 1
    30   16   32 1
    31   16   33 1
    32   17   18 2
    33   17   19 am
    34   19   20 1
    35   19   34 1
    36   20   35 1
@<TRIPOS>MOLECULE
CHEMBL198990__2
   36    37     0     0     0
SMALL
USER_CHARGES

@<TRIPOS>ATOM
      1 C1         -0.0167    1.3781    0.0096 C.ar      1 <0>        -0.1143
      2 C2          1.1709    2.0855    0.0021 C.ar      1 <0>        -0.1166
      3 C3          2.3773    1.4107   -0.0130 C.ar      1 <0>        -0.1153
      4 C4          2.3960    0.0285   -0.0201 C.ar      1 <0>        -0.0953
      5 C5          1.2084   -0.6789   -0.0117 C.ar      1 <0>        -0.1048
      6 C6          0.0021   -0.0041    0.0020 C.ar      1 <0>        -0.1151
      7 C7          3.7112   -0.7071   -0.0376 C.3       1 <0>        -0.0452
      8 C8          4.1644   -0.9594    1.3773 C.2       1 <0>         0.1760
      9 C9          3.8862   -2.1331    1.9838 C.2       1 <0>        -0.2740
     10 C10         4.3277   -2.3390    3.3161 C.2       1 <0>         0.5129
     11 N1          5.0084   -1.3708    3.9441 N.2       1 <0>        -0.5798
     12 C11         5.2712   -0.2307    3.3365 C.2       1 <0>         0.3987
     13 N2          4.8657   -0.0057    2.0575 N.pl3     1 <0>        -0.5948
     14 S1          6.1683    1.0205    4.1934 S.3       1 <0>        -0.0122
     15 C12         6.4946    0.2898    5.8213 C.3       1 <0>        -0.0818
     16 C13         7.2785    1.2850    6.6792 C.3       1 <0>        -0.1151
     17 C14         7.5495    0.6779    8.0316 C.2       1 <0>         0.5293
     18 O1          7.1546   -0.4406    8.2844 O.2       1 <0>        -0.5070
     19 N3          8.2308    1.3779    8.9602 N.am      1 <0>        -0.5968
     20 O2          8.4855    0.8075   10.2310 O.3       1 <0>        -0.3149
     21 O3          4.0885   -3.3921    3.8873 O.2       1 <0>        -0.5052
     22 H1         -0.9591    1.9053    0.0259 H         1 <0>         0.1248
     23 H2          1.1563    3.1654    0.0076 H         1 <0>         0.1254
     24 H3          3.3051    1.9634   -0.0196 H         1 <0>         0.1207
     25 H4          1.2231   -1.7588   -0.0176 H         1 <0>         0.1263
     26 H5         -0.9258   -0.5567    0.0082 H         1 <0>         0.1263
     27 H6          3.5884   -1.6586   -0.5549 H         1 <0>         0.1137
     28 H7          4.4573   -0.1052   -0.5563 H         1 <0>         0.0982
     29 H8          3.3361   -2.9029    1.4630 H         1 <0>         0.1567
     30 H9          5.5491    0.0546    6.3101 H         1 <0>         0.1151
     31 H10         7.0775   -0.6231    5.6995 H         1 <0>         0.1154
     32 H11         8.2240    1.5201    6.1904 H         1 <0>         0.1131
     33 H12         6.6955    2.1979    6.8009 H         1 <0>         0.1130
     34 H13         8.5467    2.2724    8.7580 H         1 <0>         0.4095
     35 H14         8.9802    1.3843   10.8290 H         1 <0>         0.3896
     36 H15         5.0728    0.8388    1.6276 H         1 <0>         0.4232
@<TRIPOS>BOND
     1    1    6 ar
     2    1    2 ar
     3    1   22 1
     4    2    3 ar
     5    2   23 1
     6    3    4 ar
     7    3   24 1
     8    4    5 ar
     9    4    7 1
    10    5    6 ar
    11    5   25 1
    12    6   26 1
    13    7   27 1
    14    7   28 1
    15    7    8 1
    16    8    9 2
    17    8   13 1
    18    9   10 1
    19    9   29 1
    20   10   11 1
    21   10   21 2
    22   11   12 2
    23   12   14 1
    24   12   13 1
    25   13   36 1
    26   14   15 1
    27   15   16 1
    28   15   30 1
    29   15   31 1
    30   16   17 1
    31   16   32 1
    32   16   33 1
    33   17   18 2
    34   17   19 am
    35   19   20 1
    36   19   34 1
    37   20   35 1
@<TRIPOS>MOLECULE
CHEMBL347734
   43    44     0     0     0
SMALL
USER_CHARGES

@<TRIPOS>ATOM
      1 C1         -0.0167    1.3781    0.0096 C.ar      1 <0>        -0.1250
      2 C2          1.1709    2.0855    0.0021 C.ar      1 <0>        -0.1184
      3 C3          2.3773    1.4107   -0.0130 C.ar      1 <0>        -0.1176
      4 C4          2.3960    0.0285   -0.0201 C.ar      1 <0>        -0.0823
      5 C5          1.2084   -0.6789   -0.0117 C.ar      1 <0>        -0.1174
      6 C6          0.0021   -0.0041    0.0020 C.ar      1 <0>        -0.1182
      7 C7          3.7112   -0.7071   -0.0376 C.3       1 <0>        -0.0816
      8 C8          4.1714   -0.9633    1.3989 C.3       1 <0>        -0.0985
      9 C9          5.5066   -1.7102    1.3812 C.3       1 <0>        -0.1408
     10 C10         5.9598   -1.9625    2.7961 C.2       1 <0>         0.5124
     11 O1          5.2817   -1.5823    3.7270 O.2       1 <0>        -0.5349
     12 N1          7.1188   -2.6105    3.0270 N.am      1 <0>        -0.7309
     13 C11         7.5594   -2.8558    4.4025 C.3       1 <0>         0.1560
     14 C12         8.8745   -3.5915    4.3850 C.ar      1 <0>        -0.0807
     15 C13         8.8897   -4.9749    4.3722 C.ar      1 <0>        -0.1037
     16 C14        10.0902   -5.6545    4.3562 C.ar      1 <0>        -0.0548
     17 C15        11.2912   -4.9433    4.3529 C.ar      1 <0>        -0.1171
     18 C16        11.2688   -3.5478    4.3659 C.ar      1 <0>        -0.0888
     19 C17        10.0614   -2.8804    4.3761 C.ar      1 <0>        -0.1051
     20 C18        12.5814   -5.6650    4.3363 C.2       1 <0>         0.5703
     21 O2         12.5978   -6.8804    4.3255 O.2       1 <0>        -0.5121
     22 N2         13.7393   -4.9753    4.3332 N.am      1 <0>        -0.5930
     23 O3         14.9750   -5.6666    4.3172 O.3       1 <0>        -0.3118
     24 H1         -0.9591    1.9053    0.0259 H         1 <0>         0.1209
     25 H2          1.1563    3.1654    0.0076 H         1 <0>         0.1214
     26 H3          3.3051    1.9634   -0.0196 H         1 <0>         0.1207
     27 H4          1.2231   -1.7588   -0.0176 H         1 <0>         0.1209
     28 H5         -0.9258   -0.5567    0.0082 H         1 <0>         0.1215
     29 H6          3.5884   -1.6586   -0.5549 H         1 <0>         0.0735
     30 H7          4.4573   -0.1052   -0.5563 H         1 <0>         0.0733
     31 H8          4.2941   -0.0118    1.9163 H         1 <0>         0.0722
     32 H9          3.4252   -1.5652    1.9176 H         1 <0>         0.0723
     33 H10         5.3838   -2.6617    0.8639 H         1 <0>         0.0957
     34 H11         6.2527   -1.1082    0.8625 H         1 <0>         0.0953
     35 H12         7.6611   -2.9146    2.2825 H         1 <0>         0.4029
     36 H13         7.6822   -1.9043    4.9198 H         1 <0>         0.0806
     37 H14         6.8133   -3.4577    4.9212 H         1 <0>         0.0811
     38 H15         7.9597   -5.5240    4.3752 H         1 <0>         0.1367
     39 H16        10.1007   -6.7344    4.3466 H         1 <0>         0.1431
     40 H17        12.1946   -2.9916    4.3634 H         1 <0>         0.1285
     41 H18        10.0426   -1.8006    4.3817 H         1 <0>         0.1347
     42 H19        13.7262   -4.0055    4.3418 H         1 <0>         0.4080
     43 H20        15.7496   -5.0876    4.3161 H         1 <0>         0.3905
@<TRIPOS>BOND
     1    1    6 ar
     2    1    2 ar
     3    1   24 1
     4    2    3 ar
     5    2   25 1
     6    3    4 ar
     7    3   26 1
     8    4    5 ar
     9    4    7 1
    10    5    6 ar
    11    5   27 1
    12    6   28 1
    13    7    8 1
    14    7   29 1
    15    7   30 1
    16    8    9 1
    17    8   31 1
    18    8   32 1
    19    9   10 1
    20    9   33 1
    21    9   34 1
    22   10   11 2
    23   10   12 am
    24   12   13 1
    25   12   35 1
    26   13   14 1
    27   13   36 1
    28   13   37 1
    29   14   19 ar
    30   14   15 ar
    31   15   16 ar
    32   15   38 1
    33   16   17 ar
    34   16   39 1
    35   17   18 ar
    36   17   20 1
    37   18   19 ar
    38   18   40 1
    39   19   41 1
    40   20   21 2
    41   20   22 am
    42   22   23 1
    43   22   42 1
    44   23   43 1
@<TRIPOS>MOLECULE
CHEMBL126777
   53    55     0     0     0
SMALL
USER_CHARGES

@<TRIPOS>ATOM
      1 C1          2.9017    1.3063   -3.6671 C.ar      1 <0>        -0.1534
      2 C2          3.1561    2.0390   -2.5224 C.ar      1 <0>        -0.0826
      3 C3          3.3872    1.3921   -1.3240 C.ar      1 <0>        -0.1464
      4 C4          3.3635    0.0058   -1.2694 C.ar      1 <0>         0.1209
      5 C5          3.1075   -0.7271   -2.4196 C.ar      1 <0>        -0.1964
      6 C6          2.8776   -0.0752   -3.6155 C.ar      1 <0>        -0.0824
      7 O1          3.5909   -0.6330   -0.0919 O.3       1 <0>        -0.2572
      8 C7          3.4596   -1.9858   -0.0639 C.ar      1 <0>         0.0688
      9 C8          4.4466   -2.7899   -0.6158 C.ar      1 <0>        -0.1138
     10 C9          4.3137   -4.1640   -0.5877 C.ar      1 <0>        -0.1065
     11 C10         3.1924   -4.7411   -0.0066 C.ar      1 <0>         0.1460
     12 C11         2.2053   -3.9359    0.5460 C.ar      1 <0>        -0.1301
     13 C12         2.3415   -2.5621    0.5216 C.ar      1 <0>        -0.1007
     14 N1          3.0569   -6.1352    0.0218 N.am      1 <0>        -0.6771
     15 C13         4.1450   -6.9150    0.1778 C.2       1 <0>         0.5123
     16 O2          5.2495   -6.4149    0.2138 O.2       1 <0>        -0.5161
     17 C14         3.9896   -8.4084    0.3073 C.3       1 <0>        -0.1395
     18 C15         5.3677   -9.0522    0.4723 C.3       1 <0>        -0.1061
     19 C16         5.2098  -10.5683    0.6038 C.3       1 <0>        -0.1204
     20 C17         6.5879  -11.2122    0.7688 C.3       1 <0>        -0.1196
     21 C18         6.4301  -12.7283    0.9003 C.3       1 <0>        -0.1144
     22 C19         7.8082  -13.3721    1.0653 C.3       1 <0>        -0.1402
     23 C20         7.6527  -14.8655    1.1948 C.2       1 <0>         0.4510
     24 O3          6.5480  -15.3658    1.1587 O.2       1 <0>        -0.4239
     25 C21         8.8363  -15.7137    1.3644 C.2       1 <0>         0.0970
     26 N2         10.0811  -15.2922    1.4243 N.2       1 <0>        -0.4193
     27 C22        10.8816  -16.3451    1.5831 C.2       1 <0>        -0.0440
     28 C23        10.1053  -17.4552    1.6227 C.2       1 <0>        -0.0392
     29 O4          8.8312  -17.0542    1.4909 O.3       1 <0>        -0.1709
     30 H1          2.7172    1.8141   -4.6022 H         1 <0>         0.1252
     31 H2          3.1744    3.1180   -2.5654 H         1 <0>         0.1314
     32 H3          3.5865    1.9649   -0.4303 H         1 <0>         0.1324
     33 H4          3.0888   -1.8062   -2.3799 H         1 <0>         0.1289
     34 H5          2.6787   -0.6452   -4.5111 H         1 <0>         0.1255
     35 H6          5.3186   -2.3410   -1.0678 H         1 <0>         0.1345
     36 H7          5.0817   -4.7898   -1.0179 H         1 <0>         0.1467
     37 H8          1.3329   -4.3843    0.9980 H         1 <0>         0.1355
     38 H9          1.5757   -1.9359    0.9550 H         1 <0>         0.1371
     39 H10         2.1799   -6.5392   -0.0707 H         1 <0>         0.4133
     40 H11         3.3757   -8.6355    1.1789 H         1 <0>         0.0986
     41 H12         3.5092   -8.8027   -0.5881 H         1 <0>         0.0983
     42 H13         5.9815   -8.8251   -0.3993 H         1 <0>         0.0718
     43 H14         5.8481   -8.6579    1.3677 H         1 <0>         0.0719
     44 H15         4.5960  -10.7955    1.4754 H         1 <0>         0.0648
     45 H16         4.7294  -10.9627   -0.2916 H         1 <0>         0.0648
     46 H17         7.2018  -10.9850   -0.1029 H         1 <0>         0.0670
     47 H18         7.0683  -10.8178    1.6642 H         1 <0>         0.0670
     48 H19         5.8162  -12.9554    1.7719 H         1 <0>         0.0717
     49 H20         5.9497  -13.1226    0.0048 H         1 <0>         0.0717
     50 H21         8.4220  -13.1450    0.1936 H         1 <0>         0.1116
     51 H22         8.2886  -12.9778    1.9607 H         1 <0>         0.1117
     52 H23        11.9581  -16.3188    1.6651 H         1 <0>         0.1961
     53 H24        10.4478  -18.4725    1.7415 H         1 <0>         0.2265
@<TRIPOS>BOND
     1    1    6 ar
     2    1    2 ar
     3    1   30 1
     4    2    3 ar
     5    2   31 1
     6    3    4 ar
     7    3   32 1
     8    4    5 ar
     9    4    7 1
    10    5    6 ar
    11    5   33 1
    12    6   34 1
    13    7    8 1
    14    8   13 ar
    15    8    9 ar
    16    9   10 ar
    17    9   35 1
    18   10   11 ar
    19   10   36 1
    20   11   12 ar
    21   11   14 1
    22   12   13 ar
    23   12   37 1
    24   13   38 1
    25   14   15 am
    26   14   39 1
    27   15   16 2
    28   15   17 1
    29   17   18 1
    30   17   40 1
    31   17   41 1
    32   18   19 1
    33   18   42 1
    34   18   43 1
    35   19   20 1
    36   19   44 1
    37   19   45 1
    38   20   21 1
    39   20   46 1
    40   20   47 1
    41   21   22 1
    42   21   48 1
    43   21   49 1
    44   22   23 1
    45   22   50 1
    46   22   51 1
    47   23   24 2
    48   23   25 1
    49   25   29 1
    50   25   26 2
    51   26   27 1
    52   27   28 2
    53   27   52 1
    54   28   29 1
    55   28   53 1
@<TRIPOS>MOLECULE
CHEMBL12760
   37    38     0     0     0
SMALL
USER_CHARGES

@<TRIPOS>ATOM
      1 C1         -0.0083    1.4603    0.0087 C.3       1 <0>         0.0580
      2 N1          0.0021   -0.0047    0.0019 N.pl3     1 <0>        -0.4211
      3 C2         -0.0932   -0.7772   -1.0921 C.2       1 <0>         0.0964
      4 C3         -0.0456   -2.1050   -0.6957 C.2       1 <0>        -0.2630
      5 C4          0.0853   -2.1117    0.7137 C.2       1 <0>        -0.0991
      6 C5          0.1174   -0.8067    1.1173 C.2       1 <0>        -0.0049
      7 C6          0.2485   -0.3408    2.4961 C.2       1 <0>         0.0329
      8 C7          0.4578   -1.2317    3.4953 C.2       1 <0>        -0.2196
      9 C8          0.4752   -0.7940    4.8422 C.2       1 <0>         0.5673
     10 O1          0.3021    0.3829    5.1022 O.2       1 <0>        -0.5316
     11 N2          0.6834   -1.6802    5.8361 N.am      1 <0>        -0.5942
     12 O2          0.7008   -1.2426    7.1826 O.3       1 <0>        -0.3162
     13 C9         -0.1178   -3.2794   -1.5704 C.2       1 <0>         0.4272
     14 O3         -0.2308   -3.1364   -2.7699 O.2       1 <0>        -0.4581
     15 C10        -0.0517   -4.6642   -0.9796 C.3       1 <0>        -0.1222
     16 C11        -0.1464   -5.6861   -2.0831 C.ar      1 <0>        -0.0748
     17 C12        -1.3821   -6.1602   -2.4819 C.ar      1 <0>        -0.1086
     18 C13        -1.4690   -7.0976   -3.4941 C.ar      1 <0>        -0.1187
     19 C14        -0.3202   -7.5607   -4.1078 C.ar      1 <0>        -0.1209
     20 C15         0.9156   -7.0859   -3.7096 C.ar      1 <0>        -0.1188
     21 C16         1.0021   -6.1453   -2.7003 C.ar      1 <0>        -0.1087
     22 H1          1.0167    1.8310    0.0029 H         1 <0>         0.0857
     23 H2         -0.5313    1.8240   -0.8758 H         1 <0>         0.0954
     24 H3         -0.5182    1.8158    0.9041 H         1 <0>         0.0927
     25 H4         -0.1910   -0.4244   -2.1082 H         1 <0>         0.1820
     26 H5          0.1513   -2.9826    1.3489 H         1 <0>         0.1542
     27 H6          0.1786    0.7137    2.7187 H         1 <0>         0.1377
     28 H7          0.6114   -2.2755    3.2647 H         1 <0>         0.1357
     29 H8          0.8213   -2.6177    5.6289 H         1 <0>         0.4099
     30 H9          0.8569   -1.9494    7.8239 H         1 <0>         0.3888
     31 H10         0.8926   -4.7883   -0.4495 H         1 <0>         0.1067
     32 H11        -0.8796   -4.8024   -0.2843 H         1 <0>         0.1068
     33 H12        -2.2797   -5.7984   -2.0025 H         1 <0>         0.1194
     34 H13        -2.4344   -7.4685   -3.8052 H         1 <0>         0.1217
     35 H14        -0.3880   -8.2936   -4.8981 H         1 <0>         0.1211
     36 H15         1.8131   -7.4480   -4.1888 H         1 <0>         0.1217
     37 H16         1.9673   -5.7717   -2.3917 H         1 <0>         0.1194
@<TRIPOS>BOND
     1    1    2 1
     2    1   22 1
     3    1   23 1
     4    1   24 1
     5    2    6 1
     6    2    3 1
     7    3    4 2
     8    3   25 1
     9    4    5 1
    10    4   13 1
    11    5    6 2
    12    5   26 1
    13    6    7 1
    14    7    8 2
    15    7   27 1
    16    8    9 1
    17    8   28 1
    18    9   10 2
    19    9   11 am
    20   11   12 1
    21   11   29 1
    22   12   30 1
    23   13   14 2
    24   13   15 1
    25   15   16 1
    26   15   31 1
    27   15   32 1
    28   16   21 ar
    29   16   17 ar
    30   17   18 ar
    31   17   33 1
    32   18   19 ar
    33   18   34 1
    34   19   20 ar
    35   19   35 1
    36   20   21 ar
    37   20   36 1
    38   21   37 1
@<TRIPOS>MOLECULE
CHEMBL598797
   58    60     0     0     0
SMALL
USER_CHARGES

@<TRIPOS>ATOM
      1 C1         -0.1020    1.4354   -0.8175 C.3       1 <0>         0.0203
      2 O1         -0.0873    0.0071   -0.8604 O.3       1 <0>        -0.2971
      3 C2         -1.2670   -0.6288   -0.6382 C.ar      1 <0>         0.1631
      4 C3         -2.4033    0.1098   -0.3922 C.ar      1 <0>        -0.1839
      5 C4         -3.6177   -0.5483   -0.1635 C.ar      1 <0>         0.2009
      6 C5         -3.6582   -1.9645   -0.1890 C.ar      1 <0>        -0.1825
      7 C6         -2.4890   -2.6918   -0.4413 C.ar      1 <0>        -0.1484
      8 C7         -1.3159   -2.0294   -0.6675 C.ar      1 <0>         0.1139
      9 O2         -0.1818   -2.7367   -0.9180 O.3       1 <0>        -0.2985
     10 C8         -0.2959   -4.1611   -0.9346 C.3       1 <0>         0.0535
     11 C9          1.0722   -4.7789   -1.2302 C.3       1 <0>        -0.1180
     12 C10         0.9501   -6.3039   -1.2480 C.3       1 <0>        -0.1175
     13 C11         2.3182   -6.9217   -1.5436 C.3       1 <0>        -0.1185
     14 C12         2.1960   -8.4467   -1.5614 C.3       1 <0>        -0.1066
     15 C13         3.5642   -9.0645   -1.8570 C.3       1 <0>        -0.1271
     16 C14         3.4438  -10.5666   -1.8745 C.2       1 <0>         0.5211
     17 O3          2.3696  -11.0913   -1.6707 O.2       1 <0>        -0.5193
     18 N1          4.5300  -11.3269   -2.1168 N.am      1 <0>        -0.6000
     19 O4          4.4170  -12.7383   -2.1333 O.3       1 <0>        -0.3205
     20 C15        -4.9002   -2.6012    0.0453 C.ar      1 <0>         0.4647
     21 N2         -5.9619   -1.8401    0.2764 N.ar      1 <0>        -0.5803
     22 C16        -5.8762   -0.5194    0.2905 C.ar      1 <0>         0.3431
     23 N3         -4.7531    0.1249    0.0803 N.ar      1 <0>        -0.5432
     24 N4         -5.0043   -3.9778    0.0331 N.pl3     1 <0>        -0.6411
     25 C17        -6.2584   -4.5850    0.1466 C.ar      1 <0>         0.1525
     26 C18        -6.3923   -5.7779    0.8480 C.ar      1 <0>        -0.1358
     27 C19        -7.6298   -6.3821    0.9625 C.ar      1 <0>        -0.0973
     28 C20        -8.7411   -5.8052    0.3813 C.ar      1 <0>        -0.1093
     29 C21        -8.6173   -4.6077   -0.3245 C.ar      1 <0>         0.0287
     30 C22        -7.3697   -3.9948   -0.4354 C.ar      1 <0>        -0.0845
     31 C23        -9.7686   -4.0074   -0.9284 C.1       1 <0>        -0.1517
     32 C24       -10.7126   -3.5153   -1.4234 C.1       1 <0>        -0.1691
     33 H1          0.9012    1.8151   -1.0110 H         1 <0>         0.1069
     34 H2         -0.7867    1.8147   -1.5762 H         1 <0>         0.0619
     35 H3         -0.4319    1.7659    0.1674 H         1 <0>         0.0619
     36 H4         -2.3577    1.1887   -0.3754 H         1 <0>         0.1556
     37 H5         -2.5152   -3.7713   -0.4617 H         1 <0>         0.1384
     38 H6         -0.6494   -4.5086    0.0362 H         1 <0>         0.0636
     39 H7         -1.0041   -4.4598   -1.7074 H         1 <0>         0.0639
     40 H8          1.4257   -4.4314   -2.2009 H         1 <0>         0.0764
     41 H9          1.7805   -4.4801   -0.4574 H         1 <0>         0.0764
     42 H10         0.5966   -6.6514   -0.2773 H         1 <0>         0.0677
     43 H11         0.2419   -6.6027   -2.0208 H         1 <0>         0.0678
     44 H12         2.6717   -6.5742   -2.5144 H         1 <0>         0.0670
     45 H13         3.0264   -6.6230   -0.7708 H         1 <0>         0.0670
     46 H14         1.8425   -8.7943   -0.5907 H         1 <0>         0.0735
     47 H15         1.4878   -8.7455   -2.3342 H         1 <0>         0.0736
     48 H16         3.9177   -8.7170   -2.8278 H         1 <0>         0.0998
     49 H17         4.2724   -8.7658   -1.0842 H         1 <0>         0.0998
     50 H18         5.3892  -10.9073   -2.2798 H         1 <0>         0.4083
     51 H19         5.2483  -13.1974   -2.3152 H         1 <0>         0.3880
     52 H20        -6.7712    0.0535    0.4833 H         1 <0>         0.1970
     53 H21        -4.2073   -4.5237   -0.0542 H         1 <0>         0.4199
     54 H22        -5.5263   -6.2340    1.3046 H         1 <0>         0.1283
     55 H23        -7.7278   -7.3089    1.5083 H         1 <0>         0.1335
     56 H24        -9.7064   -6.2809    0.4724 H         1 <0>         0.1285
     57 H25        -7.2686   -3.0659   -0.9770 H         1 <0>         0.1383
     58 H26       -11.5568   -3.0752   -1.8662 H         1 <0>         0.2250
@<TRIPOS>BOND
     1    1    2 1
     2    1   33 1
     3    1   34 1
     4    1   35 1
     5    2    3 1
     6    3    8 ar
     7    3    4 ar
     8    4    5 ar
     9    4   36 1
    10    5   23 ar
    11    5    6 ar
    12    6    7 ar
    13    6   20 ar
    14    7    8 ar
    15    7   37 1
    16    8    9 1
    17    9   10 1
    18   10   11 1
    19   10   38 1
    20   10   39 1
    21   11   12 1
    22   11   40 1
    23   11   41 1
    24   12   13 1
    25   12   42 1
    26   12   43 1
    27   13   14 1
    28   13   44 1
    29   13   45 1
    30   14   15 1
    31   14   46 1
    32   14   47 1
    33   15   16 1
    34   15   48 1
    35   15   49 1
    36   16   17 2
    37   16   18 am
    38   18   19 1
    39   18   50 1
    40   19   51 1
    41   20   21 ar
    42   20   24 1
    43   21   22 ar
    44   22   23 ar
    45   22   52 1
    46   24   25 1
    47   24   53 1
    48   25   30 ar
    49   25   26 ar
    50   26   27 ar
    51   26   54 1
    52   27   28 ar
    53   27   55 1
    54   28   29 ar
    55   28   56 1
    56   29   30 ar
    57   29   31 1
    58   30   57 1
    59   31   32 3
    60   32   58 1
@<TRIPOS>MOLECULE
CHEMBL320497
   30    29     0     0     0
SMALL
USER_CHARGES

@<TRIPOS>ATOM
      1 C1         -0.0187    1.5258    0.0104 C.3       1 <0>        -0.1203
      2 C2          0.0021   -0.0041    0.0020 C.3       1 <0>        -0.1203
      3 C3         -1.4333   -0.5336    0.0129 C.3       1 <0>        -0.1061
      4 C4         -1.4126   -2.0635    0.0045 C.3       1 <0>        -0.1273
      5 C5         -2.8264   -2.5851    0.0152 C.2       1 <0>         0.5212
      6 O1         -3.7588   -1.8096    0.0282 O.2       1 <0>        -0.5197
      7 N1         -3.0546   -3.9134    0.0102 N.am      1 <0>        -0.6002
      8 O2         -4.3831   -4.4035    0.0203 O.3       1 <0>        -0.3209
      9 C6          1.4167    2.0553   -0.0004 C.3       1 <0>        -0.1061
     10 C7          1.3960    3.5852    0.0080 C.3       1 <0>        -0.1273
     11 C8          2.8098    4.1068   -0.0027 C.2       1 <0>         0.5212
     12 O3          3.7422    3.3313   -0.0158 O.2       1 <0>        -0.5197
     13 N2          3.0380    5.4351    0.0022 N.am      1 <0>        -0.6002
     14 O4          4.3665    5.9252   -0.0078 O.3       1 <0>        -0.3209
     15 H1         -0.5459    1.8868   -0.8726 H         1 <0>         0.0660
     16 H2         -0.5289    1.8773    0.9072 H         1 <0>         0.0660
     17 H3          0.5123   -0.3556   -0.8948 H         1 <0>         0.0660
     18 H4          0.5293   -0.3651    0.8851 H         1 <0>         0.0660
     19 H5         -1.9435   -0.1821    0.9097 H         1 <0>         0.0730
     20 H6         -1.9605   -0.1726   -0.8702 H         1 <0>         0.0730
     21 H7         -0.9024   -2.4150   -0.8923 H         1 <0>         0.0996
     22 H8         -0.8854   -2.4246    0.8875 H         1 <0>         0.0996
     23 H9         -2.3089   -4.5336   -0.0002 H         1 <0>         0.4083
     24 H10        -4.4463   -5.3684    0.0157 H         1 <0>         0.3877
     25 H11         1.9439    1.6943    0.8826 H         1 <0>         0.0730
     26 H12         1.9269    1.7038   -0.8972 H         1 <0>         0.0730
     27 H13         0.8688    3.9463   -0.8751 H         1 <0>         0.0996
     28 H14         0.8858    3.9367    0.9048 H         1 <0>         0.0996
     29 H15         2.2923    6.0553    0.0127 H         1 <0>         0.4083
     30 H16         4.4297    6.8901   -0.0032 H         1 <0>         0.3877
@<TRIPOS>BOND
     1    1    2 1
     2    1    9 1
     3    1   15 1
     4    1   16 1
     5    2    3 1
     6    2   17 1
     7    2   18 1
     8    3    4 1
     9    3   19 1
    10    3   20 1
    11    4    5 1
    12    4   21 1
    13    4   22 1
    14    5    6 2
    15    5    7 am
    16    7    8 1
    17    7   23 1
    18    8   24 1
    19    9   10 1
    20    9   25 1
    21    9   26 1
    22   10   11 1
    23   10   27 1
    24   10   28 1
    25   11   12 2
    26   11   13 am
    27   13   14 1
    28   13   29 1
    29   14   30 1
@<TRIPOS>MOLECULE
CHEMBL338816
   43    45     0     0     0
SMALL
USER_CHARGES

@<TRIPOS>ATOM
      1 C1         -0.0164    1.3602    0.0095 C.ar      1 <0>        -0.1483
      2 C2          1.1695    2.0840    0.0021 C.ar      1 <0>        -0.0837
      3 C3          2.3855    1.4386   -0.0134 C.ar      1 <0>        -0.1354
      4 C4          2.4305    0.0471   -0.0213 C.ar      1 <0>         0.1150
      5 C5          1.2268   -0.6843   -0.0132 C.ar      1 <0>        -0.1221
      6 C6          0.0021   -0.0041    0.0020 C.ar      1 <0>        -0.0586
      7 C7          1.5770   -2.0562   -0.0240 C.2       1 <0>        -0.0995
      8 C8          2.9332   -2.1367   -0.0379 C.2       1 <0>         0.0089
      9 N1          3.4628   -0.8608   -0.0363 N.pl3     1 <0>        -0.5804
     10 H1          4.4076   -0.6415   -0.0450 H         1 <0>         0.4162
     11 C9          3.7131   -3.3834   -0.0515 C.2       1 <0>         0.5844
     12 O1          3.1426   -4.4578   -0.0509 O.2       1 <0>        -0.5178
     13 N2          5.0600   -3.3356   -0.0647 N.am      1 <0>        -0.7303
     14 C10         5.8369   -4.5776   -0.0783 C.3       1 <0>         0.1178
     15 C11         7.3302   -4.2448   -0.0915 C.3       1 <0>        -0.1329
     16 C12         8.1416   -5.5419   -0.1057 C.3       1 <0>        -0.1163
     17 C13         9.6350   -5.2092   -0.1190 C.3       1 <0>        -0.1137
     18 C14        10.4464   -6.5062   -0.1332 C.3       1 <0>        -0.1403
     19 C15        11.9172   -6.1785   -0.1463 C.2       1 <0>         0.4514
     20 O2         12.2809   -5.0210   -0.1444 O.2       1 <0>        -0.4242
     21 C16        12.9087   -7.2583   -0.1612 C.2       1 <0>         0.0962
     22 N3         12.6414   -8.5464   -0.1704 N.2       1 <0>        -0.4189
     23 C17        13.7900   -9.2210   -0.1837 C.2       1 <0>        -0.0438
     24 C18        14.8016   -8.3195   -0.1827 C.2       1 <0>        -0.0383
     25 O3         14.2455   -7.0979   -0.1737 O.3       1 <0>        -0.1708
     26 H2         -0.9617    1.8823    0.0259 H         1 <0>         0.1260
     27 H3          1.1372    3.1635    0.0082 H         1 <0>         0.1288
     28 H4          3.3019    2.0101   -0.0198 H         1 <0>         0.1231
     29 H5         -0.9250   -0.5581    0.0082 H         1 <0>         0.1270
     30 H6          0.8895   -2.8891   -0.0216 H         1 <0>         0.1572
     31 H7          5.5149   -2.4789   -0.0652 H         1 <0>         0.3962
     32 H8          5.6029   -5.1623    0.8114 H         1 <0>         0.0733
     33 H9          5.5852   -5.1539   -0.9685 H         1 <0>         0.0734
     34 H10         7.5643   -3.6601   -0.9811 H         1 <0>         0.0715
     35 H11         7.5820   -3.6685    0.7987 H         1 <0>         0.0716
     36 H12         7.9076   -6.1266    0.7839 H         1 <0>         0.0715
     37 H13         7.8899   -6.1182   -0.9960 H         1 <0>         0.0715
     38 H14         9.8690   -4.6244   -1.0086 H         1 <0>         0.0729
     39 H15         9.8867   -4.6328    0.7713 H         1 <0>         0.0729
     40 H16        10.2123   -7.0909    0.7564 H         1 <0>         0.1126
     41 H17        10.1946   -7.0826   -1.0234 H         1 <0>         0.1127
     42 H18        13.8961  -10.2958   -0.1930 H         1 <0>         0.1964
     43 H19        15.8584   -8.5423   -0.1910 H         1 <0>         0.2268
@<TRIPOS>BOND
     1    1    6 ar
     2    1    2 ar
     3    1   26 1
     4    2    3 ar
     5    2   27 1
     6    3    4 ar
     7    3   28 1
     8    4    9 1
     9    4    5 ar
    10    5    6 ar
    11    5    7 1
    12    6   29 1
    13    7    8 2
    14    7   30 1
    15    8    9 1
    16    8   11 1
    17    9   10 1
    18   11   12 2
    19   11   13 am
    20   13   14 1
    21   13   31 1
    22   14   15 1
    23   14   32 1
    24   14   33 1
    25   15   16 1
    26   15   34 1
    27   15   35 1
    28   16   17 1
    29   16   36 1
    30   16   37 1
    31   17   18 1
    32   17   38 1
    33   17   39 1
    34   18   19 1
    35   18   40 1
    36   18   41 1
    37   19   20 2
    38   19   21 1
    39   21   25 1
    40   21   22 2
    41   22   23 1
    42   23   24 2
    43   23   42 1
    44   24   25 1
    45   24   43 1
@<TRIPOS>MOLECULE
CHEMBL340725
   46    48     0     0     0
SMALL
USER_CHARGES

@<TRIPOS>ATOM
      1 C1         -0.0164    1.3602    0.0095 C.ar      1 <0>        -0.1483
      2 C2          1.1695    2.0840    0.0021 C.ar      1 <0>        -0.0836
      3 C3          2.3855    1.4386   -0.0134 C.ar      1 <0>        -0.1355
      4 C4          2.4305    0.0471   -0.0213 C.ar      1 <0>         0.1150
      5 C5          1.2268   -0.6843   -0.0132 C.ar      1 <0>        -0.1221
      6 C6          0.0021   -0.0041    0.0020 C.ar      1 <0>        -0.0585
      7 C7          1.5770   -2.0562   -0.0240 C.2       1 <0>        -0.0995
      8 C8          2.9332   -2.1367   -0.0379 C.2       1 <0>         0.0091
      9 N1          3.4628   -0.8608   -0.0363 N.pl3     1 <0>        -0.5804
     10 H1          4.4076   -0.6415   -0.0450 H         1 <0>         0.4160
     11 C9          3.7131   -3.3834   -0.0515 C.2       1 <0>         0.5839
     12 O1          3.1426   -4.4578   -0.0509 O.2       1 <0>        -0.5176
     13 N2          5.0600   -3.3356   -0.0647 N.am      1 <0>        -0.7302
     14 C10         5.8369   -4.5776   -0.0783 C.3       1 <0>         0.1172
     15 C11         7.3302   -4.2448   -0.0915 C.3       1 <0>        -0.1321
     16 C12         8.1416   -5.5419   -0.1057 C.3       1 <0>        -0.1178
     17 C13         9.6350   -5.2092   -0.1190 C.3       1 <0>        -0.1179
     18 C14        10.4464   -6.5062   -0.1332 C.3       1 <0>        -0.1157
     19 C15        11.9397   -6.1735   -0.1465 C.3       1 <0>        -0.1394
     20 C16        12.7389   -7.4510   -0.1604 C.2       1 <0>         0.4502
     21 O2         12.1699   -8.5226   -0.1598 O.2       1 <0>        -0.4225
     22 C17        14.2039   -7.3991   -0.1747 C.2       1 <0>         0.0971
     23 N3         14.9337   -6.3045   -0.1711 N.2       1 <0>        -0.4200
     24 C18        16.2205   -6.6488   -0.1868 C.2       1 <0>        -0.0443
     25 C19        16.2885   -8.0021   -0.2006 C.2       1 <0>        -0.0385
     26 O3         15.0282   -8.4637   -0.1880 O.3       1 <0>        -0.1705
     27 H2         -0.9617    1.8823    0.0259 H         1 <0>         0.1260
     28 H3          1.1372    3.1635    0.0082 H         1 <0>         0.1288
     29 H4          3.3019    2.0101   -0.0198 H         1 <0>         0.1231
     30 H5         -0.9250   -0.5581    0.0082 H         1 <0>         0.1270
     31 H6          0.8895   -2.8891   -0.0216 H         1 <0>         0.1571
     32 H7          5.5149   -2.4789   -0.0652 H         1 <0>         0.3958
     33 H8          5.6029   -5.1623    0.8114 H         1 <0>         0.0729
     34 H9          5.5852   -5.1539   -0.9685 H         1 <0>         0.0729
     35 H10         7.5643   -3.6601   -0.9811 H         1 <0>         0.0703
     36 H11         7.5820   -3.6685    0.7987 H         1 <0>         0.0703
     37 H12         7.9076   -6.1266    0.7839 H         1 <0>         0.0689
     38 H13         7.8899   -6.1182   -0.9960 H         1 <0>         0.0689
     39 H14         9.8690   -4.6244   -1.0086 H         1 <0>         0.0664
     40 H15         9.8867   -4.6328    0.7713 H         1 <0>         0.0664
     41 H16        10.2123   -7.0909    0.7564 H         1 <0>         0.0729
     42 H17        10.1946   -7.0826   -1.0234 H         1 <0>         0.0729
     43 H18        12.1737   -5.5887   -1.0361 H         1 <0>         0.1112
     44 H19        12.1914   -5.5971    0.7438 H         1 <0>         0.1112
     45 H20        17.0604   -5.9699   -0.1888 H         1 <0>         0.1962
     46 H21        17.1889   -8.5982   -0.2156 H         1 <0>         0.2266
@<TRIPOS>BOND
     1    1    6 ar
     2    1    2 ar
     3    1   27 1
     4    2    3 ar
     5    2   28 1
     6    3    4 ar
     7    3   29 1
     8    4    9 1
     9    4    5 ar
    10    5    6 ar
    11    5    7 1
    12    6   30 1
    13    7    8 2
    14    7   31 1
    15    8    9 1
    16    8   11 1
    17    9   10 1
    18   11   12 2
    19   11   13 am
    20   13   14 1
    21   13   32 1
    22   14   15 1
    23   14   33 1
    24   14   34 1
    25   15   16 1
    26   15   35 1
    27   15   36 1
    28   16   17 1
    29   16   37 1
    30   16   38 1
    31   17   18 1
    32   17   39 1
    33   17   40 1
    34   18   19 1
    35   18   41 1
    36   18   42 1
    37   19   20 1
    38   19   43 1
    39   19   44 1
    40   20   21 2
    41   20   22 1
    42   22   26 1
    43   22   23 2
    44   23   24 1
    45   24   25 2
    46   24   45 1
    47   25   26 1
    48   25   46 1
@<TRIPOS>MOLECULE
CHEMBL1093033
   66    69     0     0     0
SMALL
USER_CHARGES

@<TRIPOS>ATOM
      1 C1         -0.0187    1.5258    0.0104 C.3       1 <0>        -0.1590
      2 C2          0.0021   -0.0041    0.0020 C.3       1 <0>        -0.0122
      3 C3          0.7421   -0.5109    1.2415 C.3       1 <0>        -0.1421
      4 C4         -1.4333   -0.5336    0.0129 C.3       1 <0>        -0.1457
      5 C5          0.7074   -0.4901   -1.2379 C.2       1 <0>         0.1335
      6 C6          0.8974   -1.7790   -1.5612 C.2       1 <0>        -0.1921
      7 C7          1.6190   -1.7988   -2.8359 C.ar      1 <0>        -0.0924
      8 C8          2.0945   -2.8158   -3.6661 C.ar      1 <0>        -0.0892
      9 C9          2.7477   -2.4972   -4.8230 C.ar      1 <0>        -0.1313
     10 C10         2.9427   -1.1698   -5.1801 C.ar      1 <0>        -0.0958
     11 C11         2.4819   -0.1509   -4.3758 C.ar      1 <0>        -0.1191
     12 C12         1.8141   -0.4523   -3.1931 C.ar      1 <0>         0.0966
     13 N1          1.2440    0.3171   -2.2037 N.pl3     1 <0>        -0.5835
     14 H1          1.2269    1.2868   -2.1922 H         1 <0>         0.4198
     15 C13         0.4526   -2.9781   -0.7641 C.3       1 <0>        -0.0260
     16 H2         -0.0601   -2.6454    0.1384 H         1 <0>         0.1049
     17 C14        -0.4998   -3.8291   -1.6091 C.3       1 <0>        -0.1301
     18 C15        -0.8838   -5.0840   -0.8197 C.3       1 <0>        -0.1443
     19 C16         0.3861   -5.8453   -0.4333 C.3       1 <0>        -0.0194
     20 N2          1.2423   -4.9875    0.3948 N.4       1 <0>        -0.3807
     21 C17         1.6731   -3.8168   -0.3788 C.3       1 <0>        -0.0061
     22 C18         2.4224   -5.7478    0.8276 C.3       1 <0>         0.0441
     23 C19         1.9908   -6.8735    1.7319 C.ar      1 <0>        -0.1857
     24 C20         2.1006   -6.7348    3.1044 C.ar      1 <0>        -0.0591
     25 C21         1.7080   -7.7599    3.9386 C.ar      1 <0>        -0.0992
     26 C22         1.1973   -8.9433    3.3956 C.ar      1 <0>        -0.0016
     27 C23         1.0887   -9.0781    2.0085 C.ar      1 <0>        -0.1384
     28 C24         1.4807   -8.0404    1.1851 C.ar      1 <0>         0.1198
     29 F1          1.3718   -8.1654   -0.1557 F         1 <0>        -0.1279
     30 C25         0.7768  -10.0419    4.2806 C.2       1 <0>        -0.0401
     31 C26         0.2850  -11.1812    3.7538 C.2       1 <0>        -0.1656
     32 C27        -0.1333  -12.2740    4.6340 C.2       1 <0>         0.5535
     33 O1         -0.0371  -12.1538    5.8412 O.2       1 <0>        -0.5133
     34 N3         -0.6250  -13.4130    4.1073 N.am      1 <0>        -0.5893
     35 O2         -1.0295  -14.4698    4.9586 O.3       1 <0>        -0.3100
     36 H3          1.0039    1.9031    0.0027 H         1 <0>         0.0609
     37 H4         -0.5459    1.8868   -0.8726 H         1 <0>         0.0616
     38 H5         -0.5289    1.8773    0.9072 H         1 <0>         0.0750
     39 H6          0.2319   -0.1594    2.1383 H         1 <0>         0.0718
     40 H7          0.7568   -1.6008    1.2356 H         1 <0>         0.0536
     41 H8          1.7647   -0.1336    1.2338 H         1 <0>         0.0629
     42 H9         -1.9605   -0.1726   -0.8702 H         1 <0>         0.0632
     43 H10        -1.4185   -1.6235    0.0069 H         1 <0>         0.0616
     44 H11        -1.9435   -0.1821    0.9097 H         1 <0>         0.0703
     45 H12         1.9467   -3.8507   -3.3946 H         1 <0>         0.1137
     46 H13         3.1155   -3.2842   -5.4647 H         1 <0>         0.1253
     47 H14         3.4612   -0.9337   -6.0976 H         1 <0>         0.1303
     48 H15         2.6389    0.8786   -4.6621 H         1 <0>         0.1243
     49 H16        -1.3969   -3.2538   -1.8380 H         1 <0>         0.0939
     50 H17        -0.0048   -4.1188   -2.5359 H         1 <0>         0.0845
     51 H18        -1.4239   -4.7957    0.0820 H         1 <0>         0.0863
     52 H19        -1.5173   -5.7220   -1.4360 H         1 <0>         0.1126
     53 H20         0.1163   -6.7395    0.1287 H         1 <0>         0.1301
     54 H21         0.9253   -6.1333   -1.3357 H         1 <0>         0.1313
     55 H22         2.1856   -4.1481   -1.2820 H         1 <0>         0.1307
     56 H23         2.3527   -3.2135    0.2229 H         1 <0>         0.1313
     57 H24         2.9308   -6.1575   -0.0452 H         1 <0>         0.1388
     58 H25         3.1017   -5.0881    1.3674 H         1 <0>         0.1444
     59 H26         2.4953   -5.8209    3.5233 H         1 <0>         0.1495
     60 H27         1.7949   -7.6494    5.0094 H         1 <0>         0.1518
     61 H28         0.6953   -9.9890    1.5820 H         1 <0>         0.1528
     62 H29         0.8622   -9.9352    5.3519 H         1 <0>         0.1530
     63 H30         0.1996  -11.2879    2.6824 H         1 <0>         0.1372
     64 H31        -0.7017  -13.5089    3.1451 H         1 <0>         0.4105
     65 H32        -1.3683  -15.2448    4.4898 H         1 <0>         0.3938
     66 H33         0.7260   -4.6813    1.2058 H         1 <0>         0.4202
@<TRIPOS>BOND
     1    1    2 1
     2    1   36 1
     3    1   37 1
     4    1   38 1
     5    2    3 1
     6    2    4 1
     7    2    5 1
     8    3   39 1
     9    3   40 1
    10    3   41 1
    11    4   42 1
    12    4   43 1
    13    4   44 1
    14    5   13 1
    15    5    6 2
    16    6    7 1
    17    6   15 1
    18    7   12 ar
    19    7    8 ar
    20    8    9 ar
    21    8   45 1
    22    9   10 ar
    23    9   46 1
    24   10   11 ar
    25   10   47 1
    26   11   12 ar
    27   11   48 1
    28   12   13 1
    29   13   14 1
    30   15   16 1
    31   15   21 1
    32   15   17 1
    33   17   18 1
    34   17   49 1
    35   17   50 1
    36   18   19 1
    37   18   51 1
    38   18   52 1
    39   19   20 1
    40   19   53 1
    41   19   54 1
    42   20   21 1
    43   20   22 1
    44   20   66 1
    45   21   55 1
    46   21   56 1
    47   22   23 1
    48   22   57 1
    49   22   58 1
    50   23   28 ar
    51   23   24 ar
    52   24   25 ar
    53   24   59 1
    54   25   26 ar
    55   25   60 1
    56   26   27 ar
    57   26   30 1
    58   27   28 ar
    59   27   61 1
    60   28   29 1
    61   30   31 2
    62   30   62 1
    63   31   32 1
    64   31   63 1
    65   32   33 2
    66   32   34 am
    67   34   35 1
    68   34   64 1
    69   35   65 1
@<TRIPOS>MOLECULE
CHEMBL1093033__1
   65    68     0     0     0
SMALL
USER_CHARGES

@<TRIPOS>ATOM
      1 C1         -0.0187    1.5258    0.0104 C.3       1 <0>        -0.1537
      2 C2          0.0021   -0.0041    0.0020 C.3       1 <0>        -0.0044
      3 C3          0.7421   -0.5109    1.2415 C.3       1 <0>        -0.1455
      4 C4         -1.4333   -0.5336    0.0129 C.3       1 <0>        -0.1455
      5 C5          0.7074   -0.4901   -1.2379 C.2       1 <0>         0.1027
      6 C6          0.8974   -1.7790   -1.5612 C.2       1 <0>        -0.1594
      7 C7          1.6190   -1.7988   -2.8359 C.ar      1 <0>        -0.0926
      8 C8          2.0945   -2.8158   -3.6661 C.ar      1 <0>        -0.0729
      9 C9          2.7477   -2.4972   -4.8230 C.ar      1 <0>        -0.1462
     10 C10         2.9427   -1.1698   -5.1801 C.ar      1 <0>        -0.1005
     11 C11         2.4819   -0.1509   -4.3758 C.ar      1 <0>        -0.1295
     12 C12         1.8141   -0.4523   -3.1931 C.ar      1 <0>         0.0953
     13 N1          1.2440    0.3171   -2.2037 N.pl3     1 <0>        -0.5906
     14 H1          1.2269    1.2868   -2.1922 H         1 <0>         0.4131
     15 C13         0.4526   -2.9781   -0.7641 C.3       1 <0>        -0.0104
     16 H2         -0.0601   -2.6454    0.1384 H         1 <0>         0.0946
     17 C14        -0.4998   -3.8288   -1.6089 C.3       1 <0>        -0.1129
     18 C15        -0.8994   -5.0752   -0.8143 C.3       1 <0>        -0.1176
     19 C16         0.3604   -5.8536   -0.4281 C.3       1 <0>         0.0450
     20 N2          1.2383   -4.9970    0.3793 N.3       1 <0>        -0.5305
     21 C17         1.6733   -3.8167   -0.3786 C.3       1 <0>         0.0654
     22 C18         2.3923   -5.7530    0.8841 C.3       1 <0>         0.0912
     23 C19         1.9191   -6.8008    1.8583 C.ar      1 <0>        -0.0920
     24 C20         2.0120   -6.5678    3.2192 C.ar      1 <0>        -0.0752
     25 C21         1.5813   -7.5213    4.1171 C.ar      1 <0>        -0.0981
     26 C22         1.0489   -8.7275    3.6506 C.ar      1 <0>        -0.0516
     27 C23         0.9574   -8.9577    2.2749 C.ar      1 <0>        -0.1350
     28 C24         1.3877   -7.9909    1.3869 C.ar      1 <0>         0.1008
     29 F1          1.2955   -8.2081    0.0567 F         1 <0>        -0.1331
     30 C25         0.5876   -9.7501    4.6039 C.2       1 <0>        -0.0056
     31 C26         0.0750  -10.9117    4.1507 C.2       1 <0>        -0.2042
     32 C27        -0.3838  -11.9288    5.0989 C.2       1 <0>         0.5606
     33 O1         -0.3024  -11.7256    6.2960 O.2       1 <0>        -0.5230
     34 N3         -0.8963  -13.0901    4.6459 N.am      1 <0>        -0.5930
     35 O2         -1.3400  -14.0737    5.5628 O.3       1 <0>        -0.3152
     36 H3          1.0039    1.9031    0.0027 H         1 <0>         0.0568
     37 H4         -0.5459    1.8868   -0.8726 H         1 <0>         0.0566
     38 H5         -0.5289    1.8773    0.9072 H         1 <0>         0.0694
     39 H6          0.2319   -0.1594    2.1383 H         1 <0>         0.0634
     40 H7          0.7568   -1.6008    1.2356 H         1 <0>         0.0725
     41 H8          1.7647   -0.1336    1.2338 H         1 <0>         0.0560
     42 H9         -1.9605   -0.1726   -0.8702 H         1 <0>         0.0564
     43 H10        -1.4185   -1.6235    0.0069 H         1 <0>         0.0704
     44 H11        -1.9435   -0.1821    0.9097 H         1 <0>         0.0638
     45 H12         1.9467   -3.8507   -3.3946 H         1 <0>         0.1167
     46 H13         3.1155   -3.2842   -5.4647 H         1 <0>         0.1201
     47 H14         3.4612   -0.9337   -6.0976 H         1 <0>         0.1237
     48 H15         2.6389    0.8786   -4.6621 H         1 <0>         0.1178
     49 H16        -1.3909   -3.2487   -1.8488 H         1 <0>         0.0637
     50 H17        -0.0004   -4.1288   -2.5302 H         1 <0>         0.0612
     51 H18        -1.4331   -4.7760    0.0878 H         1 <0>         0.0699
     52 H19        -1.5436   -5.7062   -1.4266 H         1 <0>         0.0667
     53 H20         0.0803   -6.7341    0.1501 H         1 <0>         0.0816
     54 H21         0.8863   -6.1643   -1.3309 H         1 <0>         0.0353
     55 H22         2.1937   -4.1370   -1.2812 H         1 <0>         0.0373
     56 H23         2.3462   -3.2179    0.2352 H         1 <0>         0.0743
     57 H24         2.9030   -6.2357    0.0509 H         1 <0>         0.0487
     58 H25         3.0800   -5.0733    1.3872 H         1 <0>         0.0909
     59 H26         2.4235   -5.6363    3.5791 H         1 <0>         0.1392
     60 H27         1.6552   -7.3372    5.1788 H         1 <0>         0.1384
     61 H28         0.5474   -9.8868    1.9073 H         1 <0>         0.1400
     62 H29         0.6599   -9.5698    5.6663 H         1 <0>         0.1445
     63 H30         0.0028  -11.0920    3.0883 H         1 <0>         0.1348
     64 H31        -0.9612  -13.2521    3.6917 H         1 <0>         0.4099
     65 H32        -1.6913  -14.8715    5.1443 H         1 <0>         0.3894
@<TRIPOS>BOND
     1    1    2 1
     2    1   36 1
     3    1   37 1
     4    1   38 1
     5    2    3 1
     6    2    4 1
     7    2    5 1
     8    3   39 1
     9    3   40 1
    10    3   41 1
    11    4   42 1
    12    4   43 1
    13    4   44 1
    14    5   13 1
    15    5    6 2
    16    6    7 1
    17    6   15 1
    18    7   12 ar
    19    7    8 ar
    20    8    9 ar
    21    8   45 1
    22    9   10 ar
    23    9   46 1
    24   10   11 ar
    25   10   47 1
    26   11   12 ar
    27   11   48 1
    28   12   13 1
    29   13   14 1
    30   15   16 1
    31   15   21 1
    32   15   17 1
    33   17   18 1
    34   17   49 1
    35   17   50 1
    36   18   19 1
    37   18   51 1
    38   18   52 1
    39   19   20 1
    40   19   53 1
    41   19   54 1
    42   20   21 1
    43   20   22 1
    44   21   55 1
    45   21   56 1
    46   22   23 1
    47   22   57 1
    48   22   58 1
    49   23   28 ar
    50   23   24 ar
    51   24   25 ar
    52   24   59 1
    53   25   26 ar
    54   25   60 1
    55   26   27 ar
    56   26   30 1
    57   27   28 ar
    58   27   61 1
    59   28   29 1
    60   30   31 2
    61   30   62 1
    62   31   32 1
    63   31   63 1
    64   32   33 2
    65   32   34 am
    66   34   35 1
    67   34   64 1
    68   35   65 1
@<TRIPOS>MOLECULE
CHEMBL487742
   55    57     0     0     0
SMALL
USER_CHARGES

@<TRIPOS>ATOM
      1 C1          5.2162   -6.3259   -1.5991 C.ar      1 <0>        -0.1045
      2 C2          3.9508   -5.7733   -1.5253 C.ar      1 <0>        -0.1042
      3 C3          3.7921   -4.4569   -1.1384 C.ar      1 <0>        -0.1061
      4 C4          4.9047   -3.6884   -0.8234 C.ar      1 <0>         0.1236
      5 C5          6.1740   -4.2462   -0.8985 C.ar      1 <0>        -0.0973
      6 C6          6.3263   -5.5631   -1.2860 C.ar      1 <0>        -0.1040
      7 N1          4.7470   -2.3523   -0.4309 N.pl3     1 <0>        -0.3186
      8 C7          3.8363   -1.8604    0.4673 C.2       1 <0>         0.1044
      9 C8          4.0487   -0.5151    0.5343 C.2       1 <0>        -0.0597
     10 N2          5.0461   -0.1960   -0.2870 N.2       1 <0>        -0.2295
     11 N3          5.4936   -1.2502   -0.8740 N.2       1 <0>        -0.0583
     12 C9          2.8232   -2.6357    1.2162 C.ar      1 <0>        -0.0577
     13 C10         3.0138   -3.9994    1.4436 C.ar      1 <0>        -0.0821
     14 C11         2.0683   -4.7190    2.1421 C.ar      1 <0>        -0.1164
     15 C12         0.9258   -4.0878    2.6199 C.ar      1 <0>         0.1623
     16 C13         0.7329   -2.7298    2.3947 C.ar      1 <0>        -0.1427
     17 C14         1.6776   -2.0037    1.7018 C.ar      1 <0>        -0.0641
     18 N4         -0.0316   -4.8205    3.3282 N.am      1 <0>        -0.6777
     19 C15         0.3548   -5.8134    4.1536 C.2       1 <0>         0.5128
     20 O1          1.5256   -6.1220    4.2247 O.2       1 <0>        -0.5151
     21 C16        -0.6680   -6.5402    4.9883 C.3       1 <0>        -0.1402
     22 C17         0.0286   -7.6116    5.8297 C.3       1 <0>        -0.1055
     23 C18        -1.0098   -8.3496    6.6771 C.3       1 <0>        -0.1207
     24 C19        -0.3132   -9.4209    7.5185 C.3       1 <0>        -0.1198
     25 C20        -1.3516  -10.1589    8.3659 C.3       1 <0>        -0.1062
     26 C21        -0.6550  -11.2302    9.2073 C.3       1 <0>        -0.1272
     27 C22        -1.6778  -11.9571   10.0420 C.2       1 <0>         0.5211
     28 O2         -2.8485  -11.6485    9.9709 O.2       1 <0>        -0.5195
     29 N5         -1.2914  -12.9500   10.8674 N.am      1 <0>        -0.6001
     30 O3         -2.2524  -13.6329   11.6517 O.3       1 <0>        -0.3207
     31 H1          5.3375   -7.3567   -1.8976 H         1 <0>         0.1341
     32 H2          3.0857   -6.3714   -1.7708 H         1 <0>         0.1366
     33 H3          2.8035   -4.0258   -1.0812 H         1 <0>         0.1326
     34 H4          7.0414   -3.6508   -0.6544 H         1 <0>         0.1355
     35 H5          7.3133   -5.9976   -1.3443 H         1 <0>         0.1374
     36 H6          3.4975    0.1781    1.1525 H         1 <0>         0.1918
     37 H7          3.9012   -4.4905    1.0722 H         1 <0>         0.1311
     38 H8          2.2151   -5.7744    2.3180 H         1 <0>         0.1443
     39 H9         -0.1562   -2.2423    2.7666 H         1 <0>         0.1355
     40 H10         1.5294   -0.9476    1.5313 H         1 <0>         0.1376
     41 H11        -0.9738   -4.6142    3.2254 H         1 <0>         0.4142
     42 H12        -1.1702   -5.8311    5.6464 H         1 <0>         0.0991
     43 H13        -1.4018   -7.0118    4.3346 H         1 <0>         0.0988
     44 H14         0.5308   -8.3207    5.1716 H         1 <0>         0.0713
     45 H15         0.7623   -7.1401    6.4834 H         1 <0>         0.0714
     46 H16        -1.5120   -7.6404    7.3352 H         1 <0>         0.0654
     47 H17        -1.7436   -8.8211    6.0234 H         1 <0>         0.0654
     48 H18         0.1890  -10.1300    6.8604 H         1 <0>         0.0653
     49 H19         0.4205   -8.9494    8.1722 H         1 <0>         0.0655
     50 H20        -1.8538   -9.4498    9.0240 H         1 <0>         0.0730
     51 H21        -2.0853  -10.6304    7.7122 H         1 <0>         0.0730
     52 H22        -0.1528  -11.9393    8.5492 H         1 <0>         0.0994
     53 H23         0.0788  -10.7587    9.8610 H         1 <0>         0.0995
     54 H24        -0.3551  -13.1967   10.9242 H         1 <0>         0.4082
     55 H25        -1.8808  -14.3281   12.2118 H         1 <0>         0.3879
@<TRIPOS>BOND
     1    1    6 ar
     2    1    2 ar
     3    1   31 1
     4    2    3 ar
     5    2   32 1
     6    3    4 ar
     7    3   33 1
     8    4    5 ar
     9    4    7 1
    10    5    6 ar
    11    5   34 1
    12    6   35 1
    13    7   11 1
    14    7    8 1
    15    8    9 2
    16    8   12 1
    17    9   10 1
    18    9   36 1
    19   10   11 2
    20   12   17 ar
    21   12   13 ar
    22   13   14 ar
    23   13   37 1
    24   14   15 ar
    25   14   38 1
    26   15   16 ar
    27   15   18 1
    28   16   17 ar
    29   16   39 1
    30   17   40 1
    31   18   19 am
    32   18   41 1
    33   19   20 2
    34   19   21 1
    35   21   22 1
    36   21   42 1
    37   21   43 1
    38   22   23 1
    39   22   44 1
    40   22   45 1
    41   23   24 1
    42   23   46 1
    43   23   47 1
    44   24   25 1
    45   24   48 1
    46   24   49 1
    47   25   26 1
    48   25   50 1
    49   25   51 1
    50   26   27 1
    51   26   52 1
    52   26   53 1
    53   27   28 2
    54   27   29 am
    55   29   30 1
    56   29   54 1
    57   30   55 1
@<TRIPOS>MOLECULE
CHEMBL609583
   48    51     0     0     0
SMALL
USER_CHARGES

@<TRIPOS>ATOM
      1 C1         -0.0164    1.3567    0.0095 C.ar      1 <0>        -0.0922
      2 C2          1.1686    2.0905    0.0021 C.ar      1 <0>        -0.1205
      3 C3          2.3785    1.4675   -0.0131 C.ar      1 <0>        -0.0906
      4 C4          2.4375    0.0634   -0.0211 C.ar      1 <0>        -0.0787
      5 C5          3.6681   -0.6153   -0.0364 C.ar      1 <0>         0.0184
      6 C6          3.6865   -1.9761   -0.0434 C.ar      1 <0>        -0.6740
      7 C7          2.5015   -2.7098   -0.0357 C.ar      1 <0>        -0.0461
      8 C8          1.2917   -2.0868   -0.0209 C.ar      1 <0>        -0.1150
      9 C9          1.2327   -0.6827   -0.0133 C.ar      1 <0>        -0.0120
     10 C10         0.0021   -0.0041    0.0020 C.ar      1 <0>        -0.1198
     11 S1          5.2315   -2.8230   -0.0631 S.o2      1 <0>         2.6885
     12 O1          4.9835   -4.1075   -0.6179 O.2       1 <0>        -0.9478
     13 O2          6.1807   -1.9234   -0.6189 O.2       1 <0>        -0.9500
     14 N1          5.6766   -3.0663    1.5133 N.pl3     1 <0>        -0.9980
     15 C11         6.4806   -2.0640    2.2267 C.3       1 <0>         0.1044
     16 C12         5.7399   -1.6638    3.5087 C.3       1 <0>         0.1056
     17 N2          5.3376   -2.8856    4.2195 N.pl3     1 <0>        -0.5670
     18 C13         4.5337   -3.8878    3.5062 C.3       1 <0>         0.1061
     19 C14         5.2696   -4.2855    2.2259 C.3       1 <0>         0.1050
     20 C15         5.7084   -3.0882    5.5326 C.ar      1 <0>         0.5861
     21 N3          6.4301   -2.1608    6.1485 N.ar      1 <0>        -0.5683
     22 C16         6.8044   -2.3167    7.4042 C.ar      1 <0>         0.2679
     23 C17         6.4284   -3.4817    8.0857 C.ar      1 <0>        -0.3069
     24 C18         5.6665   -4.4357    7.3986 C.ar      1 <0>         0.2354
     25 N4          5.3283   -4.2022    6.1445 N.ar      1 <0>        -0.5698
     26 C19         6.8250   -3.6984    9.4904 C.2       1 <0>         0.5920
     27 O3          7.4868   -2.8601   10.0715 O.2       1 <0>        -0.5166
     28 N5          6.4538   -4.8256   10.1292 N.am      1 <0>        -0.5951
     29 O4          6.8344   -5.0335   11.4771 O.3       1 <0>        -0.3106
     30 H1         -0.9633    1.8757    0.0259 H         1 <0>         0.1292
     31 H2          1.1260    3.1696    0.0083 H         1 <0>         0.1297
     32 H3          3.2884    2.0491   -0.0194 H         1 <0>         0.1343
     33 H4          4.5943   -0.0599   -0.0428 H         1 <0>         0.1453
     34 H5          2.5441   -3.7890   -0.0419 H         1 <0>         0.1389
     35 H6          0.3816   -2.6684   -0.0154 H         1 <0>         0.1367
     36 H7         -0.9241   -0.5595    0.0082 H         1 <0>         0.1330
     37 H8          7.4514   -2.4884    2.4825 H         1 <0>         0.0853
     38 H9          6.6171   -1.1869    1.5942 H         1 <0>         0.1074
     39 H10         6.4000   -1.0721    4.1430 H         1 <0>         0.1174
     40 H11         4.8549   -1.0810    3.2532 H         1 <0>         0.0768
     41 H12         4.3971   -4.7649    4.1387 H         1 <0>         0.1165
     42 H13         3.5628   -3.4634    3.2504 H         1 <0>         0.0770
     43 H14         4.6066   -4.8751    1.5927 H         1 <0>         0.1081
     44 H15         6.1522   -4.8717    2.4816 H         1 <0>         0.0841
     45 H16         7.3922   -1.5577    7.8991 H         1 <0>         0.1846
     46 H17         5.3570   -5.3467    7.8892 H         1 <0>         0.1693
     47 H18         5.9258   -5.4943    9.6656 H         1 <0>         0.4057
     48 H19         6.5220   -5.8695   11.8495 H         1 <0>         0.3903
@<TRIPOS>BOND
     1    1   10 ar
     2    1    2 ar
     3    1   30 1
     4    2    3 ar
     5    2   31 1
     6    3    4 ar
     7    3   32 1
     8    4    9 ar
     9    4    5 ar
    10    5    6 ar
    11    5   33 1
    12    6    7 ar
    13    6   11 1
    14    7    8 ar
    15    7   34 1
    16    8    9 ar
    17    8   35 1
    18    9   10 ar
    19   10   36 1
    20   11   12 2
    21   11   13 2
    22   11   14 1
    23   14   19 1
    24   14   15 1
    25   15   16 1
    26   15   37 1
    27   15   38 1
    28   16   17 1
    29   16   39 1
    30   16   40 1
    31   17   18 1
    32   17   20 1
    33   18   19 1
    34   18   41 1
    35   18   42 1
    36   19   43 1
    37   19   44 1
    38   20   25 ar
    39   20   21 ar
    40   21   22 ar
    41   22   23 ar
    42   22   45 1
    43   23   24 ar
    44   23   26 1
    45   24   25 ar
    46   24   46 1
    47   26   27 2
    48   26   28 am
    49   28   29 1
    50   28   47 1
    51   29   48 1
@<TRIPOS>MOLECULE
CHEMBL152133
   46    47     0     0     0
SMALL
USER_CHARGES

@<TRIPOS>ATOM
      1 C1         -0.0178    1.4608    0.0101 C.3       1 <0>         0.0902
      2 N1          0.0021   -0.0041    0.0020 N.pl3     1 <0>        -0.6295
      3 C2          1.2806   -0.7192   -0.0140 C.3       1 <0>         0.0864
      4 C3         -1.1925   -0.7156    0.0096 C.ar      1 <0>         0.2423
      5 C4         -1.1719   -2.1076    0.0077 C.ar      1 <0>        -0.2091
      6 C5         -2.3524   -2.8147    0.0152 C.ar      1 <0>        -0.0061
      7 C6         -3.5733   -2.1337    0.0247 C.ar      1 <0>        -0.2027
      8 C7         -3.5906   -0.7359    0.0266 C.ar      1 <0>        -0.0335
      9 C8         -2.4066   -0.0345    0.0249 C.ar      1 <0>        -0.2062
     10 C9         -4.8407   -2.8886    0.0323 C.2       1 <0>         0.5661
     11 O1         -4.8241   -4.1045    0.0302 O.2       1 <0>        -0.5430
     12 N2         -6.0169   -2.2307    0.0415 N.am      1 <0>        -0.7276
     13 C10        -7.2755   -2.9804    0.0490 C.3       1 <0>         0.1594
     14 C11        -8.4341   -2.0168    0.0586 C.ar      1 <0>        -0.0951
     15 C12        -8.9514   -1.5742    1.2636 C.ar      1 <0>        -0.1016
     16 C13       -10.0117   -0.6928    1.2806 C.ar      1 <0>        -0.0913
     17 C14       -10.5641   -0.2459    0.0762 C.ar      1 <0>        -0.0718
     18 C15       -10.0355   -0.6974   -1.1372 C.ar      1 <0>        -0.1003
     19 C16        -8.9717   -1.5747   -1.1377 C.ar      1 <0>        -0.1020
     20 C17       -11.6965    0.6946    0.0856 C.2       1 <0>        -0.0056
     21 C18       -12.2263    1.1232   -1.0776 C.2       1 <0>        -0.2078
     22 C19       -13.3527    2.0588   -1.0682 C.2       1 <0>         0.5602
     23 O2        -13.8106    2.4494   -0.0105 O.2       1 <0>        -0.5241
     24 N3        -13.8825    2.4873   -2.2311 N.am      1 <0>        -0.5933
     25 O3        -14.9717    3.3920   -2.2221 O.3       1 <0>        -0.3156
     26 H1          1.0048    1.8381    0.0023 H         1 <0>         0.0764
     27 H2         -0.5450    1.8219   -0.8730 H         1 <0>         0.0579
     28 H3         -0.5280    1.8123    0.9069 H         1 <0>         0.0582
     29 H4          1.6074   -0.9021    1.0096 H         1 <0>         0.0533
     30 H5          1.1583   -1.6705   -0.5318 H         1 <0>         0.0725
     31 H6          2.0272   -0.1171   -0.5318 H         1 <0>         0.0704
     32 H7         -0.2284   -2.6332   -0.0001 H         1 <0>         0.1299
     33 H8         -2.3358   -3.8946    0.0133 H         1 <0>         0.1354
     34 H9         -4.5322   -0.2070    0.0336 H         1 <0>         0.1229
     35 H10        -2.4193    1.0454    0.0311 H         1 <0>         0.1273
     36 H11        -6.0301   -1.2608    0.0431 H         1 <0>         0.4002
     37 H12        -7.3309   -3.6063   -0.8416 H         1 <0>         0.0793
     38 H13        -7.3185   -3.6092    0.9383 H         1 <0>         0.0796
     39 H14        -8.5237   -1.9203    2.1929 H         1 <0>         0.1306
     40 H15       -10.4148   -0.3488    2.2217 H         1 <0>         0.1330
     41 H16       -10.4571   -0.3570   -2.0714 H         1 <0>         0.1305
     42 H17        -8.5595   -1.9209   -2.0740 H         1 <0>         0.1297
     43 H18       -12.1028    1.0413    1.0243 H         1 <0>         0.1406
     44 H19       -11.8200    0.7766   -2.0163 H         1 <0>         0.1352
     45 H20       -13.5175    2.1760   -3.0742 H         1 <0>         0.4097
     46 H21       -15.2829    3.6418   -3.1029 H         1 <0>         0.3892
@<TRIPOS>BOND
     1    1    2 1
     2    1   26 1
     3    1   27 1
     4    1   28 1
     5    2    3 1
     6    2    4 1
     7    3   29 1
     8    3   30 1
     9    3   31 1
    10    4    9 ar
    11    4    5 ar
    12    5    6 ar
    13    5   32 1
    14    6    7 ar
    15    6   33 1
    16    7    8 ar
    17    7   10 1
    18    8    9 ar
    19    8   34 1
    20    9   35 1
    21   10   11 2
    22   10   12 am
    23   12   13 1
    24   12   36 1
    25   13   14 1
    26   13   37 1
    27   13   38 1
    28   14   19 ar
    29   14   15 ar
    30   15   16 ar
    31   15   39 1
    32   16   17 ar
    33   16   40 1
    34   17   18 ar
    35   17   20 1
    36   18   19 ar
    37   18   41 1
    38   19   42 1
    39   20   21 2
    40   20   43 1
    41   21   22 1
    42   21   44 1
    43   22   23 2
    44   22   24 am
    45   24   25 1
    46   24   45 1
    47   25   46 1
@<TRIPOS>MOLECULE
CHEMBL189137
   46    47     0     0     0
SMALL
USER_CHARGES

@<TRIPOS>ATOM
      1 C1         -0.0247    1.5313   -0.0043 C.3       1 <0>        -0.1478
      2 C2          0.0002    0.0016   -0.0010 C.3       1 <0>        -0.0780
      3 C3          0.7404   -0.4938    1.2430 C.3       1 <0>        -0.1466
      4 C4         -1.4337   -0.5319    0.0124 C.3       1 <0>        -0.0902
      5 C5         -2.1524   -0.0309    1.2668 C.3       1 <0>        -0.0836
      6 C6         -3.5648   -0.5563    1.2800 C.ar      1 <0>        -0.0823
      7 C7         -4.5782    0.1703    0.6835 C.ar      1 <0>        -0.1173
      8 C8         -5.8738   -0.3116    0.6957 C.ar      1 <0>        -0.1179
      9 C9         -6.1558   -1.5205    1.3040 C.ar      1 <0>        -0.1245
     10 C10        -5.1423   -2.2476    1.8997 C.ar      1 <0>        -0.1180
     11 C11        -3.8460   -1.7677    1.8838 C.ar      1 <0>        -0.1174
     12 C12         0.7082   -0.4919   -1.2365 C.2       1 <0>         0.5239
     13 O1          0.1234   -1.2005   -2.0282 O.2       1 <0>        -0.5078
     14 N1          1.9912   -0.1458   -1.4616 N.am      1 <0>        -0.6734
     15 C13         2.6759   -0.6789   -2.5530 C.ar      1 <0>         0.1767
     16 C14         2.0014   -0.9179   -3.7462 C.ar      1 <0>        -0.1280
     17 C15         2.6745   -1.4442   -4.8257 C.ar      1 <0>        -0.0325
     18 C16         4.0368   -1.7379   -4.7222 C.ar      1 <0>        -0.1447
     19 C17         4.7114   -1.4961   -3.5224 C.ar      1 <0>        -0.0665
     20 C18         4.0334   -0.9652   -2.4483 C.ar      1 <0>        -0.1524
     21 C19         4.7615   -2.3026   -5.8774 C.2       1 <0>         0.5737
     22 O2          4.1732   -2.5128   -6.9204 O.2       1 <0>        -0.5151
     23 N2          6.0754   -2.5853   -5.7759 N.am      1 <0>        -0.5947
     24 O3          6.7707   -3.1271   -6.8841 O.3       1 <0>        -0.3131
     25 H1          0.9968    1.9114   -0.0139 H         1 <0>         0.0604
     26 H2         -0.5520    1.8842   -0.8906 H         1 <0>         0.0649
     27 H3         -0.5368    1.8883    0.8893 H         1 <0>         0.0777
     28 H4          0.2283   -0.1369    2.1366 H         1 <0>         0.0772
     29 H5          0.7582   -1.5836    1.2453 H         1 <0>         0.0641
     30 H6          1.7619   -0.1138    1.2334 H         1 <0>         0.0606
     31 H7         -1.9610   -0.1790   -0.8739 H         1 <0>         0.0740
     32 H8         -1.4159   -1.6218    0.0148 H         1 <0>         0.0738
     33 H9         -1.6251   -0.3838    2.1531 H         1 <0>         0.0766
     34 H10        -2.1702    1.0589    1.2644 H         1 <0>         0.0767
     35 H11        -4.3579    1.1148    0.2083 H         1 <0>         0.1205
     36 H12        -6.6657    0.2564    0.2303 H         1 <0>         0.1215
     37 H13        -7.1681   -1.8967    1.3141 H         1 <0>         0.1209
     38 H14        -5.3627   -3.1919    2.3752 H         1 <0>         0.1214
     39 H15        -3.0535   -2.3375    2.3459 H         1 <0>         0.1203
     40 H16         2.4382    0.4741   -0.8643 H         1 <0>         0.4135
     41 H17         0.9486   -0.6907   -3.8255 H         1 <0>         0.1488
     42 H18         2.1501   -1.6302   -5.7514 H         1 <0>         0.1435
     43 H19         5.7641   -1.7223   -3.4390 H         1 <0>         0.1297
     44 H20         4.5550   -0.7746   -1.5219 H         1 <0>         0.1352
     45 H21         6.5447   -2.4176   -4.9437 H         1 <0>         0.4070
     46 H22         7.7078   -3.2964   -6.7160 H         1 <0>         0.3891
@<TRIPOS>BOND
     1    1    2 1
     2    1   25 1
     3    1   26 1
     4    1   27 1
     5    2    3 1
     6    2    4 1
     7    2   12 1
     8    3   28 1
     9    3   29 1
    10    3   30 1
    11    4    5 1
    12    4   31 1
    13    4   32 1
    14    5    6 1
    15    5   33 1
    16    5   34 1
    17    6   11 ar
    18    6    7 ar
    19    7    8 ar
    20    7   35 1
    21    8    9 ar
    22    8   36 1
    23    9   10 ar
    24    9   37 1
    25   10   11 ar
    26   10   38 1
    27   11   39 1
    28   12   13 2
    29   12   14 am
    30   14   15 1
    31   14   40 1
    32   15   20 ar
    33   15   16 ar
    34   16   17 ar
    35   16   41 1
    36   17   18 ar
    37   17   42 1
    38   18   19 ar
    39   18   21 1
    40   19   20 ar
    41   19   43 1
    42   20   44 1
    43   21   22 2
    44   21   23 am
    45   23   24 1
    46   23   45 1
    47   24   46 1
@<TRIPOS>MOLECULE
CHEMBL1095972
   63    66     0     0     0
SMALL
USER_CHARGES

@<TRIPOS>ATOM
      1 C1          0.0048    1.4993   -0.1352 C.3       1 <0>        -0.0723
      2 C2          0.0119   -0.0058   -0.0604 C.2       1 <0>         0.0163
      3 C3         -0.0062   -0.8483   -1.1133 C.2       1 <0>        -0.0029
      4 N1          0.0087   -2.1207   -0.6088 N.pl3     1 <0>        -0.4422
      5 C4          0.0358   -2.0106    0.7506 C.2       1 <0>         0.2394
      6 N2          0.0432   -0.7336    1.0618 N.2       1 <0>        -0.4631
      7 C5          0.0594   -3.1361    1.7104 C.ar      1 <0>        -0.0071
      8 C6          0.4922   -4.3985    1.2977 C.ar      1 <0>        -0.1198
      9 C7          0.5150   -5.4515    2.1911 C.ar      1 <0>        -0.1152
     10 C8          0.1113   -5.2656    3.4978 C.ar      1 <0>        -0.0912
     11 C9         -0.3242   -4.0068    3.9255 C.ar      1 <0>        -0.0732
     12 C10        -0.3442   -2.9377    3.0278 C.ar      1 <0>        -0.0499
     13 C11        -0.7552   -3.8089    5.3193 C.2       1 <0>        -0.0023
     14 C12        -0.7306   -4.8414    6.1855 C.2       1 <0>        -0.2082
     15 C13        -1.1593   -4.6445    7.5718 C.2       1 <0>         0.5603
     16 O1         -1.5378   -3.5487    7.9418 O.2       1 <0>        -0.5225
     17 N3         -1.1348   -5.6769    8.4378 N.am      1 <0>        -0.5936
     18 O2         -1.5493   -5.4865    9.7783 O.3       1 <0>        -0.3155
     19 C14        -0.0023   -3.3649   -1.3822 C.3       1 <0>         0.0931
     20 C15         1.4289   -3.7300   -1.7812 C.3       1 <0>         0.0354
     21 N4          1.4179   -4.9776   -2.5567 N.3       1 <0>        -0.5315
     22 C16         0.9939   -6.1121   -1.7235 C.3       1 <0>         0.0062
     23 C17         0.9391   -7.3775   -2.5835 C.3       1 <0>         0.0640
     24 O3          2.2185   -7.5953   -3.1843 O.3       1 <0>        -0.3825
     25 C18         2.6622   -6.5101   -4.0034 C.3       1 <0>         0.0635
     26 C19         2.7345   -5.2359   -3.1578 C.3       1 <0>         0.0184
     27 C20        -0.0371   -0.4620   -2.5696 C.3       1 <0>        -0.0054
     28 C21        -1.4680   -0.3380   -3.0261 C.ar      1 <0>        -0.0802
     29 C22        -2.1284   -1.4397   -3.5372 C.ar      1 <0>        -0.1177
     30 C23        -3.4408   -1.3259   -3.9559 C.ar      1 <0>        -0.1166
     31 C24        -4.0930   -0.1106   -3.8633 C.ar      1 <0>        -0.1204
     32 C25        -3.4329    0.9908   -3.3514 C.ar      1 <0>        -0.1155
     33 C26        -2.1218    0.8760   -2.9287 C.ar      1 <0>        -0.1101
     34 H1          1.0304    1.8658   -0.1792 H         1 <0>         0.0696
     35 H2         -0.5328    1.8161   -1.0290 H         1 <0>         0.0693
     36 H3         -0.4884    1.9047    0.7482 H         1 <0>         0.0729
     37 H4          0.8096   -4.5517    0.2769 H         1 <0>         0.1304
     38 H5          0.8500   -6.4252    1.8656 H         1 <0>         0.1317
     39 H6          0.1313   -6.0934    4.1912 H         1 <0>         0.1328
     40 H7         -0.6751   -1.9623    3.3528 H         1 <0>         0.1431
     41 H8         -1.0911   -2.8364    5.6478 H         1 <0>         0.1425
     42 H9         -0.3948   -5.8139    5.8571 H         1 <0>         0.1351
     43 H10        -0.8331   -6.5504    8.1428 H         1 <0>         0.4094
     44 H11        -1.4966   -6.2836   10.3233 H         1 <0>         0.3888
     45 H12        -0.4260   -4.1657   -0.7762 H         1 <0>         0.1011
     46 H13        -0.6063   -3.2296   -2.2794 H         1 <0>         0.1044
     47 H14         1.8527   -2.9292   -2.3872 H         1 <0>         0.0891
     48 H15         2.0330   -3.8652   -0.8840 H         1 <0>         0.0492
     49 H16         1.7074   -6.2543   -0.9119 H         1 <0>         0.0494
     50 H17         0.0060   -5.9104   -1.3094 H         1 <0>         0.0872
     51 H18         0.6806   -8.2319   -1.9579 H         1 <0>         0.1014
     52 H19         0.1870   -7.2556   -3.3630 H         1 <0>         0.0626
     53 H20         3.6499   -6.7372   -4.4047 H         1 <0>         0.1017
     54 H21         1.9602   -6.3629   -4.8241 H         1 <0>         0.0626
     55 H22         3.0171   -4.3947   -3.7906 H         1 <0>         0.0900
     56 H23         3.4758   -5.3641   -2.3690 H         1 <0>         0.0475
     57 H24         0.4709    0.4930   -2.7030 H         1 <0>         0.0995
     58 H25         0.4673   -1.2275   -3.1593 H         1 <0>         0.0811
     59 H26        -1.6188   -2.3891   -3.6095 H         1 <0>         0.1171
     60 H27        -3.9566   -2.1864   -4.3558 H         1 <0>         0.1218
     61 H28        -5.1182   -0.0215   -4.1911 H         1 <0>         0.1221
     62 H29        -3.9423    1.9404   -3.2794 H         1 <0>         0.1237
     63 H30        -1.6072    1.7356   -2.5253 H         1 <0>         0.1248
@<TRIPOS>BOND
     1    1    2 1
     2    1   34 1
     3    1   35 1
     4    1   36 1
     5    2    6 1
     6    2    3 2
     7    3    4 1
     8    3   27 1
     9    4    5 1
    10    4   19 1
    11    5    6 2
    12    5    7 1
    13    7   12 ar
    14    7    8 ar
    15    8    9 ar
    16    8   37 1
    17    9   10 ar
    18    9   38 1
    19   10   11 ar
    20   10   39 1
    21   11   12 ar
    22   11   13 1
    23   12   40 1
    24   13   14 2
    25   13   41 1
    26   14   15 1
    27   14   42 1
    28   15   16 2
    29   15   17 am
    30   17   18 1
    31   17   43 1
    32   18   44 1
    33   19   20 1
    34   19   45 1
    35   19   46 1
    36   20   21 1
    37   20   47 1
    38   20   48 1
    39   21   26 1
    40   21   22 1
    41   22   23 1
    42   22   49 1
    43   22   50 1
    44   23   24 1
    45   23   51 1
    46   23   52 1
    47   24   25 1
    48   25   26 1
    49   25   53 1
    50   25   54 1
    51   26   55 1
    52   26   56 1
    53   27   28 1
    54   27   57 1
    55   27   58 1
    56   28   33 ar
    57   28   29 ar
    58   29   30 ar
    59   29   59 1
    60   30   31 ar
    61   30   60 1
    62   31   32 ar
    63   31   61 1
    64   32   33 ar
    65   32   62 1
    66   33   63 1
@<TRIPOS>MOLECULE
CHEMBL1095972__1
   64    67     0     0     0
SMALL
USER_CHARGES

@<TRIPOS>ATOM
      1 C1         -0.2490    1.4895   -0.0074 C.3       1 <0>        -0.1044
      2 C2         -0.0962   -0.0097   -0.0055 C.2       1 <0>         0.0438
      3 C3          0.1124   -0.7830   -1.0906 C.2       1 <0>         0.0680
      4 N1          0.1919   -2.0770   -0.6513 N.pl3     1 <0>        -0.3930
      5 C4          0.0272   -2.0496    0.7025 C.cat     1 <0>         0.3591
      6 N2         -0.1388   -0.7996    1.0735 N.pl3     1 <0>        -0.4680
      7 C5          0.0397   -3.2251    1.6005 C.ar      1 <0>        -0.0851
      8 C6         -0.5474   -4.4246    1.1910 C.ar      1 <0>        -0.0777
      9 C7         -0.5379   -5.5238    2.0271 C.ar      1 <0>        -0.1016
     10 C8          0.0516   -5.4468    3.2727 C.ar      1 <0>        -0.0607
     11 C9          0.6439   -4.2523    3.6962 C.ar      1 <0>        -0.0503
     12 C10         0.6417   -3.1396    2.8527 C.ar      1 <0>        -0.0570
     13 C11         1.2723   -4.1702    5.0252 C.2       1 <0>        -0.0363
     14 C12         1.2773   -5.2471    5.8360 C.2       1 <0>        -0.1717
     15 C13         1.9022   -5.1654    7.1577 C.2       1 <0>         0.5548
     16 O1          2.4170   -4.1254    7.5242 O.2       1 <0>        -0.5176
     17 N3          1.9073   -6.2421    7.9684 N.am      1 <0>        -0.5888
     18 O2          2.5116   -6.1632    9.2466 O.3       1 <0>        -0.3107
     19 C14         0.4121   -3.2659   -1.4784 C.3       1 <0>         0.0793
     20 C15         1.9129   -3.4588   -1.7050 C.3       1 <0>         0.0379
     21 N4          2.1337   -4.6510   -2.5344 N.3       1 <0>        -0.5300
     22 C16         1.7350   -5.8718   -1.8188 C.3       1 <0>         0.0095
     23 C17         1.9251   -7.0809   -2.7384 C.3       1 <0>         0.0619
     24 O3          3.2853   -7.1305   -3.1775 O.3       1 <0>        -0.3786
     25 C18         3.7069   -5.9576   -3.8788 C.3       1 <0>         0.0616
     26 C19         3.5349   -4.7370   -2.9708 C.3       1 <0>         0.0192
     27 C20         0.2349   -0.3116   -2.5167 C.3       1 <0>        -0.0166
     28 C21        -1.1280   -0.2971   -3.1598 C.ar      1 <0>        -0.1046
     29 C22        -1.5974   -1.4230   -3.8100 C.ar      1 <0>        -0.1152
     30 C23        -2.8476   -1.4097   -4.3998 C.ar      1 <0>        -0.1117
     31 C24        -3.6284   -0.2706   -4.3391 C.ar      1 <0>        -0.1061
     32 C25        -3.1593    0.8550   -3.6881 C.ar      1 <0>        -0.1113
     33 C26        -1.9109    0.8403   -3.0945 C.ar      1 <0>        -0.1092
     34 H1          0.7300    1.9546    0.1085 H         1 <0>         0.1034
     35 H2         -0.6933    1.8083   -0.9503 H         1 <0>         0.1056
     36 H3         -0.8940    1.7900    0.8182 H         1 <0>         0.0940
     37 H4         -1.0106   -4.4925    0.2178 H         1 <0>         0.1372
     38 H5         -0.9942   -6.4481    1.7048 H         1 <0>         0.1504
     39 H6          0.0552   -6.3100    3.9217 H         1 <0>         0.1474
     40 H7          1.1012   -2.2158    3.1719 H         1 <0>         0.1410
     41 H8          1.7291   -3.2472    5.3505 H         1 <0>         0.1470
     42 H9          0.8205   -6.1701    5.5107 H         1 <0>         0.1388
     43 H10         1.4970   -7.0711    7.6763 H         1 <0>         0.4111
     44 H11         2.4656   -6.9846    9.7548 H         1 <0>         0.3941
     45 H12         0.0057   -4.1413   -0.9718 H         1 <0>         0.1218
     46 H13        -0.0869   -3.1378   -2.4390 H         1 <0>         0.1327
     47 H14         2.3193   -2.5834   -2.2116 H         1 <0>         0.0938
     48 H15         2.4118   -3.5869   -0.7444 H         1 <0>         0.0529
     49 H16         2.3533   -5.9904   -0.9290 H         1 <0>         0.0517
     50 H17         0.6873   -5.7972   -1.5275 H         1 <0>         0.0831
     51 H18         1.6850   -7.9939   -2.1935 H         1 <0>         0.1038
     52 H19         1.2669   -6.9882   -3.6023 H         1 <0>         0.0645
     53 H20         4.7556   -6.0581   -4.1587 H         1 <0>         0.1063
     54 H21         3.1006   -5.8322   -4.7759 H         1 <0>         0.0654
     55 H22         3.8011   -3.8341   -3.5203 H         1 <0>         0.0931
     56 H23         4.1820   -4.8376   -2.0994 H         1 <0>         0.0510
     57 H24         0.6546    0.6942   -2.5322 H         1 <0>         0.1212
     58 H25         0.8894   -0.9870   -3.0677 H         1 <0>         0.1052
     59 H26        -0.9874   -2.3130   -3.8574 H         1 <0>         0.1201
     60 H27        -3.2141   -2.2892   -4.9084 H         1 <0>         0.1289
     61 H28        -4.6048   -0.2600   -4.8005 H         1 <0>         0.1294
     62 H29        -3.7692    1.7450   -3.6409 H         1 <0>         0.1301
     63 H30        -1.5460    1.7185   -2.5827 H         1 <0>         0.1260
     64 H31        -0.2736   -0.4977    1.9854 H         1 <0>         0.4603
@<TRIPOS>BOND
     1    1    2 1
     2    1   34 1
     3    1   35 1
     4    1   36 1
     5    2    6 1
     6    2    3 2
     7    3    4 1
     8    3   27 1
     9    4    5 1
    10    4   19 1
    11    5    6 2
    12    5    7 1
    13    6   64 1
    14    7   12 ar
    15    7    8 ar
    16    8    9 ar
    17    8   37 1
    18    9   10 ar
    19    9   38 1
    20   10   11 ar
    21   10   39 1
    22   11   12 ar
    23   11   13 1
    24   12   40 1
    25   13   14 2
    26   13   41 1
    27   14   15 1
    28   14   42 1
    29   15   16 2
    30   15   17 am
    31   17   18 1
    32   17   43 1
    33   18   44 1
    34   19   20 1
    35   19   45 1
    36   19   46 1
    37   20   21 1
    38   20   47 1
    39   20   48 1
    40   21   26 1
    41   21   22 1
    42   22   23 1
    43   22   49 1
    44   22   50 1
    45   23   24 1
    46   23   51 1
    47   23   52 1
    48   24   25 1
    49   25   26 1
    50   25   53 1
    51   25   54 1
    52   26   55 1
    53   26   56 1
    54   27   28 1
    55   27   57 1
    56   27   58 1
    57   28   33 ar
    58   28   29 ar
    59   29   30 ar
    60   29   59 1
    61   30   31 ar
    62   30   60 1
    63   31   32 ar
    64   31   61 1
    65   32   33 ar
    66   32   62 1
    67   33   63 1
@<TRIPOS>MOLECULE
CHEMBL191227
   31    32     0     0     0
SMALL
USER_CHARGES

@<TRIPOS>ATOM
      1 C1         -0.0938    1.2543   -0.5541 C.ar      1 <0>        -0.0877
      2 C2          1.0042    1.8271   -1.1710 C.ar      1 <0>        -0.1258
      3 C3          2.2109    1.1591   -1.1972 C.ar      1 <0>        -0.0550
      4 C4          2.3227   -0.0973   -0.5992 C.ar      1 <0>        -0.1414
      5 C5          1.2111   -0.6692    0.0219 C.ar      1 <0>        -0.0855
      6 C6          0.0101    0.0093    0.0405 C.ar      1 <0>        -0.1264
      7 C7          3.6124   -0.8190   -0.6239 C.2       1 <0>         0.5618
      8 O1          4.5786   -0.3187   -1.1658 O.2       1 <0>        -0.5082
      9 N1          3.7170   -2.0319   -0.0456 N.am      1 <0>        -0.6708
     10 C8          4.9039   -2.7543   -0.1516 C.ar      1 <0>         0.1763
     11 C9          6.1252   -2.0873   -0.1487 C.ar      1 <0>        -0.1269
     12 C10         7.2995   -2.7980   -0.2532 C.ar      1 <0>        -0.0322
     13 C11         7.2642   -4.1909   -0.3619 C.ar      1 <0>        -0.1435
     14 C12         6.0360   -4.8577   -0.3641 C.ar      1 <0>        -0.0664
     15 C13         4.8655   -4.1415   -0.2543 C.ar      1 <0>        -0.1509
     16 C14         8.5213   -4.9559   -0.4747 C.2       1 <0>         0.5738
     17 O2          9.5891   -4.3744   -0.4731 O.2       1 <0>        -0.5149
     18 N2          8.4856   -6.2991   -0.5794 N.am      1 <0>        -0.5945
     19 O3          9.6917   -7.0332   -0.6876 O.3       1 <0>        -0.3130
     20 H1         -1.0352    1.7834   -0.5327 H         1 <0>         0.1306
     21 H2          0.9164    2.7992   -1.6333 H         1 <0>         0.1335
     22 H3          3.0671    1.6070   -1.6797 H         1 <0>         0.1388
     23 H4          1.2908   -1.6411    0.4861 H         1 <0>         0.1258
     24 H5         -0.8507   -0.4320    0.5207 H         1 <0>         0.1320
     25 H6          2.9661   -2.4020    0.4444 H         1 <0>         0.4136
     26 H7          6.1518   -1.0109   -0.0647 H         1 <0>         0.1499
     27 H8          8.2470   -2.2797   -0.2516 H         1 <0>         0.1445
     28 H9          6.0054   -5.9340   -0.4479 H         1 <0>         0.1304
     29 H10         3.9162   -4.6566   -0.2518 H         1 <0>         0.1360
     30 H11         7.6337   -6.7631   -0.5807 H         1 <0>         0.4071
     31 H12         9.5653   -7.9893   -0.7580 H         1 <0>         0.3891
@<TRIPOS>BOND
     1    1    6 ar
     2    1    2 ar
     3    1   20 1
     4    2    3 ar
     5    2   21 1
     6    3    4 ar
     7    3   22 1
     8    4    5 ar
     9    4    7 1
    10    5    6 ar
    11    5   23 1
    12    6   24 1
    13    7    8 2
    14    7    9 am
    15    9   10 1
    16    9   25 1
    17   10   15 ar
    18   10   11 ar
    19   11   12 ar
    20   11   26 1
    21   12   13 ar
    22   12   27 1
    23   13   14 ar
    24   13   16 1
    25   14   15 ar
    26   14   28 1
    27   15   29 1
    28   16   17 2
    29   16   18 am
    30   18   19 1
    31   18   30 1
    32   19   31 1
@<TRIPOS>MOLECULE
CHEMBL388174
   44    45     0     0     0
SMALL
USER_CHARGES

@<TRIPOS>ATOM
      1 C1         -0.0167    1.3781    0.0096 C.ar      1 <0>        -0.1251
      2 C2          1.1709    2.0855    0.0021 C.ar      1 <0>        -0.1187
      3 C3          2.3773    1.4107   -0.0130 C.ar      1 <0>        -0.1184
      4 C4          2.3960    0.0285   -0.0201 C.ar      1 <0>        -0.0814
      5 C5          1.2084   -0.6789   -0.0117 C.ar      1 <0>        -0.1170
      6 C6          0.0021   -0.0041    0.0020 C.ar      1 <0>        -0.1178
      7 C7          3.7112   -0.7071   -0.0376 C.3       1 <0>        -0.0789
      8 C8          4.1714   -0.9633    1.3989 C.3       1 <0>        -0.1262
      9 C9          5.5066   -1.7102    1.3812 C.3       1 <0>         0.1131
     10 N1          5.9472   -1.9554    2.7567 N.am      1 <0>        -0.6131
     11 C10         6.7811   -0.9670    3.4423 C.3       1 <0>         0.1122
     12 C11         6.3697   -0.8564    4.9090 C.3       1 <0>        -0.1190
     13 C12         6.2974   -2.2253    5.5329 C.2       1 <0>        -0.0896
     14 C13         5.9123   -3.2709    4.8082 C.2       1 <0>        -0.1661
     15 C14         5.5789   -3.0868    3.3873 C.2       1 <0>         0.5534
     16 O1          4.9767   -3.9544    2.7842 O.2       1 <0>        -0.5306
     17 C15         5.8136   -4.6355    5.4402 C.3       1 <0>        -0.0501
     18 C16         4.3740   -4.8842    5.8946 C.3       1 <0>        -0.1201
     19 C17         4.2754   -6.2487    6.5266 C.2       1 <0>         0.5252
     20 O2          5.2597   -6.9530    6.6057 O.2       1 <0>        -0.5190
     21 N2          3.0935   -6.6865    7.0038 N.am      1 <0>        -0.5992
     22 O3          3.0008   -7.9687    7.5976 O.3       1 <0>        -0.3197
     23 H1         -0.9591    1.9053    0.0259 H         1 <0>         0.1209
     24 H2          1.1563    3.1654    0.0076 H         1 <0>         0.1214
     25 H3          3.3051    1.9634   -0.0196 H         1 <0>         0.1204
     26 H4          1.2231   -1.7588   -0.0176 H         1 <0>         0.1213
     27 H5         -0.9258   -0.5567    0.0082 H         1 <0>         0.1216
     28 H6          3.5884   -1.6586   -0.5549 H         1 <0>         0.0759
     29 H7          4.4573   -0.1052   -0.5563 H         1 <0>         0.0744
     30 H8          4.2941   -0.0118    1.9163 H         1 <0>         0.0647
     31 H9          3.4252   -1.5652    1.9176 H         1 <0>         0.0675
     32 H10         5.3838   -2.6617    0.8639 H         1 <0>         0.0887
     33 H11         6.2527   -1.1082    0.8625 H         1 <0>         0.0792
     34 H12         7.8258   -1.2719    3.3822 H         1 <0>         0.0699
     35 H13         6.6619    0.0031    2.9597 H         1 <0>         0.0885
     36 H14         7.1025   -0.2533    5.4451 H         1 <0>         0.0984
     37 H15         5.3929   -0.3773    4.9750 H         1 <0>         0.0895
     38 H16         6.5589   -2.3576    6.5724 H         1 <0>         0.1317
     39 H17         6.1013   -5.3945    4.7126 H         1 <0>         0.0876
     40 H18         6.4803   -4.6862    6.3010 H         1 <0>         0.0854
     41 H19         4.0864   -4.1252    6.6222 H         1 <0>         0.0978
     42 H20         3.7074   -4.8334    5.0338 H         1 <0>         0.1057
     43 H21         2.3063   -6.1233    6.9406 H         1 <0>         0.4082
     44 H22         2.1139   -8.1943    7.9099 H         1 <0>         0.3875
@<TRIPOS>BOND
     1    1    6 ar
     2    1    2 ar
     3    1   23 1
     4    2    3 ar
     5    2   24 1
     6    3    4 ar
     7    3   25 1
     8    4    5 ar
     9    4    7 1
    10    5    6 ar
    11    5   26 1
    12    6   27 1
    13    7    8 1
    14    7   28 1
    15    7   29 1
    16    8    9 1
    17    8   30 1
    18    8   31 1
    19    9   10 1
    20    9   32 1
    21    9   33 1
    22   10   15 am
    23   10   11 1
    24   11   12 1
    25   11   34 1
    26   11   35 1
    27   12   13 1
    28   12   36 1
    29   12   37 1
    30   13   14 2
    31   13   38 1
    32   14   15 1
    33   14   17 1
    34   15   16 2
    35   17   18 1
    36   17   39 1
    37   17   40 1
    38   18   19 1
    39   18   41 1
    40   18   42 1
    41   19   20 2
    42   19   21 am
    43   21   22 1
    44   21   43 1
    45   22   44 1
@<TRIPOS>MOLECULE
CHEMBL192870
   42    43     0     0     0
SMALL
USER_CHARGES

@<TRIPOS>ATOM
      1 C1         -0.0069    1.4603    0.0085 C.3       1 <0>         0.0592
      2 N1          0.0027   -0.0047    0.0019 N.pl3     1 <0>        -0.4226
      3 C2         -0.0932   -0.7791   -1.0936 C.2       1 <0>         0.0649
      4 C3         -0.0472   -2.1062   -0.6959 C.2       1 <0>        -0.1815
      5 C4          0.0830   -2.1126    0.7125 C.2       1 <0>        -0.1080
      6 C5          0.1173   -0.8072    1.1168 C.2       1 <0>        -0.0033
      7 C6          0.2455   -0.3556    2.4552 C.2       1 <0>         0.0316
      8 C7          0.4542   -1.2473    3.4541 C.2       1 <0>        -0.2246
      9 C8          0.4723   -0.8103    4.8010 C.2       1 <0>         0.5676
     10 O1          0.3004    0.3668    5.0616 O.2       1 <0>        -0.5332
     11 N2          0.6798   -1.6971    5.7945 N.am      1 <0>        -0.5949
     12 O2          0.6979   -1.2601    7.1413 O.3       1 <0>        -0.3167
     13 C9         -0.1204   -3.2826   -1.5710 C.2       1 <0>         0.0418
     14 C10        -0.0626   -4.5259   -1.0396 C.2       1 <0>        -0.2595
     15 C11        -0.1331   -5.6609   -1.8839 C.2       1 <0>         0.4246
     16 O3         -0.2459   -5.5180   -3.0883 O.2       1 <0>        -0.4536
     17 C12        -0.0700   -7.0176   -1.3040 C.ar      1 <0>        -0.1955
     18 C13         0.0534   -7.1861    0.0773 C.ar      1 <0>        -0.0377
     19 C14         0.1113   -8.4546    0.6122 C.ar      1 <0>        -0.1729
     20 C15         0.0481   -9.5652   -0.2139 C.ar      1 <0>        -0.0507
     21 C16        -0.0735   -9.4128   -1.5809 C.ar      1 <0>        -0.2250
     22 C17        -0.1395   -8.1435   -2.1357 C.ar      1 <0>         0.1798
     23 O4         -0.2647   -7.9923   -3.4782 O.3       1 <0>        -0.2852
     24 C18        -0.3293   -9.1852   -4.2622 C.3       1 <0>         0.0206
     25 H1          1.0183    1.8303    0.0027 H         1 <0>         0.0845
     26 H2         -0.5296    1.8242   -0.8760 H         1 <0>         0.0947
     27 H3         -0.5166    1.8162    0.9039 H         1 <0>         0.0914
     28 H4         -0.1902   -0.4269   -2.1100 H         1 <0>         0.1798
     29 H5          0.1475   -2.9837    1.3477 H         1 <0>         0.1504
     30 H6          0.1768    0.6989    2.6782 H         1 <0>         0.1352
     31 H7          0.6066   -2.2912    3.2231 H         1 <0>         0.1343
     32 H8          0.8167   -2.6346    5.5869 H         1 <0>         0.4095
     33 H9          0.8535   -1.9673    7.7822 H         1 <0>         0.3883
     34 H10        -0.2203   -3.1559   -2.6388 H         1 <0>         0.1328
     35 H11         0.0374   -4.6526    0.0283 H         1 <0>         0.1273
     36 H12         0.1038   -6.3233    0.7249 H         1 <0>         0.1376
     37 H13         0.2068   -8.5839    1.6802 H         1 <0>         0.1297
     38 H14         0.0945  -10.5558    0.2138 H         1 <0>         0.1291
     39 H15        -0.1215  -10.2832   -2.2184 H         1 <0>         0.1334
     40 H16         0.5818   -9.7655   -4.1165 H         1 <0>         0.0566
     41 H17        -1.1905   -9.7773   -3.9526 H         1 <0>         0.0566
     42 H18        -0.4285   -8.9229   -5.3155 H         1 <0>         0.1035
@<TRIPOS>BOND
     1    1    2 1
     2    1   25 1
     3    1   26 1
     4    1   27 1
     5    2    6 1
     6    2    3 1
     7    3    4 2
     8    3   28 1
     9    4    5 1
    10    4   13 1
    11    5    6 2
    12    5   29 1
    13    6    7 1
    14    7    8 2
    15    7   30 1
    16    8    9 1
    17    8   31 1
    18    9   10 2
    19    9   11 am
    20   11   12 1
    21   11   32 1
    22   12   33 1
    23   13   14 2
    24   13   34 1
    25   14   15 1
    26   14   35 1
    27   15   16 2
    28   15   17 1
    29   17   22 ar
    30   17   18 ar
    31   18   19 ar
    32   18   36 1
    33   19   20 ar
    34   19   37 1
    35   20   21 ar
    36   20   38 1
    37   21   22 ar
    38   21   39 1
    39   22   23 1
    40   23   24 1
    41   24   40 1
    42   24   41 1
    43   24   42 1
@<TRIPOS>MOLECULE
CHEMBL483893
   62    64     0     0     0
SMALL
USER_CHARGES

@<TRIPOS>ATOM
      1 C1          0.0041    1.3795    0.1744 C.ar      1 <0>        -0.0969
      2 C2          1.1746    2.0883   -0.0114 C.ar      1 <0>        -0.1217
      3 C3          2.3769    1.4108   -0.2026 C.ar      1 <0>         0.0116
      4 C4          2.3945    0.0187   -0.2058 C.ar      1 <0>        -0.0936
      5 C5          1.2152   -0.6860   -0.0186 C.ar      1 <0>         0.1478
      6 C6          0.0205   -0.0021    0.1715 C.ar      1 <0>        -0.1418
      7 N1          1.2280   -2.0853   -0.0214 N.am      1 <0>        -0.6782
      8 C7          2.2978   -2.7504    0.4577 C.2       1 <0>         0.5093
      9 O1          3.2078   -2.1406    0.9784 O.2       1 <0>        -0.5104
     10 C8          2.3634   -4.2519    0.3464 C.3       1 <0>        -0.1393
     11 C9          3.6715   -4.7523    0.9623 C.3       1 <0>        -0.1061
     12 C10         3.7381   -6.2766    0.8494 C.3       1 <0>        -0.1200
     13 C11         5.0462   -6.7770    1.4653 C.3       1 <0>        -0.1201
     14 C12         5.1128   -8.3014    1.3523 C.3       1 <0>        -0.1059
     15 C13         6.4209   -8.8018    1.9682 C.3       1 <0>        -0.1273
     16 C14         6.4865  -10.3032    1.8569 C.2       1 <0>         0.5214
     17 O2          5.5766  -10.9130    1.3363 O.2       1 <0>        -0.5196
     18 N2          7.5564  -10.9684    2.3360 N.am      1 <0>        -0.6003
     19 O3          7.6180  -12.3792    2.2315 O.3       1 <0>        -0.3210
     20 C15         3.6360    2.1713   -0.4030 C.2       1 <0>         0.0213
     21 C16         3.7970    3.5245   -0.3269 C.2       1 <0>        -0.0415
     22 N3          5.1041    3.7601   -0.5798 N.pl3     1 <0>        -0.2901
     23 N4          5.6882    2.6338   -0.7926 N.2       1 <0>        -0.0545
     24 N5          4.8485    1.6650   -0.6903 N.2       1 <0>        -0.2529
     25 C17         5.7469    5.0763   -0.6074 C.3       1 <0>         0.0855
     26 C18         6.9349    5.0840    0.3568 C.3       1 <0>         0.1444
     27 C19         7.5207    6.4710    0.4211 C.ar      1 <0>        -0.1184
     28 C20         8.3674    6.9108   -0.5796 C.ar      1 <0>        -0.0929
     29 C21         8.9050    8.1828   -0.5212 C.ar      1 <0>        -0.1066
     30 C22         8.5963    9.0159    0.5379 C.ar      1 <0>        -0.0833
     31 C23         7.7491    8.5766    1.5389 C.ar      1 <0>        -0.0881
     32 C24         7.2070    7.3052    1.4773 C.ar      1 <0>        -0.0763
     33 Br1         7.3269    9.7155    2.9882 Br        1 <0>        -0.0413
     34 O4          7.9294    4.1678   -0.1054 O.3       1 <0>        -0.5273
     35 H1         -0.9261    1.9066    0.3269 H         1 <0>         0.1312
     36 H2          1.1579    3.1682   -0.0088 H         1 <0>         0.1247
     37 H3          3.3241   -0.5108   -0.3540 H         1 <0>         0.1451
     38 H4         -0.8975   -0.5520    0.3176 H         1 <0>         0.1274
     39 H5          0.4668   -2.5765   -0.3682 H         1 <0>         0.4120
     40 H6          1.5198   -4.6928    0.8774 H         1 <0>         0.0966
     41 H7          2.3225   -4.5405   -0.7039 H         1 <0>         0.0982
     42 H8          4.5152   -4.3114    0.4313 H         1 <0>         0.0723
     43 H9          3.7124   -4.4636    2.0126 H         1 <0>         0.0710
     44 H10         2.8945   -6.7175    1.3804 H         1 <0>         0.0646
     45 H11         3.6973   -6.5653   -0.2009 H         1 <0>         0.0650
     46 H12         5.8899   -6.3361    0.9342 H         1 <0>         0.0659
     47 H13         5.0871   -6.4884    2.5156 H         1 <0>         0.0653
     48 H14         4.2692   -8.7423    1.8833 H         1 <0>         0.0726
     49 H15         5.0720   -8.5900    0.3020 H         1 <0>         0.0728
     50 H16         7.2646   -8.3609    1.4372 H         1 <0>         0.0997
     51 H17         6.4618   -8.5132    3.0185 H         1 <0>         0.0995
     52 H18         8.2841  -10.4807    2.7524 H         1 <0>         0.4083
     53 H19         8.4226  -12.7663    2.6027 H         1 <0>         0.3875
     54 H20         3.0349    4.2582   -0.1092 H         1 <0>         0.1927
     55 H21         6.0974    5.2884   -1.6175 H         1 <0>         0.1075
     56 H22         5.0284    5.8380   -0.3047 H         1 <0>         0.1189
     57 H23         6.5989    4.7851    1.3497 H         1 <0>         0.1173
     58 H24         8.6090    6.2600   -1.4070 H         1 <0>         0.1310
     59 H25         9.5666    8.5258   -1.3029 H         1 <0>         0.1377
     60 H26         9.0170   10.0095    0.5838 H         1 <0>         0.1369
     61 H27         6.5424    6.9631    2.2568 H         1 <0>         0.1360
     62 H28         8.2746    4.3728   -0.9851 H         1 <0>         0.3767
@<TRIPOS>BOND
     1    1    6 ar
     2    1    2 ar
     3    1   35 1
     4    2    3 ar
     5    2   36 1
     6    3    4 ar
     7    3   20 1
     8    4    5 ar
     9    4   37 1
    10    5    6 ar
    11    5    7 1
    12    6   38 1
    13    7    8 am
    14    7   39 1
    15    8    9 2
    16    8   10 1
    17   10   11 1
    18   10   40 1
    19   10   41 1
    20   11   12 1
    21   11   42 1
    22   11   43 1
    23   12   13 1
    24   12   44 1
    25   12   45 1
    26   13   14 1
    27   13   46 1
    28   13   47 1
    29   14   15 1
    30   14   48 1
    31   14   49 1
    32   15   16 1
    33   15   50 1
    34   15   51 1
    35   16   17 2
    36   16   18 am
    37   18   19 1
    38   18   52 1
    39   19   53 1
    40   20   24 1
    41   20   21 2
    42   21   22 1
    43   21   54 1
    44   22   23 1
    45   22   25 1
    46   23   24 2
    47   25   26 1
    48   25   55 1
    49   25   56 1
    50   26   27 1
    51   26   34 1
    52   26   57 1
    53   27   32 ar
    54   27   28 ar
    55   28   29 ar
    56   28   58 1
    57   29   30 ar
    58   29   59 1
    59   30   31 ar
    60   30   60 1
    61   31   32 ar
    62   31   33 1
    63   32   61 1
    64   34   62 1
@<TRIPOS>MOLECULE
CHEMBL483893__1
   62    64     0     0     0
SMALL
USER_CHARGES

@<TRIPOS>ATOM
      1 C1          0.0041    1.3795    0.1744 C.ar      1 <0>        -0.0968
      2 C2          1.1746    2.0883   -0.0114 C.ar      1 <0>        -0.1216
      3 C3          2.3769    1.4108   -0.2026 C.ar      1 <0>         0.0120
      4 C4          2.3945    0.0187   -0.2058 C.ar      1 <0>        -0.0937
      5 C5          1.2152   -0.6860   -0.0186 C.ar      1 <0>         0.1480
      6 C6          0.0205   -0.0021    0.1715 C.ar      1 <0>        -0.1418
      7 N1          1.2280   -2.0853   -0.0214 N.am      1 <0>        -0.6783
      8 C7          2.2978   -2.7504    0.4577 C.2       1 <0>         0.5093
      9 O1          3.2078   -2.1406    0.9784 O.2       1 <0>        -0.5103
     10 C8          2.3634   -4.2519    0.3464 C.3       1 <0>        -0.1393
     11 C9          3.6715   -4.7523    0.9623 C.3       1 <0>        -0.1061
     12 C10         3.7381   -6.2766    0.8494 C.3       1 <0>        -0.1200
     13 C11         5.0462   -6.7770    1.4653 C.3       1 <0>        -0.1201
     14 C12         5.1128   -8.3014    1.3523 C.3       1 <0>        -0.1059
     15 C13         6.4209   -8.8018    1.9682 C.3       1 <0>        -0.1273
     16 C14         6.4865  -10.3032    1.8569 C.2       1 <0>         0.5214
     17 O2          5.5766  -10.9130    1.3363 O.2       1 <0>        -0.5196
     18 N2          7.5564  -10.9684    2.3360 N.am      1 <0>        -0.6003
     19 O3          7.6180  -12.3792    2.2315 O.3       1 <0>        -0.3210
     20 C15         3.6360    2.1713   -0.4030 C.2       1 <0>         0.0219
     21 C16         3.7970    3.5245   -0.3269 C.2       1 <0>        -0.0333
     22 N3          5.1041    3.7601   -0.5798 N.pl3     1 <0>        -0.2839
     23 N4          5.6882    2.6338   -0.7926 N.2       1 <0>        -0.0758
     24 N5          4.8485    1.6650   -0.6903 N.2       1 <0>        -0.2473
     25 C17         5.7469    5.0763   -0.6074 C.3       1 <0>         0.0866
     26 C18         6.9349    5.0840    0.3568 C.3       1 <0>         0.1418
     27 C19         7.6695    6.3945    0.2384 C.ar      1 <0>        -0.1185
     28 C20         7.2480    7.4914    0.9670 C.ar      1 <0>        -0.0942
     29 C21         7.9213    8.6936    0.8588 C.ar      1 <0>        -0.1071
     30 C22         9.0165    8.7998    0.0220 C.ar      1 <0>        -0.0833
     31 C23         9.4388    7.7028   -0.7066 C.ar      1 <0>        -0.0876
     32 C24         8.7677    6.4982   -0.5940 C.ar      1 <0>        -0.0750
     33 Br1        10.9365    7.8476   -1.8520 Br        1 <0>        -0.0403
     34 O4          6.4627    4.9219    1.6957 O.3       1 <0>        -0.5391
     35 H1         -0.9261    1.9066    0.3269 H         1 <0>         0.1312
     36 H2          1.1579    3.1682   -0.0088 H         1 <0>         0.1246
     37 H3          3.3241   -0.5108   -0.3540 H         1 <0>         0.1449
     38 H4         -0.8975   -0.5520    0.3176 H         1 <0>         0.1275
     39 H5          0.4668   -2.5765   -0.3682 H         1 <0>         0.4120
     40 H6          1.5198   -4.6928    0.8774 H         1 <0>         0.0966
     41 H7          2.3225   -4.5405   -0.7039 H         1 <0>         0.0982
     42 H8          4.5152   -4.3114    0.4313 H         1 <0>         0.0722
     43 H9          3.7124   -4.4636    2.0126 H         1 <0>         0.0711
     44 H10         2.8945   -6.7175    1.3804 H         1 <0>         0.0646
     45 H11         3.6973   -6.5653   -0.2009 H         1 <0>         0.0650
     46 H12         5.8899   -6.3361    0.9342 H         1 <0>         0.0658
     47 H13         5.0871   -6.4884    2.5156 H         1 <0>         0.0653
     48 H14         4.2692   -8.7423    1.8833 H         1 <0>         0.0726
     49 H15         5.0720   -8.5900    0.3020 H         1 <0>         0.0728
     50 H16         7.2646   -8.3609    1.4372 H         1 <0>         0.0997
     51 H17         6.4618   -8.5132    3.0185 H         1 <0>         0.0995
     52 H18         8.2841  -10.4807    2.7524 H         1 <0>         0.4083
     53 H19         8.4226  -12.7663    2.6027 H         1 <0>         0.3875
     54 H20         3.0349    4.2582   -0.1092 H         1 <0>         0.1926
     55 H21         6.0974    5.2884   -1.6175 H         1 <0>         0.1145
     56 H22         5.0284    5.8380   -0.3047 H         1 <0>         0.1132
     57 H23         7.6101    4.2653    0.1080 H         1 <0>         0.1296
     58 H24         6.3922    7.4089    1.6206 H         1 <0>         0.1296
     59 H25         7.5916    9.5503    1.4279 H         1 <0>         0.1375
     60 H26         9.5422    9.7395   -0.0630 H         1 <0>         0.1371
     61 H27         9.0993    5.6402   -1.1600 H         1 <0>         0.1384
     62 H28         5.8555    5.6165    1.9855 H         1 <0>         0.3746
@<TRIPOS>BOND
     1    1    6 ar
     2    1    2 ar
     3    1   35 1
     4    2    3 ar
     5    2   36 1
     6    3    4 ar
     7    3   20 1
     8    4    5 ar
     9    4   37 1
    10    5    6 ar
    11    5    7 1
    12    6   38 1
    13    7    8 am
    14    7   39 1
    15    8    9 2
    16    8   10 1
    17   10   11 1
    18   10   40 1
    19   10   41 1
    20   11   12 1
    21   11   42 1
    22   11   43 1
    23   12   13 1
    24   12   44 1
    25   12   45 1
    26   13   14 1
    27   13   46 1
    28   13   47 1
    29   14   15 1
    30   14   48 1
    31   14   49 1
    32   15   16 1
    33   15   50 1
    34   15   51 1
    35   16   17 2
    36   16   18 am
    37   18   19 1
    38   18   52 1
    39   19   53 1
    40   20   24 1
    41   20   21 2
    42   21   22 1
    43   21   54 1
    44   22   23 1
    45   22   25 1
    46   23   24 2
    47   25   26 1
    48   25   55 1
    49   25   56 1
    50   26   27 1
    51   26   34 1
    52   26   57 1
    53   27   32 ar
    54   27   28 ar
    55   28   29 ar
    56   28   58 1
    57   29   30 ar
    58   29   59 1
    59   30   31 ar
    60   30   60 1
    61   31   32 ar
    62   31   33 1
    63   32   61 1
    64   34   62 1
@<TRIPOS>MOLECULE
CHEMBL1213490
   75    75     0     0     0
SMALL
USER_CHARGES

@<TRIPOS>ATOM
      1 C1         -0.1711    0.8552   -1.1734 C.3       1 <0>        -0.0799
      2 C2         -0.3598   -0.1253   -0.0446 C.2       1 <0>        -0.1282
      3 C3         -1.5027   -0.8069    0.0635 C.2       1 <0>         0.0132
      4 C4         -1.4945   -2.2792    0.1715 C.2       1 <0>         0.5405
      5 O1         -2.5364   -2.9050    0.2048 O.2       1 <0>        -0.4602
      6 N1         -0.2878   -2.9258    0.2330 N.am      1 <0>        -0.7258
      7 C5         -0.3875   -4.4004    0.3772 C.3       1 <0>         0.1588
      8 H1         -0.8194   -4.8297   -0.5268 H         1 <0>         0.1113
      9 C6         -1.2760   -4.7013    1.5573 C.2       1 <0>         0.4505
     10 O2         -0.9587   -5.5595    2.3464 O.2       1 <0>        -0.4792
     11 O3         -2.4177   -4.0191    1.7344 O.3       1 <0>        -0.2856
     12 C7         -2.9491   -3.9623    3.0591 C.3       1 <0>         0.1128
     13 H2         -2.4202   -3.1993    3.6303 H         1 <0>         0.0842
     14 C8         -4.4375   -3.6128    2.9974 C.3       1 <0>        -0.1666
     15 C9         -4.6749   -2.2847    3.6663 C.2       1 <0>         0.3682
     16 O4         -3.9606   -1.9278    4.5723 O.2       1 <0>        -0.4540
     17 C10        -5.8047   -1.4010    3.2034 C.3       1 <0>        -0.1640
     18 C11        -5.3499    0.0582    3.2076 C.3       1 <0>        -0.0986
     19 H3         -4.5573    0.1889    3.9444 H         1 <0>         0.1176
     20 C12        -4.8329    0.4330    1.8437 C.2       1 <0>         0.5420
     21 O5         -4.7350   -0.3992    0.9669 O.2       1 <0>        -0.5175
     22 N2         -4.4750    1.7367    1.6165 N.am      1 <0>        -0.7152
     23 C13        -3.9654    2.0051    0.2472 C.3       1 <0>         0.1501
     24 H4         -3.7715    3.0711    0.1284 H         1 <0>         0.1358
     25 C14        -2.6829    1.2300    0.0684 C.2       1 <0>         0.4686
     26 O6         -1.6242    1.8031   -0.0793 O.2       1 <0>        -0.4837
     27 N3         -2.7468   -0.1323    0.0828 N.am      1 <0>        -0.6092
     28 C15        -4.9960    1.5483   -0.7872 C.3       1 <0>        -0.1076
     29 S1         -6.4963    2.5561   -0.6319 S.3       1 <0>        -0.2262
     30 C16        -6.5330    0.9591    3.5676 C.3       1 <0>        -0.0839
     31 C17        -7.6825    0.7062    2.5901 C.3       1 <0>        -0.1586
     32 C18        -6.9967    0.6471    4.9919 C.3       1 <0>        -0.1519
     33 C19        -2.7750   -5.3014    3.7280 C.2       1 <0>        -0.1509
     34 C20        -2.0167   -5.4091    4.7908 C.2       1 <0>        -0.1362
     35 C21        -1.7539   -6.7645    5.3948 C.3       1 <0>        -0.0642
     36 C22        -0.2446   -6.9956    5.4920 C.3       1 <0>        -0.0545
     37 S2          0.0717   -8.6272    6.2190 S.3       1 <0>        -0.2588
     38 C23         1.0040   -4.9907    0.6144 C.3       1 <0>        -0.0902
     39 C24         1.9005   -4.6817   -0.5863 C.3       1 <0>        -0.1487
     40 C25         1.6111   -4.3743    1.8763 C.3       1 <0>        -0.1549
     41 H5         -1.1031    0.9520   -1.7302 H         1 <0>         0.0498
     42 H6          0.1123    1.8263   -0.7675 H         1 <0>         0.0790
     43 H7          0.6141    0.4964   -1.8388 H         1 <0>         0.0527
     44 H8          0.4295   -0.2766    0.6769 H         1 <0>         0.1253
     45 H9          0.5612   -2.4589    0.1861 H         1 <0>         0.4159
     46 H10        -4.7538   -3.5560    1.9559 H         1 <0>         0.1177
     47 H11        -5.0127   -4.3845    3.5090 H         1 <0>         0.1133
     48 H12        -6.0983   -1.6867    2.1933 H         1 <0>         0.1106
     49 H13        -6.6554   -1.5180    3.8748 H         1 <0>         0.1157
     50 H14        -4.5489    2.4271    2.2939 H         1 <0>         0.4242
     51 H15        -3.5916   -0.6089    0.0974 H         1 <0>         0.4333
     52 H16        -4.5819    1.6650   -1.7887 H         1 <0>         0.0980
     53 H17        -5.2428    0.5005   -0.6159 H         1 <0>         0.1231
     54 H18        -7.3162    2.0672   -1.5795 H         1 <0>         0.0936
     55 H19        -6.2266    2.0033    3.5058 H         1 <0>         0.0799
     56 H20        -8.0493   -0.3124    2.7162 H         1 <0>         0.0580
     57 H21        -8.4903    1.4105    2.7892 H         1 <0>         0.0616
     58 H22        -7.3269    0.8405    1.5685 H         1 <0>         0.0668
     59 H23        -6.2065    0.9068    5.6964 H         1 <0>         0.0597
     60 H24        -7.8908    1.2281    5.2184 H         1 <0>         0.0636
     61 H25        -7.2232   -0.4158    5.0756 H         1 <0>         0.0597
     62 H26        -3.2754   -6.1724    3.3312 H         1 <0>         0.1141
     63 H27        -1.5798   -4.5264    5.2341 H         1 <0>         0.1047
     64 H28        -2.1933   -6.8096    6.3913 H         1 <0>         0.0778
     65 H29        -2.1998   -7.5351    4.7659 H         1 <0>         0.0770
     66 H30         0.1948   -6.9505    4.4955 H         1 <0>         0.0906
     67 H31         0.2012   -6.2250    6.1208 H         1 <0>         0.0792
     68 H32         1.4134   -8.7139    6.2524 H         1 <0>         0.0892
     69 H33         0.9240   -6.0705    0.7398 H         1 <0>         0.0990
     70 H34         2.0542   -3.6049   -0.6574 H         1 <0>         0.0571
     71 H35         2.8624   -5.1784   -0.4588 H         1 <0>         0.0664
     72 H36         1.4237   -5.0417   -1.4979 H         1 <0>         0.0617
     73 H37         0.9724   -4.5944    2.7317 H         1 <0>         0.0673
     74 H38         2.6024   -4.7948    2.0453 H         1 <0>         0.0625
     75 H39         1.6911   -3.2945    1.7509 H         1 <0>         0.0525
@<TRIPOS>BOND
     1    1    2 1
     2    1   41 1
     3    1   42 1
     4    1   43 1
     5    2    3 2
     6    2   44 1
     7    3   27 1
     8    3    4 1
     9    4    5 2
    10    4    6 am
    11    6    7 1
    12    6   45 1
    13    7    8 1
    14    7    9 1
    15    7   38 1
    16    9   10 2
    17    9   11 1
    18   11   12 1
    19   12   13 1
    20   12   14 1
    21   12   33 1
    22   14   15 1
    23   14   46 1
    24   14   47 1
    25   15   16 2
    26   15   17 1
    27   17   18 1
    28   17   48 1
    29   17   49 1
    30   18   19 1
    31   18   20 1
    32   18   30 1
    33   20   21 2
    34   20   22 am
    35   22   23 1
    36   22   50 1
    37   23   24 1
    38   23   25 1
    39   23   28 1
    40   25   26 2
    41   25   27 am
    42   27   51 1
    43   28   29 1
    44   28   52 1
    45   28   53 1
    46   29   54 1
    47   30   31 1
    48   30   32 1
    49   30   55 1
    50   31   56 1
    51   31   57 1
    52   31   58 1
    53   32   59 1
    54   32   60 1
    55   32   61 1
    56   33   34 2
    57   33   62 1
    58   34   35 1
    59   34   63 1
    60   35   36 1
    61   35   64 1
    62   35   65 1
    63   36   37 1
    64   36   66 1
    65   36   67 1
    66   37   68 1
    67   38   39 1
    68   38   40 1
    69   38   69 1
    70   39   70 1
    71   39   71 1
    72   39   72 1
    73   40   73 1
    74   40   74 1
    75   40   75 1
@<TRIPOS>MOLECULE
CHEMBL126465
   49    51     0     0     0
SMALL
USER_CHARGES

@<TRIPOS>ATOM
      1 C1         -0.0167    1.3791    0.0096 C.ar      1 <0>        -0.1194
      2 C2          1.1686    2.0923    0.0021 C.ar      1 <0>        -0.1172
      3 C3          2.3774    1.4266   -0.0130 C.ar      1 <0>        -0.1118
      4 C4          2.4025    0.0329   -0.0207 C.ar      1 <0>        -0.0462
      5 C5          1.2049   -0.6804   -0.0131 C.ar      1 <0>        -0.1119
      6 C6          0.0021   -0.0041    0.0020 C.ar      1 <0>        -0.1172
      7 C7          3.6982   -0.6881   -0.0375 C.ar      1 <0>        -0.0482
      8 C8          4.8947    0.0287   -0.0398 C.ar      1 <0>        -0.1080
      9 C9          6.0983   -0.6399   -0.0558 C.ar      1 <0>        -0.1079
     10 C10         6.1208   -2.0362   -0.0693 C.ar      1 <0>        -0.0511
     11 C11         4.9223   -2.7530   -0.0665 C.ar      1 <0>        -0.1138
     12 C12         3.7197   -2.0827   -0.0452 C.ar      1 <0>        -0.1071
     13 C13         7.4114   -2.7543   -0.0870 C.2       1 <0>        -0.1264
     14 C14         7.4323   -4.0805   -0.0998 C.2       1 <0>        -0.1382
     15 C15         8.7491   -4.8133   -0.1178 C.3       1 <0>        -0.0928
     16 C16         8.8023   -5.7954    1.0541 C.3       1 <0>        -0.1161
     17 C17        10.1391   -6.5393    1.0358 C.3       1 <0>        -0.1195
     18 C18        10.1923   -7.5215    2.2077 C.3       1 <0>        -0.1150
     19 C19        11.5292   -8.2654    2.1894 C.3       1 <0>        -0.1396
     20 C20        11.5816   -9.2329    3.3437 C.2       1 <0>         0.4503
     21 O1         10.6418   -9.3189    4.1062 O.2       1 <0>        -0.4231
     22 C21        12.7680  -10.0700    3.5452 C.2       1 <0>         0.0974
     23 N1         13.8482  -10.0649    2.7942 N.2       1 <0>        -0.4197
     24 C22        14.7122  -10.9536    3.2824 C.2       1 <0>        -0.0442
     25 C23        14.1470  -11.5276    4.3720 C.2       1 <0>        -0.0392
     26 O2         12.9374  -10.9688    4.5334 O.3       1 <0>        -0.1708
     27 H1         -0.9603    1.9042    0.0260 H         1 <0>         0.1232
     28 H2          1.1480    3.1720    0.0078 H         1 <0>         0.1247
     29 H3          3.3022    1.9844   -0.0192 H         1 <0>         0.1253
     30 H4          1.2184   -1.7603   -0.0194 H         1 <0>         0.1251
     31 H5         -0.9264   -0.5557    0.0079 H         1 <0>         0.1246
     32 H6          4.8771    1.1085   -0.0293 H         1 <0>         0.1265
     33 H7          7.0246   -0.0847   -0.0583 H         1 <0>         0.1263
     34 H8          4.9387   -3.8328   -0.0770 H         1 <0>         0.1265
     35 H9          2.7928   -2.6369   -0.0386 H         1 <0>         0.1262
     36 H10         8.3381   -2.1996   -0.0895 H         1 <0>         0.1187
     37 H11         6.5057   -4.6353   -0.0973 H         1 <0>         0.1137
     38 H12         8.8475   -5.3605   -1.0553 H         1 <0>         0.0755
     39 H13         9.5651   -4.0962   -0.0283 H         1 <0>         0.0686
     40 H14         8.7038   -5.2482    1.9916 H         1 <0>         0.0651
     41 H15         7.9862   -6.5125    0.9645 H         1 <0>         0.0650
     42 H16        10.2376   -7.0866    0.0983 H         1 <0>         0.0664
     43 H17        10.9552   -5.8223    1.1254 H         1 <0>         0.0661
     44 H18        10.0939   -6.9743    3.1452 H         1 <0>         0.0719
     45 H19         9.3763   -8.2386    2.1181 H         1 <0>         0.0720
     46 H20        11.6276   -8.8127    1.2519 H         1 <0>         0.1114
     47 H21        12.3452   -7.5484    2.2790 H         1 <0>         0.1113
     48 H22        15.6894  -11.1774    2.8806 H         1 <0>         0.1961
     49 H23        14.5889  -12.2901    4.9963 H         1 <0>         0.2265
@<TRIPOS>BOND
     1    1    6 ar
     2    1    2 ar
     3    1   27 1
     4    2    3 ar
     5    2   28 1
     6    3    4 ar
     7    3   29 1
     8    4    5 ar
     9    4    7 1
    10    5    6 ar
    11    5   30 1
    12    6   31 1
    13    7   12 ar
    14    7    8 ar
    15    8    9 ar
    16    8   32 1
    17    9   10 ar
    18    9   33 1
    19   10   11 ar
    20   10   13 1
    21   11   12 ar
    22   11   34 1
    23   12   35 1
    24   13   14 2
    25   13   36 1
    26   14   15 1
    27   14   37 1
    28   15   16 1
    29   15   38 1
    30   15   39 1
    31   16   17 1
    32   16   40 1
    33   16   41 1
    34   17   18 1
    35   17   42 1
    36   17   43 1
    37   18   19 1
    38   18   44 1
    39   18   45 1
    40   19   20 1
    41   19   46 1
    42   19   47 1
    43   20   21 2
    44   20   22 1
    45   22   26 1
    46   22   23 2
    47   23   24 1
    48   24   25 2
    49   24   48 1
    50   25   26 1
    51   25   49 1
@<TRIPOS>MOLECULE
CHEMBL226224
   47    48     0     0     0
SMALL
USER_CHARGES

@<TRIPOS>ATOM
      1 C1         -0.0167    1.3781    0.0096 C.ar      1 <0>        -0.1255
      2 C2          1.1709    2.0855    0.0021 C.ar      1 <0>        -0.1177
      3 C3          2.3773    1.4107   -0.0130 C.ar      1 <0>        -0.1181
      4 C4          2.3960    0.0285   -0.0201 C.ar      1 <0>        -0.0825
      5 C5          1.2084   -0.6789   -0.0117 C.ar      1 <0>        -0.1187
      6 C6          0.0021   -0.0041    0.0020 C.ar      1 <0>        -0.1184
      7 C7          3.7112   -0.7071   -0.0376 C.3       1 <0>        -0.0796
      8 C8          4.1714   -0.9633    1.3989 C.3       1 <0>        -0.1104
      9 C9          5.5066   -1.7102    1.3812 C.3       1 <0>        -0.1329
     10 C10         5.9667   -1.9663    2.8177 C.3       1 <0>         0.1133
     11 N1          7.2452   -2.6815    2.8007 N.am      1 <0>        -0.6134
     12 C11         7.2618   -4.1450    2.7871 C.3       1 <0>         0.1121
     13 C12         8.3815   -4.6513    1.8802 C.3       1 <0>        -0.1186
     14 C13         9.6781   -3.9665    2.2238 C.2       1 <0>        -0.0900
     15 C14         9.6774   -2.7052    2.6435 C.2       1 <0>        -0.1659
     16 C15         8.4006   -1.9898    2.7921 C.2       1 <0>         0.5531
     17 O1          8.3892   -0.7795    2.9104 O.2       1 <0>        -0.5307
     18 C16        10.9772   -2.0118    2.9608 C.3       1 <0>        -0.0502
     19 C17        11.4444   -1.2198    1.7379 C.3       1 <0>        -0.1199
     20 C18        12.7442   -0.5263    2.0552 C.2       1 <0>         0.5251
     21 O2         13.2473   -0.6531    3.1514 O.2       1 <0>        -0.5189
     22 N2         13.3476    0.2347    1.1207 N.am      1 <0>        -0.5993
     23 O3         14.5689    0.8863    1.4188 O.3       1 <0>        -0.3197
     24 H1         -0.9591    1.9053    0.0259 H         1 <0>         0.1209
     25 H2          1.1563    3.1654    0.0076 H         1 <0>         0.1216
     26 H3          3.3051    1.9634   -0.0196 H         1 <0>         0.1209
     27 H4          1.2231   -1.7588   -0.0176 H         1 <0>         0.1203
     28 H5         -0.9258   -0.5567    0.0082 H         1 <0>         0.1214
     29 H6          3.5884   -1.6586   -0.5549 H         1 <0>         0.0716
     30 H7          4.4573   -0.1052   -0.5563 H         1 <0>         0.0720
     31 H8          4.2941   -0.0118    1.9163 H         1 <0>         0.0672
     32 H9          3.4252   -1.5652    1.9176 H         1 <0>         0.0655
     33 H10         5.3838   -2.6617    0.8639 H         1 <0>         0.0637
     34 H11         6.2527   -1.1082    0.8625 H         1 <0>         0.0664
     35 H12         6.0895   -1.0148    3.3350 H         1 <0>         0.0878
     36 H13         5.2206   -2.5682    3.3364 H         1 <0>         0.0782
     37 H14         7.4229   -4.5138    3.8001 H         1 <0>         0.0695
     38 H15         6.3043   -4.5136    2.4190 H         1 <0>         0.0885
     39 H16         8.4951   -5.7272    2.0129 H         1 <0>         0.0982
     40 H17         8.1269   -4.4425    0.8411 H         1 <0>         0.0895
     41 H18        10.6114   -4.5016    2.1284 H         1 <0>         0.1316
     42 H19        10.8308   -1.3316    3.7999 H         1 <0>         0.0876
     43 H20        11.7308   -2.7545    3.2223 H         1 <0>         0.0853
     44 H21        11.5908   -1.8999    0.8988 H         1 <0>         0.0979
     45 H22        10.6908   -0.4770    1.4764 H         1 <0>         0.1057
     46 H23        12.9452    0.3360    0.2440 H         1 <0>         0.4082
     47 H24        14.9249    1.4085    0.6870 H         1 <0>         0.3874
@<TRIPOS>BOND
     1    1    6 ar
     2    1    2 ar
     3    1   24 1
     4    2    3 ar
     5    2   25 1
     6    3    4 ar
     7    3   26 1
     8    4    5 ar
     9    4    7 1
    10    5    6 ar
    11    5   27 1
    12    6   28 1
    13    7    8 1
    14    7   29 1
    15    7   30 1
    16    8    9 1
    17    8   31 1
    18    8   32 1
    19    9   10 1
    20    9   33 1
    21    9   34 1
    22   10   11 1
    23   10   35 1
    24   10   36 1
    25   11   16 am
    26   11   12 1
    27   12   13 1
    28   12   37 1
    29   12   38 1
    30   13   14 1
    31   13   39 1
    32   13   40 1
    33   14   15 2
    34   14   41 1
    35   15   16 1
    36   15   18 1
    37   16   17 2
    38   18   19 1
    39   18   42 1
    40   18   43 1
    41   19   20 1
    42   19   44 1
    43   19   45 1
    44   20   21 2
    45   20   22 am
    46   22   23 1
    47   22   46 1
    48   23   47 1
@<TRIPOS>MOLECULE
CHEMBL569446
   85    87     0     0     0
SMALL
USER_CHARGES

@<TRIPOS>ATOM
      1 C1         -2.5149    1.4967   -0.7399 C.3       1 <0>        -0.1500
      2 C2         -2.2805    0.0214   -1.0708 C.3       1 <0>        -0.0920
      3 C3         -1.6043   -0.0933   -2.4385 C.3       1 <0>        -0.1424
      4 C4         -1.3807   -0.6041   -0.0030 C.3       1 <0>        -0.1348
      5 C5         -1.3679   -2.1230   -0.1735 C.3       1 <0>         0.1620
      6 H1         -0.7857   -2.5741    0.6371 H         1 <0>         0.0796
      7 C6         -2.8074   -2.6509   -0.1119 C.3       1 <0>        -0.1541
      8 C7         -3.4141   -2.6090   -1.4943 C.2       1 <0>         0.4806
      9 O1         -3.1425   -1.7020   -2.2528 O.2       1 <0>        -0.4553
     10 N1         -4.2808   -3.6078   -1.8613 N.am      1 <0>        -0.7352
     11 C8         -4.7267   -3.5825   -3.2783 C.3       1 <0>         0.1541
     12 C9         -3.5002   -3.4888   -4.1594 C.2       1 <0>         0.5198
     13 O2         -3.2350   -2.4167   -4.6636 O.2       1 <0>        -0.4877
     14 N2         -2.7333   -4.5943   -4.3306 N.am      1 <0>        -0.7216
     15 C10        -1.5381   -4.5732   -5.1866 C.3       1 <0>         0.1282
     16 H2         -1.2848   -5.6256   -5.4367 H         1 <0>         0.1127
     17 C11        -0.3659   -4.0056   -4.4364 C.2       1 <0>         0.5063
     18 O3          0.5819   -4.7242   -4.1678 O.2       1 <0>        -0.5329
     19 N3         -0.3583   -2.6931   -4.0506 N.am      1 <0>        -0.7191
     20 C12         0.8503   -2.2909   -3.2806 C.3       1 <0>         0.1087
     21 H3          1.5912   -3.0872   -3.2780 H         1 <0>         0.1372
     22 C13         0.4104   -2.0164   -1.8576 C.2       1 <0>         0.5242
     23 O4          1.1491   -1.4051   -1.1137 O.2       1 <0>        -0.5239
     24 N4         -0.7958   -2.5056   -1.4737 N.am      1 <0>        -0.7192
     25 C14         1.4533   -1.0231   -3.8849 C.3       1 <0>        -0.0790
     26 C15         1.9525   -1.3179   -5.2759 C.ar      1 <0>        -0.0697
     27 C16         3.2570   -1.6498   -5.4786 C.ar      1 <0>        -0.1109
     28 C17         3.7368   -1.9257   -6.7573 C.ar      1 <0>        -0.1172
     29 C18         2.9149   -1.8708   -7.8411 C.ar      1 <0>        -0.1054
     30 C19         1.5621   -1.5317   -7.6712 C.ar      1 <0>        -0.0509
     31 C20         1.0726   -1.2572   -6.3696 C.ar      1 <0>        -0.0368
     32 C21        -0.2820   -0.9237   -6.1991 C.ar      1 <0>        -0.1080
     33 C22        -1.1048   -0.8747   -7.2819 C.ar      1 <0>        -0.1003
     34 C23        -0.6250   -1.1510   -8.5610 C.ar      1 <0>        -0.1080
     35 C24         0.6834   -1.4644   -8.7661 C.ar      1 <0>        -0.1073
     36 C25        -1.7635   -3.8470   -6.5059 C.3       1 <0>        -0.1385
     37 C26        -2.7924   -4.6125   -7.3401 C.3       1 <0>        -0.1077
     38 C27        -3.0189   -3.8828   -8.6657 C.3       1 <0>        -0.1151
     39 C28        -4.0479   -4.6484   -9.5000 C.3       1 <0>        -0.0903
     40 C29        -4.2743   -3.9187  -10.8256 C.3       1 <0>        -0.1822
     41 C30        -5.2878   -4.6727  -11.6473 C.2       1 <0>         0.4875
     42 O5         -5.7831   -5.6987  -11.2130 O.co2     1 <0>        -0.7007
     43 O6         -5.6125   -4.2568  -12.7465 O.co2     1 <0>        -0.7097
     44 C31        -5.5010   -4.8648   -3.6061 C.3       1 <0>        -0.1623
     45 C32        -5.6378   -2.3784   -3.5325 C.3       1 <0>        -0.1472
     46 H4         -3.1558    1.9423   -1.5006 H         1 <0>         0.0497
     47 H5         -2.9966    1.5784    0.2344 H         1 <0>         0.0440
     48 H6         -1.5592    2.0204   -0.7178 H         1 <0>         0.0449
     49 H7         -3.2362   -0.5023   -1.0929 H         1 <0>         0.1006
     50 H8         -1.3448   -1.1346   -2.6293 H         1 <0>         0.0899
     51 H9         -2.2870    0.2586   -3.2120 H         1 <0>         0.0468
     52 H10        -0.6995    0.5144   -2.4486 H         1 <0>         0.0207
     53 H11        -0.3671   -0.2178   -0.1103 H         1 <0>         0.0837
     54 H12        -1.7625   -0.3527    0.9865 H         1 <0>         0.0678
     55 H13        -2.7939   -3.6803    0.2513 H         1 <0>         0.0888
     56 H14        -3.3965   -2.0378    0.5627 H         1 <0>         0.1150
     57 H15        -4.5891   -4.2900   -1.2297 H         1 <0>         0.4100
     58 H16        -2.9668   -5.4370   -3.8686 H         1 <0>         0.4093
     59 H17        -1.0786   -2.0710   -4.2489 H         1 <0>         0.4297
     60 H18        -1.2721   -3.1416   -2.0533 H         1 <0>         0.4039
     61 H19         0.6920   -0.2443   -3.9295 H         1 <0>         0.0826
     62 H20         2.2835   -0.6846   -3.2650 H         1 <0>         0.0994
     63 H21         3.9303   -1.6998   -4.6356 H         1 <0>         0.1208
     64 H22         4.7763   -2.1866   -6.8906 H         1 <0>         0.1205
     65 H23         3.3009   -2.0864   -8.8265 H         1 <0>         0.1244
     66 H24        -0.6681   -0.7078   -5.2138 H         1 <0>         0.1198
     67 H25        -2.1454   -0.6182   -7.1481 H         1 <0>         0.1241
     68 H26        -1.2993   -1.1054   -9.4034 H         1 <0>         0.1249
     69 H27         1.0413   -1.6753   -9.7631 H         1 <0>         0.1251
     70 H28        -2.1323   -2.8405   -6.3082 H         1 <0>         0.1071
     71 H29        -0.8229   -3.7882   -7.0535 H         1 <0>         0.0750
     72 H30        -2.4236   -5.6190   -7.5378 H         1 <0>         0.0583
     73 H31        -3.7330   -4.6713   -6.7925 H         1 <0>         0.0584
     74 H32        -3.3877   -2.8764   -8.4680 H         1 <0>         0.0555
     75 H33        -2.0783   -3.8240   -9.2134 H         1 <0>         0.0548
     76 H34        -3.6790   -5.6549   -9.6977 H         1 <0>         0.0558
     77 H35        -4.9884   -4.7072   -8.9523 H         1 <0>         0.0551
     78 H36        -4.6432   -2.9122  -10.6279 H         1 <0>         0.0535
     79 H37        -3.3337   -3.8599  -11.3733 H         1 <0>         0.0535
     80 H38        -6.3731   -4.9388   -2.9565 H         1 <0>         0.0749
     81 H39        -5.8242   -4.8382   -4.6468 H         1 <0>         0.0851
     82 H40        -4.8559   -5.7292   -3.4481 H         1 <0>         0.0650
     83 H41        -5.0937   -1.4590   -3.3161 H         1 <0>         0.0860
     84 H42        -5.9546   -2.3762   -4.5754 H         1 <0>         0.0707
     85 H43        -6.5137   -2.4428   -2.8869 H         1 <0>         0.0595
@<TRIPOS>BOND
     1    1    2 1
     2    1   46 1
     3    1   47 1
     4    1   48 1
     5    2    3 1
     6    2    4 1
     7    2   49 1
     8    3   50 1
     9    3   51 1
    10    3   52 1
    11    4    5 1
    12    4   53 1
    13    4   54 1
    14    5    6 1
    15    5   24 1
    16    5    7 1
    17    7    8 1
    18    7   55 1
    19    7   56 1
    20    8    9 2
    21    8   10 am
    22   10   11 1
    23   10   57 1
    24   11   12 1
    25   11   44 1
    26   11   45 1
    27   12   13 2
    28   12   14 am
    29   14   15 1
    30   14   58 1
    31   15   16 1
    32   15   17 1
    33   15   36 1
    34   17   18 2
    35   17   19 am
    36   19   20 1
    37   19   59 1
    38   20   21 1
    39   20   22 1
    40   20   25 1
    41   22   23 2
    42   22   24 am
    43   24   60 1
    44   25   26 1
    45   25   61 1
    46   25   62 1
    47   26   31 ar
    48   26   27 ar
    49   27   28 ar
    50   27   63 1
    51   28   29 ar
    52   28   64 1
    53   29   30 ar
    54   29   65 1
    55   30   35 ar
    56   30   31 ar
    57   31   32 ar
    58   32   33 ar
    59   32   66 1
    60   33   34 ar
    61   33   67 1
    62   34   35 ar
    63   34   68 1
    64   35   69 1
    65   36   37 1
    66   36   70 1
    67   36   71 1
    68   37   38 1
    69   37   72 1
    70   37   73 1
    71   38   39 1
    72   38   74 1
    73   38   75 1
    74   39   40 1
    75   39   76 1
    76   39   77 1
    77   40   41 1
    78   40   78 1
    79   40   79 1
    80   41   42 2
    81   41   43 1
    82   44   80 1
    83   44   81 1
    84   44   82 1
    85   45   83 1
    86   45   84 1
    87   45   85 1
@<TRIPOS>MOLECULE
CHEMBL16071
   91    93     0     0     0
SMALL
USER_CHARGES

@<TRIPOS>ATOM
      1 C1         -0.0187    1.5258    0.0104 C.3       1 <0>        -0.1517
      2 C2          0.0021   -0.0041    0.0020 C.3       1 <0>        -0.1112
      3 C3         -1.4333   -0.5336    0.0129 C.3       1 <0>        -0.0989
      4 C4         -2.1103   -0.1453    1.3289 C.3       1 <0>        -0.1587
      5 C5         -1.4157   -2.0533   -0.1208 C.3       1 <0>         0.1499
      6 H1         -0.8556   -2.4788    0.7257 H         1 <0>         0.0980
      7 C6         -2.8018   -2.6244   -0.1289 C.2       1 <0>         0.5073
      8 O1         -3.4637   -2.5227   -1.1460 O.2       1 <0>        -0.4883
      9 N1         -3.4043   -3.2210    0.9182 N.am      1 <0>        -0.6180
     10 C7         -3.1882   -2.6949    2.2609 C.3       1 <0>         0.1113
     11 C8         -3.2282   -3.7908    3.3217 C.3       1 <0>        -0.1360
     12 C9         -4.4883   -4.6356    3.1126 C.3       1 <0>        -0.1170
     13 C10        -4.3650   -5.3467    1.7668 C.3       1 <0>        -0.1248
     14 C11        -4.3014   -4.3348    0.6259 C.3       1 <0>         0.1505
     15 H2         -5.2963   -3.9649    0.3954 H         1 <0>         0.0799
     16 C12        -3.7414   -5.0496   -0.5920 C.2       1 <0>         0.5020
     17 O2         -2.7743   -5.7761   -0.4854 O.2       1 <0>        -0.4923
     18 N2         -4.3575   -4.8588   -1.7948 N.am      1 <0>        -0.7066
     19 C13        -3.7000   -5.5140   -2.9585 C.3       1 <0>         0.1366
     20 H3         -3.5033   -6.5628   -2.7181 H         1 <0>         0.1099
     21 C14        -2.3990   -4.7880   -3.1713 C.2       1 <0>         0.5141
     22 O3         -1.4005   -5.1550   -2.5726 O.2       1 <0>        -0.5044
     23 N3         -2.3134   -3.7281   -4.0302 N.am      1 <0>        -0.7103
     24 C15        -1.0650   -2.9244   -3.8174 C.3       1 <0>         0.1346
     25 H4         -0.2081   -3.5734   -3.6813 H         1 <0>         0.1080
     26 C16        -1.3466   -2.1406   -2.5556 C.2       1 <0>         0.5221
     27 O4         -2.0957   -1.1898   -2.6467 O.2       1 <0>        -0.4996
     28 N4         -0.7738   -2.4885   -1.3846 N.am      1 <0>        -0.7198
     29 C17        -0.8465   -1.9705   -4.9913 C.3       1 <0>        -0.1684
     30 C18        -0.5895   -2.7669   -6.2446 C.2       1 <0>         0.3527
     31 O5         -0.5821   -3.9737   -6.2022 O.2       1 <0>        -0.4245
     32 C19        -0.3418   -2.0572   -7.5507 C.3       1 <0>        -0.1316
     33 C20        -0.1143   -3.0740   -8.6396 C.ar      1 <0>        -0.0769
     34 C21         1.1638   -3.5291   -8.9041 C.ar      1 <0>        -0.1082
     35 C22         1.3725   -4.4618   -9.9028 C.ar      1 <0>        -0.1175
     36 C23         0.3030   -4.9396  -10.6368 C.ar      1 <0>        -0.1193
     37 C24        -0.9753   -4.4851  -10.3716 C.ar      1 <0>        -0.1181
     38 C25        -1.1845   -3.5556   -9.3700 C.ar      1 <0>        -0.1086
     39 C26        -4.5997   -5.4309   -4.1888 C.3       1 <0>        -0.1288
     40 C27        -5.8733   -6.2429   -3.9450 C.3       1 <0>        -0.1162
     41 C28        -6.7752   -6.1596   -5.1782 C.3       1 <0>        -0.1190
     42 C29        -8.0488   -6.9716   -4.9344 C.3       1 <0>        -0.1122
     43 C30        -8.9506   -6.8883   -6.1676 C.3       1 <0>        -0.1732
     44 C31       -10.2051   -7.6882   -5.9274 C.2       1 <0>         0.3512
     45 O6        -10.3616   -8.2653   -4.8783 O.2       1 <0>        -0.4512
     46 C32       -11.2641   -7.7678   -6.9966 C.3       1 <0>        -0.1774
     47 C33       -12.4238   -8.6348   -6.5022 C.3       1 <0>        -0.1465
     48 H5          1.0039    1.9031    0.0027 H         1 <0>         0.0541
     49 H6         -0.5459    1.8868   -0.8726 H         1 <0>         0.0548
     50 H7         -0.5289    1.8773    0.9072 H         1 <0>         0.0564
     51 H8          0.5123   -0.3556   -0.8948 H         1 <0>         0.0629
     52 H9          0.5293   -0.3651    0.8851 H         1 <0>         0.0603
     53 H10        -1.9862   -0.1019   -0.8214 H         1 <0>         0.1068
     54 H11        -1.5574   -0.5770    2.1631 H         1 <0>         0.0601
     55 H12        -2.1228    0.9405    1.4244 H         1 <0>         0.0689
     56 H13        -3.1329   -0.5225    1.3366 H         1 <0>         0.0571
     57 H14        -2.2178   -2.1934    2.3049 H         1 <0>         0.0848
     58 H15        -3.9643   -1.9554    2.4834 H         1 <0>         0.0635
     59 H16        -2.3465   -4.4244    3.2317 H         1 <0>         0.0725
     60 H17        -3.2543   -3.3421    4.3148 H         1 <0>         0.0811
     61 H18        -4.5716   -5.3704    3.9119 H         1 <0>         0.0747
     62 H19        -5.3646   -3.9898    3.1099 H         1 <0>         0.0675
     63 H20        -3.4574   -5.9545    1.7638 H         1 <0>         0.0855
     64 H21        -5.2269   -6.0016    1.6232 H         1 <0>         0.0792
     65 H22        -5.1668   -4.3350   -1.8903 H         1 <0>         0.4125
     66 H23        -2.9615   -3.4953   -4.7096 H         1 <0>         0.4107
     67 H24         0.0495   -3.0220   -1.3686 H         1 <0>         0.4141
     68 H25        -1.7347   -1.3537   -5.1284 H         1 <0>         0.1175
     69 H26         0.0116   -1.3309   -4.7848 H         1 <0>         0.1148
     70 H27        -1.2077   -1.4443   -7.8011 H         1 <0>         0.1083
     71 H28         0.5386   -1.4215   -7.4575 H         1 <0>         0.1083
     72 H29         1.9995   -3.1558   -8.3306 H         1 <0>         0.1192
     73 H30         2.3712   -4.8169  -10.1099 H         1 <0>         0.1222
     74 H31         0.4661   -5.6677  -11.4175 H         1 <0>         0.1215
     75 H32        -1.8109   -4.8581  -10.9453 H         1 <0>         0.1218
     76 H33        -2.1837   -3.2033   -9.1604 H         1 <0>         0.1188
     77 H34        -4.8629   -4.3900   -4.3768 H         1 <0>         0.0746
     78 H35        -4.0717   -5.8339   -5.0530 H         1 <0>         0.0855
     79 H36        -5.6102   -7.2838   -3.7571 H         1 <0>         0.0678
     80 H37        -6.4014   -5.8399   -3.0808 H         1 <0>         0.0656
     81 H38        -7.0384   -5.1187   -5.3662 H         1 <0>         0.0640
     82 H39        -6.2471   -6.5626   -6.0424 H         1 <0>         0.0647
     83 H40        -7.7856   -8.0126   -4.7464 H         1 <0>         0.0678
     84 H41        -8.5768   -6.5686   -4.0702 H         1 <0>         0.0674
     85 H42        -9.2138   -5.8474   -6.3556 H         1 <0>         0.0975
     86 H43        -8.4226   -7.2914   -7.0318 H         1 <0>         0.0977
     87 H44       -11.6297   -6.7658   -7.2213 H         1 <0>         0.0972
     88 H45       -10.8385   -8.2097   -7.8975 H         1 <0>         0.0973
     89 H46       -12.8495   -8.1928   -5.6013 H         1 <0>         0.0593
     90 H47       -13.1898   -8.6924   -7.2755 H         1 <0>         0.0612
     91 H48       -12.0582   -9.6368   -6.2775 H         1 <0>         0.0594
@<TRIPOS>BOND
     1    1    2 1
     2    1   48 1
     3    1   49 1
     4    1   50 1
     5    2    3 1
     6    2   51 1
     7    2   52 1
     8    3    4 1
     9    3    5 1
    10    3   53 1
    11    4   54 1
    12    4   55 1
    13    4   56 1
    14    5    6 1
    15    5   28 1
    16    5    7 1
    17    7    8 2
    18    7    9 am
    19    9   14 1
    20    9   10 1
    21   10   11 1
    22   10   57 1
    23   10   58 1
    24   11   12 1
    25   11   59 1
    26   11   60 1
    27   12   13 1
    28   12   61 1
    29   12   62 1
    30   13   14 1
    31   13   63 1
    32   13   64 1
    33   14   15 1
    34   14   16 1
    35   16   17 2
    36   16   18 am
    37   18   19 1
    38   18   65 1
    39   19   20 1
    40   19   21 1
    41   19   39 1
    42   21   22 2
    43   21   23 am
    44   23   24 1
    45   23   66 1
    46   24   25 1
    47   24   26 1
    48   24   29 1
    49   26   27 2
    50   26   28 am
    51   28   67 1
    52   29   30 1
    53   29   68 1
    54   29   69 1
    55   30   31 2
    56   30   32 1
    57   32   33 1
    58   32   70 1
    59   32   71 1
    60   33   38 ar
    61   33   34 ar
    62   34   35 ar
    63   34   72 1
    64   35   36 ar
    65   35   73 1
    66   36   37 ar
    67   36   74 1
    68   37   38 ar
    69   37   75 1
    70   38   76 1
    71   39   40 1
    72   39   77 1
    73   39   78 1
    74   40   41 1
    75   40   79 1
    76   40   80 1
    77   41   42 1
    78   41   81 1
    79   41   82 1
    80   42   43 1
    81   42   83 1
    82   42   84 1
    83   43   44 1
    84   43   85 1
    85   43   86 1
    86   44   45 2
    87   44   46 1
    88   46   47 1
    89   46   87 1
    90   46   88 1
    91   47   89 1
    92   47   90 1
    93   47   91 1
@<TRIPOS>MOLECULE
CHEMBL16071__1
   91    93     0     0     0
SMALL
USER_CHARGES

@<TRIPOS>ATOM
      1 C1         -2.3328    1.5825    0.9902 C.3       1 <0>        -0.1500
      2 C2         -2.2441    0.0650    1.1640 C.3       1 <0>        -0.1293
      3 C3         -1.4333   -0.5336    0.0129 C.3       1 <0>        -0.0986
      4 C4          0.0101   -0.0322    0.0909 C.3       1 <0>        -0.1400
      5 C5         -1.4493   -2.0556    0.1173 C.3       1 <0>         0.1497
      6 H1         -1.0300   -2.3502    1.0913 H         1 <0>         0.0980
      7 C6         -2.8391   -2.6043   -0.0050 C.2       1 <0>         0.5068
      8 O1         -3.3460   -2.6550   -1.1112 O.2       1 <0>        -0.4879
      9 N1         -3.6043   -3.0225    1.0220 N.am      1 <0>        -0.6181
     10 C7         -3.5631   -2.2956    2.2854 C.3       1 <0>         0.1120
     11 C8         -3.7909   -3.2116    3.4840 C.3       1 <0>        -0.1359
     12 C9         -5.0370   -4.0635    3.2255 C.3       1 <0>        -0.1170
     13 C10        -4.7485   -4.9777    2.0368 C.3       1 <0>        -0.1249
     14 C11        -4.4886   -4.1575    0.7760 C.3       1 <0>         0.1504
     15 H2         -5.4274   -3.8163    0.3493 H         1 <0>         0.0799
     16 C12        -3.7864   -5.0607   -0.2235 C.2       1 <0>         0.5020
     17 O2         -2.8699   -5.7730    0.1327 O.2       1 <0>        -0.4923
     18 N2         -4.2186   -5.0529   -1.5180 N.am      1 <0>        -0.7067
     19 C13        -3.4255   -5.8899   -2.4596 C.3       1 <0>         0.1365
     20 H3         -3.3012   -6.8904   -2.0354 H         1 <0>         0.1099
     21 C14        -2.0832   -5.2217   -2.5891 C.2       1 <0>         0.5142
     22 O3         -1.1931   -5.5025   -1.8025 O.2       1 <0>        -0.5043
     23 N3         -1.8401   -4.3102   -3.5784 N.am      1 <0>        -0.7104
     24 C15        -0.6076   -3.4981   -3.3116 C.3       1 <0>         0.1346
     25 H4          0.1985   -4.1281   -2.9545 H         1 <0>         0.1080
     26 C16        -1.0383   -2.5234   -2.2391 C.2       1 <0>         0.5218
     27 O4         -1.7336   -1.5896   -2.5828 O.2       1 <0>        -0.4998
     28 N4         -0.6499   -2.6907   -0.9580 N.am      1 <0>        -0.7195
     29 C17        -0.1919   -2.7422   -4.5731 C.3       1 <0>        -0.1684
     30 C18         0.2128   -3.7278   -5.6389 C.2       1 <0>         0.3527
     31 O5          0.1725   -4.9132   -5.4117 O.2       1 <0>        -0.4246
     32 C19         0.6677   -3.2342   -6.9881 C.3       1 <0>        -0.1315
     33 C20         1.0123   -4.4114   -7.8636 C.ar      1 <0>        -0.0769
     34 C21         2.2987   -4.9176   -7.8664 C.ar      1 <0>        -0.1082
     35 C22         2.6148   -5.9973   -8.6696 C.ar      1 <0>        -0.1175
     36 C23         1.6444   -6.5712   -9.4696 C.ar      1 <0>        -0.1193
     37 C24         0.3579   -6.0656   -9.4661 C.ar      1 <0>        -0.1181
     38 C25         0.0407   -4.9885   -8.6598 C.ar      1 <0>        -0.1085
     39 C26        -4.1381   -5.9894   -3.8058 C.3       1 <0>        -0.1289
     40 C27        -5.4606   -6.7380   -3.6287 C.3       1 <0>        -0.1162
     41 C28        -6.1748   -6.8378   -4.9781 C.3       1 <0>        -0.1190
     42 C29        -7.4973   -7.5864   -4.8010 C.3       1 <0>        -0.1122
     43 C30        -8.2116   -7.6862   -6.1504 C.3       1 <0>        -0.1732
     44 C31        -9.5142   -8.4235   -5.9760 C.2       1 <0>         0.3512
     45 O6         -9.8379   -8.8276   -4.8850 O.2       1 <0>        -0.4512
     46 C32       -10.4129   -8.6567   -7.1630 C.3       1 <0>        -0.1773
     47 C33       -11.6602   -9.4218   -6.7160 C.3       1 <0>        -0.1465
     48 H5         -2.9104    2.0091    1.8102 H         1 <0>         0.0557
     49 H6         -1.3292    2.0079    0.9929 H         1 <0>         0.0582
     50 H7         -2.8220    1.8118    0.0435 H         1 <0>         0.0552
     51 H8         -1.7549   -0.1642    2.1107 H         1 <0>         0.0661
     52 H9         -3.2477   -0.3603    1.1613 H         1 <0>         0.0651
     53 H10        -1.8726   -0.2300   -0.9373 H         1 <0>         0.1060
     54 H11         0.4175   -0.2499    1.0781 H         1 <0>         0.0537
     55 H12         0.6104   -0.5334   -0.6685 H         1 <0>         0.0560
     56 H13         0.0307    1.0438   -0.0815 H         1 <0>         0.0619
     57 H14        -2.5920   -1.8051    2.3929 H         1 <0>         0.0840
     58 H15        -4.3369   -1.5212    2.2767 H         1 <0>         0.0640
     59 H16        -2.9278   -3.8620    3.6214 H         1 <0>         0.0727
     60 H17        -3.9423   -2.6128    4.3823 H         1 <0>         0.0812
     61 H18        -5.2582   -4.6633    4.1070 H         1 <0>         0.0748
     62 H19        -5.8813   -3.4157    2.9964 H         1 <0>         0.0676
     63 H20        -3.8711   -5.5894    2.2590 H         1 <0>         0.0856
     64 H21        -5.6033   -5.6367    1.8711 H         1 <0>         0.0793
     65 H22        -4.9876   -4.5409   -1.8094 H         1 <0>         0.4125
     66 H23        -2.3768   -4.1788   -4.3724 H         1 <0>         0.4107
     67 H24         0.1440   -3.2249   -0.7408 H         1 <0>         0.4142
     68 H25        -1.0298   -2.1439   -4.9309 H         1 <0>         0.1176
     69 H26         0.6498   -2.0886   -4.3442 H         1 <0>         0.1148
     70 H27        -0.1322   -2.6576   -7.4527 H         1 <0>         0.1084
     71 H28         1.5475   -2.6023   -6.8661 H         1 <0>         0.1083
     72 H29         3.0568   -4.4692   -7.2414 H         1 <0>         0.1192
     73 H30         3.6199   -6.3924   -8.6723 H         1 <0>         0.1222
     74 H31         1.8916   -7.4144  -10.0976 H         1 <0>         0.1215
     75 H32        -0.4001   -6.5137  -10.0914 H         1 <0>         0.1218
     76 H33        -0.9653   -4.5958   -8.6543 H         1 <0>         0.1188
     77 H34        -4.3359   -4.9876   -4.1871 H         1 <0>         0.0746
     78 H35        -3.5069   -6.5289   -4.5120 H         1 <0>         0.0855
     79 H36        -5.2628   -7.7398   -3.2474 H         1 <0>         0.0678
     80 H37        -6.0918   -6.1985   -2.9226 H         1 <0>         0.0656
     81 H38        -6.3726   -5.8360   -5.3594 H         1 <0>         0.0640
     82 H39        -5.5436   -7.3773   -5.6843 H         1 <0>         0.0647
     83 H40        -7.2996   -8.5882   -4.4197 H         1 <0>         0.0678
     84 H41        -8.1285   -7.0469   -4.0949 H         1 <0>         0.0674
     85 H42        -8.4094   -6.6844   -6.5317 H         1 <0>         0.0975
     86 H43        -7.5804   -8.2257   -6.8566 H         1 <0>         0.0977
     87 H44       -10.7081   -7.6979   -7.5892 H         1 <0>         0.0972
     88 H45        -9.8791   -9.2392   -7.9140 H         1 <0>         0.0973
     89 H46       -12.1939   -8.8393   -5.9650 H         1 <0>         0.0593
     90 H47       -12.3102   -9.5904   -7.5746 H         1 <0>         0.0612
     91 H48       -11.3650  -10.3806   -6.2898 H         1 <0>         0.0594
@<TRIPOS>BOND
     1    1    2 1
     2    1   48 1
     3    1   49 1
     4    1   50 1
     5    2    3 1
     6    2   51 1
     7    2   52 1
     8    3    4 1
     9    3    5 1
    10    3   53 1
    11    4   54 1
    12    4   55 1
    13    4   56 1
    14    5    6 1
    15    5   28 1
    16    5    7 1
    17    7    8 2
    18    7    9 am
    19    9   14 1
    20    9   10 1
    21   10   11 1
    22   10   57 1
    23   10   58 1
    24   11   12 1
    25   11   59 1
    26   11   60 1
    27   12   13 1
    28   12   61 1
    29   12   62 1
    30   13   14 1
    31   13   63 1
    32   13   64 1
    33   14   15 1
    34   14   16 1
    35   16   17 2
    36   16   18 am
    37   18   19 1
    38   18   65 1
    39   19   20 1
    40   19   21 1
    41   19   39 1
    42   21   22 2
    43   21   23 am
    44   23   24 1
    45   23   66 1
    46   24   25 1
    47   24   26 1
    48   24   29 1
    49   26   27 2
    50   26   28 am
    51   28   67 1
    52   29   30 1
    53   29   68 1
    54   29   69 1
    55   30   31 2
    56   30   32 1
    57   32   33 1
    58   32   70 1
    59   32   71 1
    60   33   38 ar
    61   33   34 ar
    62   34   35 ar
    63   34   72 1
    64   35   36 ar
    65   35   73 1
    66   36   37 ar
    67   36   74 1
    68   37   38 ar
    69   37   75 1
    70   38   76 1
    71   39   40 1
    72   39   77 1
    73   39   78 1
    74   40   41 1
    75   40   79 1
    76   40   80 1
    77   41   42 1
    78   41   81 1
    79   41   82 1
    80   42   43 1
    81   42   83 1
    82   42   84 1
    83   43   44 1
    84   43   85 1
    85   43   86 1
    86   44   45 2
    87   44   46 1
    88   46   47 1
    89   46   87 1
    90   46   88 1
    91   47   89 1
    92   47   90 1
    93   47   91 1
@<TRIPOS>MOLECULE
CHEMBL604178
   66    69     0     0     0
SMALL
USER_CHARGES

@<TRIPOS>ATOM
      1 C1          1.2495    3.5683    1.7492 C.ar      1 <0>        -0.1215
      2 C2          2.0517    3.5602    2.8750 C.ar      1 <0>        -0.1180
      3 C3          3.2538    2.8776    2.8622 C.ar      1 <0>        -0.1128
      4 C4          3.6533    2.2029    1.7238 C.ar      1 <0>        -0.0824
      5 C5          2.8507    2.2103    0.5983 C.ar      1 <0>        -0.1144
      6 C6          1.6493    2.8940    0.6107 C.ar      1 <0>        -0.1184
      7 C7          4.9642    1.4596    1.7095 C.3       1 <0>        -0.0905
      8 C8          4.7390    0.0194    2.1744 C.3       1 <0>         0.1346
      9 N1          6.0133   -0.7031    2.1605 N.am      1 <0>        -0.7246
     10 C9          6.0583   -1.9973    2.5342 C.2       1 <0>         0.5385
     11 O1          5.0438   -2.5636    2.8820 O.2       1 <0>        -0.5212
     12 C10         7.3692   -2.7406    2.5200 C.3       1 <0>         0.1448
     13 H1          7.9749   -2.4037    1.6787 H         1 <0>         0.1051
     14 C11         7.1109   -4.2418    2.4025 C.3       1 <0>        -0.0802
     15 C12         8.3625   -5.0261    2.6978 C.ar      1 <0>        -0.1009
     16 C13         8.4268   -6.3344    2.2322 C.ar      1 <0>        -0.0729
     17 C14         9.5378   -7.1129    2.4747 C.ar      1 <0>        -0.2015
     18 C15        10.6036   -6.5881    3.1916 C.ar      1 <0>         0.1294
     19 C16        10.5418   -5.2839    3.6523 C.ar      1 <0>        -0.1364
     20 C17         9.4238   -4.5014    3.4014 C.ar      1 <0>        -0.0584
     21 C18         9.4323   -3.0812    3.9089 C.3       1 <0>         0.1567
     22 N2          8.0910   -2.5017    3.7807 N.am      1 <0>        -0.5885
     23 C19         7.5409   -1.7805    4.7776 C.2       1 <0>         0.6505
     24 O2          6.3916   -1.3965    4.6869 O.2       1 <0>        -0.5339
     25 O3          8.2647   -1.4855    5.8738 O.3       1 <0>        -0.3527
     26 C20         7.6182   -0.7178    6.8909 C.3       1 <0>         0.1296
     27 C21         8.5758   -0.4875    8.0316 C.ar      1 <0>        -0.1013
     28 C22         8.6407   -1.3940    9.0732 C.ar      1 <0>        -0.0927
     29 C23         9.5190   -1.1828   10.1195 C.ar      1 <0>        -0.1225
     30 C24        10.3328   -0.0653   10.1240 C.ar      1 <0>        -0.1062
     31 C25        10.2685    0.8407    9.0819 C.ar      1 <0>        -0.1232
     32 C26         9.3932    0.6272    8.0335 C.ar      1 <0>        -0.0929
     33 O4         11.7017   -7.3494    3.4396 O.3       1 <0>        -0.2871
     34 C27        11.6931   -8.6852    2.9322 C.3       1 <0>         0.0570
     35 C28        12.9829   -9.3713    3.3019 C.2       1 <0>         0.5251
     36 O5         13.8265   -8.7751    3.9374 O.2       1 <0>        -0.4921
     37 N3         13.1990  -10.6476    2.9263 N.am      1 <0>        -0.5949
     38 O6         14.4109  -11.2923    3.2737 O.3       1 <0>        -0.3094
     39 H2          0.3083    4.0979    1.7607 H         1 <0>         0.1217
     40 H3          1.7396    4.0873    3.7644 H         1 <0>         0.1224
     41 H4          3.8808    2.8718    3.7414 H         1 <0>         0.1215
     42 H5          3.1630    1.6834   -0.2912 H         1 <0>         0.1218
     43 H6          1.0224    2.9001   -0.2687 H         1 <0>         0.1225
     44 H7          5.3686    1.4556    0.6973 H         1 <0>         0.0778
     45 H8          5.6684    1.9520    2.3801 H         1 <0>         0.0775
     46 H9          4.3346    0.0234    3.1866 H         1 <0>         0.0721
     47 H10         4.0348   -0.4730    1.5038 H         1 <0>         0.0660
     48 H11         6.8247   -0.2502    1.8824 H         1 <0>         0.3946
     49 H12         6.3331   -4.5282    3.1104 H         1 <0>         0.0998
     50 H13         6.7754   -4.4698    1.3908 H         1 <0>         0.0937
     51 H14         7.5977   -6.7449    1.6750 H         1 <0>         0.1303
     52 H15         9.5788   -8.1279    2.1079 H         1 <0>         0.1310
     53 H16        11.3695   -4.8729    4.2112 H         1 <0>         0.1379
     54 H17         9.7329   -3.0722    4.9566 H         1 <0>         0.1102
     55 H18        10.1386   -2.4914    3.3246 H         1 <0>         0.0923
     56 H19         7.3065    0.2420    6.4788 H         1 <0>         0.0783
     57 H20         6.7441   -1.2584    7.2539 H         1 <0>         0.0786
     58 H21         8.0049   -2.2670    9.0698 H         1 <0>         0.1245
     59 H22         9.5692   -1.8906   10.9337 H         1 <0>         0.1264
     60 H23        11.0185    0.1001   10.9418 H         1 <0>         0.1254
     61 H24        10.9041    1.7139    9.0855 H         1 <0>         0.1263
     62 H25         9.3457    1.3331    7.2175 H         1 <0>         0.1241
     63 H26        10.8543   -9.2320    3.3627 H         1 <0>         0.1006
     64 H27        11.5925   -8.6610    1.8471 H         1 <0>         0.1009
     65 H28        12.5243  -11.1244    2.4180 H         1 <0>         0.4103
     66 H29        14.4746  -12.2050    2.9608 H         1 <0>         0.3916
@<TRIPOS>BOND
     1    1    6 ar
     2    1    2 ar
     3    1   39 1
     4    2    3 ar
     5    2   40 1
     6    3    4 ar
     7    3   41 1
     8    4    5 ar
     9    4    7 1
    10    5    6 ar
    11    5   42 1
    12    6   43 1
    13    7    8 1
    14    7   44 1
    15    7   45 1
    16    8    9 1
    17    8   46 1
    18    8   47 1
    19    9   10 am
    20    9   48 1
    21   10   11 2
    22   10   12 1
    23   12   13 1
    24   12   22 1
    25   12   14 1
    26   14   15 1
    27   14   49 1
    28   14   50 1
    29   15   20 ar
    30   15   16 ar
    31   16   17 ar
    32   16   51 1
    33   17   18 ar
    34   17   52 1
    35   18   19 ar
    36   18   33 1
    37   19   20 ar
    38   19   53 1
    39   20   21 1
    40   21   22 1
    41   21   54 1
    42   21   55 1
    43   22   23 am
    44   23   24 2
    45   23   25 1
    46   25   26 1
    47   26   27 1
    48   26   56 1
    49   26   57 1
    50   27   32 ar
    51   27   28 ar
    52   28   29 ar
    53   28   58 1
    54   29   30 ar
    55   29   59 1
    56   30   31 ar
    57   30   60 1
    58   31   32 ar
    59   31   61 1
    60   32   62 1
    61   33   34 1
    62   34   35 1
    63   34   63 1
    64   34   64 1
    65   35   36 2
    66   35   37 am
    67   37   38 1
    68   37   65 1
    69   38   66 1
@<TRIPOS>MOLECULE
CHEMBL1097369
   50    53     0     0     0
SMALL
USER_CHARGES

@<TRIPOS>ATOM
      1 C1          0.1901    1.4553    0.6360 C.ar      1 <0>        -0.1286
      2 C2          1.2872    2.1227    0.1096 C.ar      1 <0>        -0.1001
      3 C3          2.4010    1.4214   -0.3013 C.ar      1 <0>        -0.1270
      4 C4          2.4241    0.0382   -0.1871 C.ar      1 <0>         0.0580
      5 C5          1.3125   -0.6381    0.3463 C.ar      1 <0>         0.0454
      6 C6          0.1939    0.0948    0.7563 C.ar      1 <0>        -0.0616
      7 N1          1.6078   -1.9607    0.3392 N.2       1 <0>        -0.4754
      8 C7          2.8078   -2.1413   -0.1550 C.2       1 <0>         0.3165
      9 N2          3.3550   -0.9340   -0.4959 N.pl3     1 <0>        -0.4785
     10 C8          4.6805   -0.7142   -1.0798 C.3       1 <0>         0.1399
     11 C9          4.9336    0.7883   -1.2192 C.3       1 <0>        -0.1356
     12 C10         6.3179    1.0179   -1.8291 C.3       1 <0>        -0.1166
     13 C11         6.3830    0.3596   -3.2087 C.3       1 <0>        -0.1252
     14 C12         6.1300   -1.1429   -3.0693 C.3       1 <0>        -0.1145
     15 C13         4.7457   -1.3725   -2.4594 C.3       1 <0>        -0.1345
     16 C14         3.4717   -3.4531   -0.3193 C.ar      1 <0>        -0.0246
     17 C15         4.8559   -3.5608   -0.1658 C.ar      1 <0>        -0.0908
     18 C16         5.4788   -4.7840   -0.3185 C.ar      1 <0>        -0.1172
     19 C17         4.7399   -5.9089   -0.6242 C.ar      1 <0>        -0.0841
     20 C18         3.3528   -5.8163   -0.7809 C.ar      1 <0>        -0.0766
     21 C19         2.7174   -4.5833   -0.6214 C.ar      1 <0>        -0.0444
     22 C20         2.5647   -7.0165   -1.1069 C.2       1 <0>        -0.0027
     23 C21         3.1796   -8.2069   -1.2549 C.2       1 <0>        -0.2076
     24 C22         2.3959   -9.4005   -1.5791 C.2       1 <0>         0.5601
     25 O1          1.1893   -9.3178   -1.7150 O.2       1 <0>        -0.5225
     26 N3          3.0107  -10.5907   -1.7271 N.am      1 <0>        -0.5934
     27 O2          2.2527  -11.7450   -2.0406 O.3       1 <0>        -0.3154
     28 H1         -0.6738    2.0179    0.9580 H         1 <0>         0.1299
     29 H2          1.2682    3.1989    0.0208 H         1 <0>         0.1303
     30 H3          3.2517    1.9461   -0.7105 H         1 <0>         0.1356
     31 H4         -0.6655   -0.4143    1.1670 H         1 <0>         0.1297
     32 H5          5.4401   -1.1520   -0.4321 H         1 <0>         0.0943
     33 H6          4.1741    1.2261   -1.8669 H         1 <0>         0.0822
     34 H7          4.8872    1.2573   -0.2364 H         1 <0>         0.0779
     35 H8          6.4982    2.0883   -1.9284 H         1 <0>         0.0738
     36 H9          7.0775    0.5801   -1.1813 H         1 <0>         0.0672
     37 H10         5.6235    0.7974   -3.8564 H         1 <0>         0.0651
     38 H11         7.3692    0.5232   -3.6431 H         1 <0>         0.0693
     39 H12         6.1764   -1.6119   -4.0521 H         1 <0>         0.0721
     40 H13         6.8895   -1.5807   -2.4215 H         1 <0>         0.0668
     41 H14         4.5654   -2.4429   -2.3601 H         1 <0>         0.0759
     42 H15         3.9861   -0.9346   -3.1071 H         1 <0>         0.0714
     43 H16         5.4409   -2.6849    0.0727 H         1 <0>         0.1283
     44 H17         6.5494   -4.8605   -0.1986 H         1 <0>         0.1351
     45 H18         5.2333   -6.8622   -0.7430 H         1 <0>         0.1339
     46 H19         1.6463   -4.5060   -0.7363 H         1 <0>         0.1419
     47 H20         1.4940   -6.9431   -1.2275 H         1 <0>         0.1424
     48 H21         4.2504   -8.2802   -1.1343 H         1 <0>         0.1355
     49 H22         3.9723  -10.6566   -1.6188 H         1 <0>         0.4094
     50 H23         2.7805  -12.5506   -2.1267 H         1 <0>         0.3889
@<TRIPOS>BOND
     1    1    6 ar
     2    1    2 ar
     3    1   28 1
     4    2    3 ar
     5    2   29 1
     6    3    4 ar
     7    3   30 1
     8    4    9 1
     9    4    5 ar
    10    5    6 ar
    11    5    7 1
    12    6   31 1
    13    7    8 2
    14    8    9 1
    15    8   16 1
    16    9   10 1
    17   10   15 1
    18   10   11 1
    19   10   32 1
    20   11   12 1
    21   11   33 1
    22   11   34 1
    23   12   13 1
    24   12   35 1
    25   12   36 1
    26   13   14 1
    27   13   37 1
    28   13   38 1
    29   14   15 1
    30   14   39 1
    31   14   40 1
    32   15   41 1
    33   15   42 1
    34   16   21 ar
    35   16   17 ar
    36   17   18 ar
    37   17   43 1
    38   18   19 ar
    39   18   44 1
    40   19   20 ar
    41   19   45 1
    42   20   21 ar
    43   20   22 1
    44   21   46 1
    45   22   23 2
    46   22   47 1
    47   23   24 1
    48   23   48 1
    49   24   25 2
    50   24   26 am
    51   26   27 1
    52   26   49 1
    53   27   50 1
@<TRIPOS>MOLECULE
CHEMBL1097369__1
   51    54     0     0     0
SMALL
USER_CHARGES

@<TRIPOS>ATOM
      1 C1         -0.0164    1.3616    0.0095 C.ar      1 <0>        -0.0787
      2 C2          1.1674    2.0859    0.0021 C.ar      1 <0>        -0.0659
      3 C3          2.3840    1.4370   -0.0129 C.ar      1 <0>        -0.0917
      4 C4          2.4236    0.0494   -0.0207 C.ar      1 <0>         0.0852
      5 C5          1.2241   -0.6845   -0.0132 C.ar      1 <0>         0.0506
      6 C6          0.0021   -0.0041    0.0020 C.ar      1 <0>        -0.0769
      7 N1          1.5586   -1.9977   -0.0234 N.pl3     1 <0>        -0.4906
      8 C7          2.8632   -2.1197   -0.0365 C.cat     1 <0>         0.4402
      9 N2          3.4444   -0.8806   -0.0354 N.pl3     1 <0>        -0.4182
     10 C8          4.8811   -0.5943   -0.0480 C.3       1 <0>         0.1167
     11 C9          5.2527    0.2059    1.2020 C.3       1 <0>        -0.1348
     12 C10         6.7531    0.5049    1.1889 C.3       1 <0>        -0.1174
     13 C11         7.1000    1.3187   -0.0594 C.3       1 <0>        -0.1298
     14 C12         6.7285    0.5186   -1.3094 C.3       1 <0>        -0.1173
     15 C13         5.2280    0.2196   -1.2963 C.3       1 <0>        -0.1325
     16 C14         3.5975   -3.4039   -0.0499 C.ar      1 <0>        -0.0993
     17 C15         4.8080   -3.5248    0.6366 C.ar      1 <0>        -0.0714
     18 C16         5.4961   -4.7223    0.6260 C.ar      1 <0>        -0.1029
     19 C17         4.9944   -5.8082   -0.0624 C.ar      1 <0>        -0.0552
     20 C18         3.7832   -5.7019   -0.7545 C.ar      1 <0>        -0.0516
     21 C19         3.0805   -4.4955   -0.7419 C.ar      1 <0>        -0.0513
     22 C20         3.2482   -6.8605   -1.4887 C.2       1 <0>        -0.0363
     23 C21         3.9255   -8.0259   -1.4949 C.2       1 <0>        -0.1713
     24 C22         3.3934   -9.1782   -2.2252 C.2       1 <0>         0.5547
     25 O1          2.3396   -9.0837   -2.8266 O.2       1 <0>        -0.5174
     26 N3          4.0706  -10.3434   -2.2313 N.am      1 <0>        -0.5888
     27 O2          3.5560  -11.4577   -2.9375 O.3       1 <0>        -0.3107
     28 H1         -0.9620    1.8832    0.0259 H         1 <0>         0.1570
     29 H2          1.1356    3.1654    0.0078 H         1 <0>         0.1567
     30 H3          3.3020    2.0058   -0.0190 H         1 <0>         0.1501
     31 H4         -0.9252   -0.5576    0.0075 H         1 <0>         0.1530
     32 H5          5.4382   -1.5311   -0.0586 H         1 <0>         0.1289
     33 H6          4.6956    1.1427    1.2127 H         1 <0>         0.0823
     34 H7          5.0055   -0.3739    2.0913 H         1 <0>         0.0786
     35 H8          7.0178    1.0749    2.0795 H         1 <0>         0.0839
     36 H9          7.3102   -0.4319    1.1783 H         1 <0>         0.0725
     37 H10         6.5430    2.2556   -0.0487 H         1 <0>         0.0692
     38 H11         8.1690    1.5318   -0.0687 H         1 <0>         0.0790
     39 H12         6.9756    1.0984   -2.1987 H         1 <0>         0.0833
     40 H13         7.2856   -0.4182   -1.3201 H         1 <0>         0.0725
     41 H14         4.9633   -0.3504   -2.1868 H         1 <0>         0.0788
     42 H15         4.6710    1.1564   -1.2856 H         1 <0>         0.0804
     43 H16         5.2073   -2.6793    1.1769 H         1 <0>         0.1411
     44 H17         6.4315   -4.8092    1.1588 H         1 <0>         0.1521
     45 H18         5.5379   -6.7415   -0.0671 H         1 <0>         0.1488
     46 H19         2.1426   -4.4083   -1.2702 H         1 <0>         0.1428
     47 H20         2.3130   -6.7766   -2.0225 H         1 <0>         0.1477
     48 H21         4.8607   -8.1098   -0.9612 H         1 <0>         0.1391
     49 H22         4.9105  -10.4188   -1.7520 H         1 <0>         0.4111
     50 H23         4.1110  -12.2478   -2.8839 H         1 <0>         0.3941
     51 H24         0.9283   -2.7351   -0.0210 H         1 <0>         0.4596
@<TRIPOS>BOND
     1    1    6 ar
     2    1    2 ar
     3    1   28 1
     4    2    3 ar
     5    2   29 1
     6    3    4 ar
     7    3   30 1
     8    4    9 1
     9    4    5 ar
    10    5    6 ar
    11    5    7 1
    12    6   31 1
    13    7    8 2
    14    7   51 1
    15    8    9 1
    16    8   16 1
    17    9   10 1
    18   10   15 1
    19   10   11 1
    20   10   32 1
    21   11   12 1
    22   11   33 1
    23   11   34 1
    24   12   13 1
    25   12   35 1
    26   12   36 1
    27   13   14 1
    28   13   37 1
    29   13   38 1
    30   14   15 1
    31   14   39 1
    32   14   40 1
    33   15   41 1
    34   15   42 1
    35   16   21 ar
    36   16   17 ar
    37   17   18 ar
    38   17   43 1
    39   18   19 ar
    40   18   44 1
    41   19   20 ar
    42   19   45 1
    43   20   21 ar
    44   20   22 1
    45   21   46 1
    46   22   23 2
    47   22   47 1
    48   23   24 1
    49   23   48 1
    50   24   25 2
    51   24   26 am
    52   26   27 1
    53   26   49 1
    54   27   50 1
@<TRIPOS>MOLECULE
CHEMBL1097017
   43    45     0     0     0
SMALL
USER_CHARGES

@<TRIPOS>ATOM
      1 C1          0.4829   -0.0019   -1.5606 C.3       1 <0>        -0.1721
      2 C2         -0.2018    0.4261   -0.2611 C.3       1 <0>         0.1312
      3 C3         -0.4136    1.9413   -0.2712 C.3       1 <0>        -0.1730
      4 N1         -1.4979   -0.2474   -0.1472 N.pl3     1 <0>        -0.4789
      5 C4         -2.0497   -1.1226   -1.0619 C.ar      1 <0>         0.0578
      6 C5         -1.6311   -1.6297   -2.2844 C.ar      1 <0>        -0.1270
      7 C6         -2.4384   -2.5119   -2.9709 C.ar      1 <0>        -0.1004
      8 C7         -3.6653   -2.8959   -2.4482 C.ar      1 <0>        -0.1286
      9 C8         -4.0945   -2.4079   -1.2469 C.ar      1 <0>        -0.0616
     10 C9         -3.2929   -1.5116   -0.5321 C.ar      1 <0>         0.0452
     11 N2         -3.4404   -0.8718    0.6534 N.2       1 <0>        -0.4756
     12 C10        -2.3853   -0.1312    0.8883 C.2       1 <0>         0.3167
     13 C11        -2.1853    0.7079    2.0901 C.ar      1 <0>        -0.0246
     14 C12        -0.8987    0.9128    2.5941 C.ar      1 <0>        -0.0920
     15 C13        -0.7085    1.6960    3.7157 C.ar      1 <0>        -0.1180
     16 C14        -1.7867    2.2818    4.3476 C.ar      1 <0>        -0.0842
     17 C15        -3.0810    2.0854    3.8542 C.ar      1 <0>        -0.0766
     18 C16        -3.2782    1.2993    2.7174 C.ar      1 <0>        -0.0443
     19 C17        -4.2309    2.7104    4.5285 C.2       1 <0>        -0.0028
     20 C18        -4.0376    3.4732    5.6230 C.2       1 <0>        -0.2075
     21 C19        -5.1813    4.0948    6.2935 C.2       1 <0>         0.5601
     22 O1         -6.3064    3.9228    5.8628 O.2       1 <0>        -0.5224
     23 N3         -4.9880    4.8575    7.3878 N.am      1 <0>        -0.5935
     24 O2         -6.0940    5.4586    8.0363 O.3       1 <0>        -0.3154
     25 H1          1.4664    0.4638   -1.6236 H         1 <0>         0.0827
     26 H2          0.5929   -1.0862   -1.5733 H         1 <0>         0.0741
     27 H3         -0.1228    0.3119   -2.4108 H         1 <0>         0.0742
     28 H4          0.4255    0.1526    0.5873 H         1 <0>         0.0946
     29 H5         -1.0979    2.2072   -1.0770 H         1 <0>         0.0659
     30 H6         -0.8365    2.2555    0.6830 H         1 <0>         0.0715
     31 H7          0.5426    2.4408   -0.4269 H         1 <0>         0.0808
     32 H8         -0.6775   -1.3342   -2.6962 H         1 <0>         0.1362
     33 H9         -2.1137   -2.9066   -3.9223 H         1 <0>         0.1304
     34 H10        -4.2873   -3.5874   -2.9971 H         1 <0>         0.1300
     35 H11        -5.0512   -2.7132   -0.8497 H         1 <0>         0.1299
     36 H12        -0.0502    0.4571    2.1055 H         1 <0>         0.1294
     37 H13         0.2888    1.8505    4.1003 H         1 <0>         0.1354
     38 H14        -1.6309    2.8925    5.2246 H         1 <0>         0.1340
     39 H15        -4.2744    1.1475    2.3288 H         1 <0>         0.1422
     40 H16        -5.2294    2.5578    4.1462 H         1 <0>         0.1425
     41 H17        -3.0391    3.6259    6.0052 H         1 <0>         0.1355
     42 H18        -4.0912    4.9946    7.7312 H         1 <0>         0.4094
     43 H19        -5.8565    5.9862    8.8111 H         1 <0>         0.3889
@<TRIPOS>BOND
     1    1    2 1
     2    1   25 1
     3    1   26 1
     4    1   27 1
     5    2    3 1
     6    2    4 1
     7    2   28 1
     8    3   29 1
     9    3   30 1
    10    3   31 1
    11    4   12 1
    12    4    5 1
    13    5   10 ar
    14    5    6 ar
    15    6    7 ar
    16    6   32 1
    17    7    8 ar
    18    7   33 1
    19    8    9 ar
    20    8   34 1
    21    9   10 ar
    22    9   35 1
    23   10   11 1
    24   11   12 2
    25   12   13 1
    26   13   18 ar
    27   13   14 ar
    28   14   15 ar
    29   14   36 1
    30   15   16 ar
    31   15   37 1
    32   16   17 ar
    33   16   38 1
    34   17   18 ar
    35   17   19 1
    36   18   39 1
    37   19   20 2
    38   19   40 1
    39   20   21 1
    40   20   41 1
    41   21   22 2
    42   21   23 am
    43   23   24 1
    44   23   42 1
    45   24   43 1
@<TRIPOS>MOLECULE
CHEMBL1097017__1
   44    46     0     0     0
SMALL
USER_CHARGES

@<TRIPOS>ATOM
      1 C1         -0.0187    1.5258    0.0104 C.3       1 <0>        -0.1761
      2 C2          0.0021   -0.0041    0.0020 C.3       1 <0>         0.1108
      3 C3          0.7421   -0.5109    1.2415 C.3       1 <0>        -0.1733
      4 N1         -1.3723   -0.5112    0.0124 N.pl3     1 <0>        -0.4189
      5 C4         -2.3261   -0.2736    0.9825 C.ar      1 <0>         0.0852
      6 C5         -2.3360    0.4484    2.1680 C.ar      1 <0>        -0.0920
      7 C6         -3.4819    0.4892    2.9339 C.ar      1 <0>        -0.0658
      8 C7         -4.6242   -0.1863    2.5277 C.ar      1 <0>        -0.0789
      9 C8         -4.6340   -0.9020    1.3645 C.ar      1 <0>        -0.0768
     10 C9         -3.4835   -0.9581    0.5708 C.ar      1 <0>         0.0502
     11 N2         -3.1913   -1.5678   -0.6036 N.pl3     1 <0>        -0.4905
     12 C10        -1.9528   -1.3039   -0.9404 C.cat     1 <0>         0.4409
     13 C11        -1.2813   -1.7931   -2.1646 C.ar      1 <0>        -0.0993
     14 C12        -0.3413   -0.9904   -2.8152 C.ar      1 <0>        -0.0720
     15 C13         0.2877   -1.4442   -3.9580 C.ar      1 <0>        -0.1028
     16 C14        -0.0072   -2.6930   -4.4665 C.ar      1 <0>        -0.0553
     17 C15        -0.9464   -3.5080   -3.8256 C.ar      1 <0>        -0.0515
     18 C16        -1.5810   -3.0563   -2.6668 C.ar      1 <0>        -0.0515
     19 C17        -1.2607   -4.8401   -4.3682 C.2       1 <0>        -0.0366
     20 C18        -0.6432   -5.2761   -5.4842 C.2       1 <0>        -0.1711
     21 C19        -0.9558   -6.6010   -6.0239 C.2       1 <0>         0.5546
     22 O1         -1.7732   -7.3083   -5.4648 O.2       1 <0>        -0.5174
     23 N3         -0.3383   -7.0370   -7.1397 N.am      1 <0>        -0.5888
     24 O2         -0.6406   -8.3181   -7.6616 O.3       1 <0>        -0.3107
     25 H1          1.0039    1.9031    0.0027 H         1 <0>         0.1027
     26 H2         -0.5459    1.8868   -0.8726 H         1 <0>         0.0734
     27 H3         -0.5289    1.8773    0.9072 H         1 <0>         0.0767
     28 H4          0.5123   -0.3556   -0.8948 H         1 <0>         0.1296
     29 H5          0.2319   -0.1594    2.1383 H         1 <0>         0.0748
     30 H6          0.7568   -1.6008    1.2356 H         1 <0>         0.0736
     31 H7          1.7647   -0.1336    1.2338 H         1 <0>         0.1014
     32 H8         -1.4499    0.9757    2.4893 H         1 <0>         0.1508
     33 H9         -3.4904    1.0504    3.8566 H         1 <0>         0.1569
     34 H10        -5.5144   -0.1459    3.1379 H         1 <0>         0.1570
     35 H11        -5.5284   -1.4242    1.0582 H         1 <0>         0.1530
     36 H12        -0.1059   -0.0118   -2.4237 H         1 <0>         0.1420
     37 H13         1.0135   -0.8188   -4.4563 H         1 <0>         0.1523
     38 H14         0.4878   -3.0415   -5.3609 H         1 <0>         0.1488
     39 H15        -2.3037   -3.6824   -2.1647 H         1 <0>         0.1428
     40 H16        -1.9861   -5.4678   -3.8721 H         1 <0>         0.1477
     41 H17         0.0822   -4.6483   -5.9803 H         1 <0>         0.1391
     42 H18         0.3132   -6.4731   -7.5853 H         1 <0>         0.4112
     43 H19        -0.1483   -8.5425   -8.4631 H         1 <0>         0.3941
     44 H20        -3.8065   -2.1129   -1.1186 H         1 <0>         0.4596
@<TRIPOS>BOND
     1    1    2 1
     2    1   25 1
     3    1   26 1
     4    1   27 1
     5    2    3 1
     6    2    4 1
     7    2   28 1
     8    3   29 1
     9    3   30 1
    10    3   31 1
    11    4   12 1
    12    4    5 1
    13    5   10 ar
    14    5    6 ar
    15    6    7 ar
    16    6   32 1
    17    7    8 ar
    18    7   33 1
    19    8    9 ar
    20    8   34 1
    21    9   10 ar
    22    9   35 1
    23   10   11 1
    24   11   12 2
    25   11   44 1
    26   12   13 1
    27   13   18 ar
    28   13   14 ar
    29   14   15 ar
    30   14   36 1
    31   15   16 ar
    32   15   37 1
    33   16   17 ar
    34   16   38 1
    35   17   18 ar
    36   17   19 1
    37   18   39 1
    38   19   20 2
    39   19   40 1
    40   20   21 1
    41   20   41 1
    42   21   22 2
    43   21   23 am
    44   23   24 1
    45   23   42 1
    46   24   43 1
@<TRIPOS>MOLECULE
CHEMBL125416
   52    54     0     0     0
SMALL
USER_CHARGES

@<TRIPOS>ATOM
      1 C1          1.0610    1.3824    3.0090 C.ar      1 <0>        -0.1182
      2 C2          1.9762    2.0944    2.2549 C.ar      1 <0>        -0.1171
      3 C3          2.9201    1.4275    1.5004 C.ar      1 <0>        -0.1092
      4 C4          2.9502    0.0345    1.4997 C.ar      1 <0>        -0.0458
      5 C5          2.0262   -0.6777    2.2616 C.ar      1 <0>        -0.1109
      6 C6          1.0864   -0.0006    3.0120 C.ar      1 <0>        -0.1177
      7 C7          3.9624   -0.6881    0.6900 C.ar      1 <0>        -0.0264
      8 C8          4.8899    0.0251   -0.0677 C.ar      1 <0>        -0.1247
      9 C9          5.8309   -0.6484   -0.8204 C.ar      1 <0>        -0.0963
     10 C10         5.8573   -2.0303   -0.8257 C.ar      1 <0>        -0.1190
     11 C11         4.9371   -2.7492   -0.0731 C.ar      1 <0>         0.1493
     12 C12         3.9919   -2.0798    0.6898 C.ar      1 <0>        -0.1379
     13 N1          4.9666   -4.1483   -0.0813 N.am      1 <0>        -0.6779
     14 C13         6.1422   -4.7968   -0.1994 C.2       1 <0>         0.5118
     15 O1          7.1818   -4.1721   -0.2022 O.2       1 <0>        -0.5162
     16 C14         6.1650   -6.2981   -0.3279 C.3       1 <0>        -0.1401
     17 C15         7.6129   -6.7780   -0.4463 C.3       1 <0>        -0.1058
     18 C16         7.6360   -8.3022   -0.5768 C.3       1 <0>        -0.1204
     19 C17         9.0840   -8.7821   -0.6952 C.3       1 <0>        -0.1195
     20 C18         9.1071  -10.3063   -0.8257 C.3       1 <0>        -0.1144
     21 C19        10.5550  -10.7862   -0.9441 C.3       1 <0>        -0.1402
     22 C20        10.5778  -12.2875   -1.0726 C.2       1 <0>         0.4510
     23 O2          9.5379  -12.9124   -1.0697 O.2       1 <0>        -0.4239
     24 C21        11.8565  -12.9929   -1.2011 C.2       1 <0>         0.0971
     25 N2         13.0460  -12.4310   -1.2115 N.2       1 <0>        -0.4193
     26 C22        13.9675  -13.3839   -1.3431 C.2       1 <0>        -0.0440
     27 C23        13.3260  -14.5753   -1.4165 C.2       1 <0>        -0.0393
     28 O3         12.0107  -14.3251   -1.3223 O.3       1 <0>        -0.1709
     29 H1          0.3268    1.9083    3.6012 H         1 <0>         0.1234
     30 H2          1.9520    3.1741    2.2562 H         1 <0>         0.1252
     31 H3          3.6338    1.9843    0.9113 H         1 <0>         0.1265
     32 H4          2.0449   -1.7575    2.2643 H         1 <0>         0.1238
     33 H5          0.3697   -0.5515    3.6029 H         1 <0>         0.1245
     34 H6          4.8720    1.1050   -0.0663 H         1 <0>         0.1272
     35 H7          6.5483   -0.0939   -1.4071 H         1 <0>         0.1294
     36 H8          6.5950   -2.5526   -1.4167 H         1 <0>         0.1350
     37 H9          3.2780   -2.6367    1.2786 H         1 <0>         0.1282
     38 H10         4.1411   -4.6513   -0.0019 H         1 <0>         0.4116
     39 H11         5.7050   -6.7452    0.5534 H         1 <0>         0.0971
     40 H12         5.6098   -6.5951   -1.2177 H         1 <0>         0.0983
     41 H13         8.0729   -6.3309   -1.3276 H         1 <0>         0.0716
     42 H14         8.1680   -6.4810    0.4435 H         1 <0>         0.0716
     43 H15         7.1760   -8.7493    0.3045 H         1 <0>         0.0646
     44 H16         7.0809   -8.5992   -1.4666 H         1 <0>         0.0647
     45 H17         9.5440   -8.3350   -1.5765 H         1 <0>         0.0670
     46 H18         9.6391   -8.4851    0.1946 H         1 <0>         0.0670
     47 H19         8.6471  -10.7534    0.0556 H         1 <0>         0.0717
     48 H20         8.5520  -10.6033   -1.7155 H         1 <0>         0.0717
     49 H21        11.0150  -10.3391   -1.8254 H         1 <0>         0.1116
     50 H22        11.1102  -10.4892   -0.0543 H         1 <0>         0.1117
     51 H23        15.0362  -13.2336   -1.3846 H         1 <0>         0.1961
     52 H24        13.7873  -15.5456   -1.5267 H         1 <0>         0.2265
@<TRIPOS>BOND
     1    1    6 ar
     2    1    2 ar
     3    1   29 1
     4    2    3 ar
     5    2   30 1
     6    3    4 ar
     7    3   31 1
     8    4    5 ar
     9    4    7 1
    10    5    6 ar
    11    5   32 1
    12    6   33 1
    13    7   12 ar
    14    7    8 ar
    15    8    9 ar
    16    8   34 1
    17    9   10 ar
    18    9   35 1
    19   10   11 ar
    20   10   36 1
    21   11   12 ar
    22   11   13 1
    23   12   37 1
    24   13   14 am
    25   13   38 1
    26   14   15 2
    27   14   16 1
    28   16   17 1
    29   16   39 1
    30   16   40 1
    31   17   18 1
    32   17   41 1
    33   17   42 1
    34   18   19 1
    35   18   43 1
    36   18   44 1
    37   19   20 1
    38   19   45 1
    39   19   46 1
    40   20   21 1
    41   20   47 1
    42   20   48 1
    43   21   22 1
    44   21   49 1
    45   21   50 1
    46   22   23 2
    47   22   24 1
    48   24   28 1
    49   24   25 2
    50   25   26 1
    51   26   27 2
    52   26   51 1
    53   27   28 1
    54   27   52 1
