@<TRIPOS>MOLECULE
3F07-AGE
 36 37 0 0 0
SMALL
SF_CHARGES


@<TRIPOS>ATOM
1    N       -27.3910   31.0390  -40.1790  N.pl3      1 SUBUNIT     -0.2402
2    C       -22.6810   31.9490  -45.4140  C.2        1 SUBUNIT     -0.1100
3    N       -29.3170   25.1940  -38.5060  N.am       1 SUBUNIT     -0.3890
4    C       -21.6490   32.1850  -43.1150  C.2        1 SUBUNIT     -0.1192
5    C       -22.8920   31.7590  -42.4440  C.2        1 SUBUNIT     -0.0531
6    C       -24.0350   31.4280  -43.3290  C.2        1 SUBUNIT     -0.1192
7    O       -30.3160   24.3350  -38.3920  O.2        1 SUBUNIT     -0.5176
8    O       -30.6400   26.8100  -39.2920  O.2        1 SUBUNIT     -0.5641
9    O       -23.3360   31.4600  -38.5510  O.2        1 SUBUNIT     -0.5507
10   C       -23.9330   31.5200  -44.7930  C.2        1 SUBUNIT     -0.1203
11   C       -21.5320   32.2840  -44.5650  C.2        1 SUBUNIT     -0.1203
12   C       -22.7960   31.7270  -40.8910  C.3        1 SUBUNIT     -0.0504
13   C       -23.7630   31.3790  -39.6860  C.2        1 SUBUNIT      0.4632
14   C       -25.2330   30.9450  -39.7890  C.2        1 SUBUNIT     -0.0559
15   C       -26.2540   31.7800  -40.2470  C.2        1 SUBUNIT     -0.0274
16   C       -28.6860   31.6210  -40.5910  C.3        1 SUBUNIT      0.0803
17   C       -27.2160   29.7150  -39.6950  C.2        1 SUBUNIT      0.0667
18   C       -25.8260   29.6680  -39.4450  C.2        1 SUBUNIT     -0.1365
19   C       -28.3030   28.6660  -39.5160  C.2        1 SUBUNIT     -0.1162
20   C       -28.2540   27.3420  -39.0520  C.2        1 SUBUNIT     -0.1392
21   C       -29.5150   26.4580  -38.9710  C.2        1 SUBUNIT      0.6275
22   H       -22.6046   32.0179  -46.4851  H          1 SUBUNIT      0.0951
23   H       -28.3929   24.8927  -38.2389  H          1 SUBUNIT      0.2861
24   H       -20.7908   32.4340  -42.5157  H          1 SUBUNIT      0.0948
25   H       -24.9661   31.1115  -42.8923  H          1 SUBUNIT      0.0948
26   H       -24.7787   31.2721  -45.4103  H          1 SUBUNIT      0.0946
27   H       -20.6044   32.6021  -45.0080  H          1 SUBUNIT      0.0946
28   H       -21.9547   31.0447  -40.7306  H          1 SUBUNIT      0.0289
29   H       -22.4843   32.7516  -40.6627  H          1 SUBUNIT      0.0289
30   H       -26.1711   32.7980  -40.5854  H          1 SUBUNIT      0.0816
31   H       -28.9316   32.4998  -39.9857  H          1 SUBUNIT      0.0198
32   H       -29.4973   30.8949  -40.4747  H          1 SUBUNIT      0.0198
33   H       -28.6604   31.9318  -41.6407  H          1 SUBUNIT      0.0198
34   H       -25.3012   28.8115  -39.0592  H          1 SUBUNIT      0.0901
35   H       -29.3071   28.9475  -39.7811  H          1 SUBUNIT      0.0712
36   H       -27.2853   26.9792  -38.7559  H          1 SUBUNIT      0.0715
@<TRIPOS>BOND
     1    1   15 1
     2    1   16 1
     3    1   17 1
     4    2   10 2
     5    2   11 1
     6    3    7 1
     7    3   21 1
     8    4    5 1
     9    4   11 2
    10    5    6 2
    11    5   12 1
    12    6   10 1
    13    8   21 2
    14    9   13 2
    15   12   13 1
    16   13   14 1
    17   14   15 2
    18   14   18 1
    19   17   18 2
    20   17   19 1
    21   19   20 2
    22   20   21 1
    23    2   22 1
    24    3   23 1
    25    4   24 1
    26    6   25 1
    27   10   26 1
    28   11   27 1
    29   12   28 1
    30   12   29 1
    31   15   30 1
    32   16   31 1
    33   16   32 1
    34   16   33 1
    35   18   34 1
    36   19   35 1
    37   20   36 1
